MODEL 1
REMARK VINA RESULT:     -10.3      0.000      0.000
REMARK  4 active torsions:
REMARK  status: ('A' for Active; 'I' for Inactive)
REMARK    1  A    between atoms: C_2  and  S_1 
REMARK    2  A    between atoms: N_3  and  S_1 
REMARK    3  A    between atoms: C_4  and  C_6 
REMARK       I    between atoms: N_7  and  C_4 
REMARK    4  A    between atoms: C_14  and  N_7 
ROOT
ATOM      1  C   UNL d   1      52.805  32.892  53.274  0.00  0.00     0.104 A 
ATOM      2  C   UNL d   1      52.111  33.166  52.926  0.00  0.00     0.018 A 
ATOM      3  C   UNL d   1      51.979  33.978  52.858  0.00  0.00     0.059 A 
ATOM      4  C   UNL d   1      53.368  33.423  53.553  0.00  0.00     0.012 A 
ATOM      5  C   UNL d   1      52.541  34.514  53.138  0.00  0.00     0.005 A 
ATOM      6  C   UNL d   1      53.236  34.235  53.485  0.00  0.00     0.001 A 
ATOM      7  C   UNL d   1      54.062  33.149  53.900  0.00  0.00     0.001 C 
ENDROOT
BRANCH   3   8
ATOM      8  C   UNL d   1      51.287  34.262  52.512  0.00  0.00     0.279 C 
ATOM      9  N   UNL d   1      50.581  34.243  52.931  0.00  0.00    -0.208 NA
ATOM     10  O   UNL d   1      51.306  34.563  51.747  0.00  0.00    -0.265 OA
BRANCH   9  11
ATOM     11  C   UNL d   1      49.886  34.526  52.590  0.00  0.00     0.087 A 
ATOM     12  C   UNL d   1      49.432  35.074  52.996  0.00  0.00     0.045 A 
ATOM     13  C   UNL d   1      48.732  35.362  52.658  0.00  0.00     0.121 A 
ATOM     14  O   UNL d   1      48.164  35.908  52.924  0.00  0.00    -0.299 OA
ATOM     15  C   UNL d   1      48.499  35.091  51.915  0.00  0.00     0.119 A 
ATOM     16  C   UNL d   1      47.587  35.969  52.342  0.00  0.00     0.304 A 
ATOM     17  O   UNL d   1      47.785  35.465  51.710  0.00  0.00    -0.300 OA
ATOM     18  C   UNL d   1      48.962  34.532  51.501  0.00  0.00     0.028 A 
ATOM     19  C   UNL d   1      49.657  34.249  51.843  0.00  0.00     0.021 A 
ENDBRANCH   9  11
ENDBRANCH   3   8
BRANCH   1  20
ATOM     20  S   UNL d   1      52.936  32.086  53.341  0.00  0.00     0.271 S 
ATOM     21  O   UNL d   1      52.890  32.148  54.164  0.00  0.00    -0.200 OA
ATOM     22  O   UNL d   1      52.988  32.015  52.393  0.00  0.00    -0.200 OA
BRANCH  20  23
ATOM     23  N   UNL d   1      53.071  31.269  53.347  0.00  0.00    -0.229 N 
ATOM     24  C   UNL d   1      52.639  30.710  52.917  0.00  0.00     0.092 A 
ATOM     25  C   UNL d   1      52.960  29.968  53.087  0.00  0.00     0.021 A 
ATOM     26  C   UNL d   1      53.586  30.077  53.620  0.00  0.00     0.021 A 
ATOM     27  C   UNL d   1      53.648  30.876  53.775  0.00  0.00     0.092 A 
ENDBRANCH  20  23
ENDBRANCH   1  20
TORSDOF 4
ENDMDL
MODEL 2
REMARK VINA RESULT:     -10.1      1.285      2.299
REMARK  4 active torsions:
REMARK  status: ('A' for Active; 'I' for Inactive)
REMARK    1  A    between atoms: C_2  and  S_1 
REMARK    2  A    between atoms: N_3  and  S_1 
REMARK    3  A    between atoms: C_4  and  C_6 
REMARK       I    between atoms: N_7  and  C_4 
REMARK    4  A    between atoms: C_14  and  N_7 
ROOT
ATOM      1  C   UNL d   1      53.229  32.673  53.669  0.00  0.00     0.104 A 
ATOM      2  C   UNL d   1      52.520  33.080  53.574  0.00  0.00     0.018 A 
ATOM      3  C   UNL d   1      51.903  32.734  53.147  0.00  0.00     0.059 A 
ATOM      4  C   UNL d   1      53.326  31.924  53.342  0.00  0.00     0.012 A 
ATOM      5  C   UNL d   1      51.996  31.984  52.817  0.00  0.00     0.005 A 
ATOM      6  C   UNL d   1      52.709  31.579  52.915  0.00  0.00     0.001 A 
ATOM      7  C   UNL d   1      54.035  31.517  53.438  0.00  0.00     0.001 C 
ENDROOT
BRANCH   3   8
ATOM      8  C   UNL d   1      51.190  33.134  53.046  0.00  0.00     0.279 C 
ATOM      9  N   UNL d   1      51.162  33.814  52.587  0.00  0.00    -0.208 NA
ATOM     10  O   UNL d   1      50.507  32.852  53.407  0.00  0.00    -0.265 OA
BRANCH   9  11
ATOM     11  C   UNL d   1      50.451  34.219  52.482  0.00  0.00     0.087 A 
ATOM     12  C   UNL d   1      50.047  34.146  51.773  0.00  0.00     0.045 A 
ATOM     13  C   UNL d   1      49.332  34.550  51.662  0.00  0.00     0.121 A 
ATOM     14  O   UNL d   1      48.803  34.590  51.021  0.00  0.00    -0.299 OA
ATOM     15  C   UNL d   1      49.035  35.022  52.269  0.00  0.00     0.119 A 
ATOM     16  C   UNL d   1      48.186  35.085  51.240  0.00  0.00     0.304 A 
ATOM     17  O   UNL d   1      48.319  35.360  52.014  0.00  0.00    -0.300 OA
ATOM     18  C   UNL d   1      49.446  35.096  52.992  0.00  0.00     0.028 A 
ATOM     19  C   UNL d   1      50.157  34.691  53.096  0.00  0.00     0.021 A 
ENDBRANCH   9  11
ENDBRANCH   3   8
BRANCH   1  20
ATOM     20  S   UNL d   1      53.841  33.015  54.093  0.00  0.00     0.271 S 
ATOM     21  O   UNL d   1      54.164  33.306  53.389  0.00  0.00    -0.200 OA
ATOM     22  O   UNL d   1      53.469  32.679  54.902  0.00  0.00    -0.200 OA
BRANCH  20  23
ATOM     23  N   UNL d   1      54.434  33.338  54.572  0.00  0.00    -0.229 N 
ATOM     24  C   UNL d   1      54.414  33.373  55.399  0.00  0.00     0.092 A 
ATOM     25  C   UNL d   1      55.113  33.736  55.646  0.00  0.00     0.021 A 
ATOM     26  C   UNL d   1      55.557  33.922  54.970  0.00  0.00     0.021 A 
ATOM     27  C   UNL d   1      55.135  33.675  54.317  0.00  0.00     0.092 A 
ENDBRANCH  20  23
ENDBRANCH   1  20
TORSDOF 4
ENDMDL
MODEL 3
REMARK VINA RESULT:      -9.1      1.434      5.242
REMARK  4 active torsions:
REMARK  status: ('A' for Active; 'I' for Inactive)
REMARK    1  A    between atoms: C_2  and  S_1 
REMARK    2  A    between atoms: N_3  and  S_1 
REMARK    3  A    between atoms: C_4  and  C_6 
REMARK       I    between atoms: N_7  and  C_4 
REMARK    4  A    between atoms: C_14  and  N_7 
ROOT
ATOM      1  C   UNL d   1      52.229  33.870  53.144  0.00  0.00     0.104 A 
ATOM      2  C   UNL d   1      52.416  33.072  53.223  0.00  0.00     0.018 A 
ATOM      3  C   UNL d   1      53.147  32.852  53.538  0.00  0.00     0.059 A 
ATOM      4  C   UNL d   1      52.765  34.448  53.377  0.00  0.00     0.012 A 
ATOM      5  C   UNL d   1      53.688  33.429  53.773  0.00  0.00     0.005 A 
ATOM      6  C   UNL d   1      53.496  34.228  53.692  0.00  0.00     0.001 A 
ATOM      7  C   UNL d   1      52.578  35.246  53.298  0.00  0.00     0.001 C 
ENDROOT
BRANCH   3   8
ATOM      8  C   UNL d   1      53.344  32.056  53.621  0.00  0.00     0.279 C 
ATOM      9  N   UNL d   1      52.752  31.486  53.627  0.00  0.00    -0.208 NA
ATOM     10  O   UNL d   1      54.132  31.834  53.697  0.00  0.00    -0.265 OA
BRANCH   9  11
ATOM     11  C   UNL d   1      52.943  30.688  53.710  0.00  0.00     0.087 A 
ATOM     12  C   UNL d   1      52.988  30.361  54.459  0.00  0.00     0.045 A 
ATOM     13  C   UNL d   1      53.178  29.559  54.549  0.00  0.00     0.121 A 
ATOM     14  O   UNL d   1      53.265  29.074  55.220  0.00  0.00    -0.299 OA
ATOM     15  C   UNL d   1      53.321  29.099  53.880  0.00  0.00     0.119 A 
ATOM     16  C   UNL d   1      53.461  28.321  54.956  0.00  0.00     0.304 A 
ATOM     17  O   UNL d   1      53.498  28.324  54.125  0.00  0.00    -0.300 OA
ATOM     18  C   UNL d   1      53.276  29.433  53.116  0.00  0.00     0.028 A 
ATOM     19  C   UNL d   1      53.085  30.231  53.033  0.00  0.00     0.021 A 
ENDBRANCH   9  11
ENDBRANCH   3   8
BRANCH   1  20
ATOM     20  S   UNL d   1      51.504  34.089  52.831  0.00  0.00     0.271 S 
ATOM     21  O   UNL d   1      51.870  34.273  52.113  0.00  0.00    -0.200 OA
ATOM     22  O   UNL d   1      51.083  33.876  53.658  0.00  0.00    -0.200 OA
BRANCH  20  23
ATOM     23  N   UNL d   1      50.746  34.295  52.570  0.00  0.00    -0.229 N 
ATOM     24  C   UNL d   1      50.479  34.243  51.788  0.00  0.00     0.092 A 
ATOM     25  C   UNL d   1      49.696  34.504  51.779  0.00  0.00     0.021 A 
ATOM     26  C   UNL d   1      49.487  34.715  52.553  0.00  0.00     0.021 A 
ATOM     27  C   UNL d   1      50.135  34.585  53.032  0.00  0.00     0.092 A 
ENDBRANCH  20  23
ENDBRANCH   1  20
TORSDOF 4
ENDMDL
MODEL 4
REMARK VINA RESULT:      -8.0      1.836      5.545
REMARK  4 active torsions:
REMARK  status: ('A' for Active; 'I' for Inactive)
REMARK    1  A    between atoms: C_2  and  S_1 
REMARK    2  A    between atoms: N_3  and  S_1 
REMARK    3  A    between atoms: C_4  and  C_6 
REMARK       I    between atoms: N_7  and  C_4 
REMARK    4  A    between atoms: C_14  and  N_7 
ROOT
ATOM      1  C   UNL d   1      49.105  35.007  52.486  0.00  0.00     0.104 A 
ATOM      2  C   UNL d   1      49.724  34.713  52.941  0.00  0.00     0.018 A 
ATOM      3  C   UNL d   1      50.314  34.257  52.586  0.00  0.00     0.059 A 
ATOM      4  C   UNL d   1      49.071  34.850  51.679  0.00  0.00     0.012 A 
ATOM      5  C   UNL d   1      50.283  34.097  51.777  0.00  0.00     0.005 A 
ATOM      6  C   UNL d   1      49.661  34.394  51.324  0.00  0.00     0.001 A 
ATOM      7  C   UNL d   1      48.452  35.144  51.223  0.00  0.00     0.001 C 
ENDROOT
BRANCH   3   8
ATOM      8  C   UNL d   1      50.938  33.959  53.034  0.00  0.00     0.279 C 
ATOM      9  N   UNL d   1      51.711  34.160  52.846  0.00  0.00    -0.208 NA
ATOM     10  O   UNL d   1      50.783  33.460  53.669  0.00  0.00    -0.265 OA
BRANCH   9  11
ATOM     11  C   UNL d   1      52.339  33.864  53.291  0.00  0.00     0.087 A 
ATOM     12  C   UNL d   1      52.687  34.338  53.861  0.00  0.00     0.045 A 
ATOM     13  C   UNL d   1      53.319  34.047  54.312  0.00  0.00     0.121 A 
ATOM     14  O   UNL d   1      53.778  34.383  54.918  0.00  0.00    -0.299 OA
ATOM     15  C   UNL d   1      53.591  33.279  54.179  0.00  0.00     0.119 A 
ATOM     16  C   UNL d   1      54.329  33.820  55.153  0.00  0.00     0.304 A 
ATOM     17  O   UNL d   1      54.221  33.130  54.701  0.00  0.00    -0.300 OA
ATOM     18  C   UNL d   1      53.236  32.796  53.598  0.00  0.00     0.028 A 
ATOM     19  C   UNL d   1      52.608  33.092  53.153  0.00  0.00     0.021 A 
ENDBRANCH   9  11
ENDBRANCH   3   8
BRANCH   1  20
ATOM     20  S   UNL d   1      48.519  35.459  52.838  0.00  0.00     0.271 S 
ATOM     21  O   UNL d   1      47.941  34.983  52.487  0.00  0.00    -0.200 OA
ATOM     22  O   UNL d   1      49.185  36.007  53.241  0.00  0.00    -0.200 OA
BRANCH  20  23
ATOM     23  N   UNL d   1      47.972  35.950  53.219  0.00  0.00    -0.229 N 
ATOM     24  C   UNL d   1      48.033  36.217  54.000  0.00  0.00     0.092 A 
ATOM     25  C   UNL d   1      47.372  36.689  54.150  0.00  0.00     0.021 A 
ATOM     26  C   UNL d   1      46.911  36.709  53.460  0.00  0.00     0.021 A 
ATOM     27  C   UNL d   1      47.284  36.255  52.895  0.00  0.00     0.092 A 
ENDBRANCH  20  23
ENDBRANCH   1  20
TORSDOF 4
ENDMDL
MODEL 5
REMARK VINA RESULT:      -7.9      1.851      2.715
REMARK  4 active torsions:
REMARK  status: ('A' for Active; 'I' for Inactive)
REMARK    1  A    between atoms: C_2  and  S_1 
REMARK    2  A    between atoms: N_3  and  S_1 
REMARK    3  A    between atoms: C_4  and  C_6 
REMARK       I    between atoms: N_7  and  C_4 
REMARK    4  A    between atoms: C_14  and  N_7 
ROOT
ATOM      1  C   UNL d   1      51.540  34.245  53.084  0.00  0.00     0.104 A 
ATOM      2  C   UNL d   1      50.795  34.504  53.318  0.00  0.00     0.018 A 
ATOM      3  C   UNL d   1      50.197  34.598  52.756  0.00  0.00     0.059 A 
ATOM      4  C   UNL d   1      51.693  34.079  52.292  0.00  0.00     0.012 A 
ATOM      5  C   UNL d   1      50.346  34.433  51.962  0.00  0.00     0.005 A 
ATOM      6  C   UNL d   1      51.095  34.173  51.730  0.00  0.00     0.001 A 
ATOM      7  C   UNL d   1      52.437  33.819  52.057  0.00  0.00     0.001 C 
ENDROOT
BRANCH   3   8
ATOM      8  C   UNL d   1      49.449  34.857  52.982  0.00  0.00     0.279 C 
ATOM      9  N   UNL d   1      49.236  35.642  52.871  0.00  0.00    -0.208 NA
ATOM     10  O   UNL d   1      48.917  34.329  53.319  0.00  0.00    -0.265 OA
BRANCH   9  11
ATOM     11  C   UNL d   1      48.488  35.908  53.095  0.00  0.00     0.087 A 
ATOM     12  C   UNL d   1      47.901  35.984  52.528  0.00  0.00     0.045 A 
ATOM     13  C   UNL d   1      47.147  36.250  52.746  0.00  0.00     0.121 A 
ATOM     14  O   UNL d   1      46.451  36.383  52.311  0.00  0.00    -0.299 OA
ATOM     15  C   UNL d   1      46.996  36.436  53.536  0.00  0.00     0.119 A 
ATOM     16  C   UNL d   1      45.878  36.649  52.837  0.00  0.00     0.304 A 
ATOM     17  O   UNL d   1      46.206  36.685  53.601  0.00  0.00    -0.300 OA
ATOM     18  C   UNL d   1      47.594  36.358  54.114  0.00  0.00     0.028 A 
ATOM     19  C   UNL d   1      48.342  36.092  53.890  0.00  0.00     0.021 A 
ENDBRANCH   9  11
ENDBRANCH   3   8
BRANCH   1  20
ATOM     20  S   UNL d   1      52.133  34.151  53.641  0.00  0.00     0.271 S 
ATOM     21  O   UNL d   1      51.902  33.365  53.755  0.00  0.00    -0.200 OA
ATOM     22  O   UNL d   1      52.399  35.056  53.509  0.00  0.00    -0.200 OA
BRANCH  20  23
ATOM     23  N   UNL d   1      52.748  34.116  54.194  0.00  0.00    -0.229 N 
ATOM     24  C   UNL d   1      53.057  34.763  54.608  0.00  0.00     0.092 A 
ATOM     25  C   UNL d   1      53.658  34.477  55.097  0.00  0.00     0.021 A 
ATOM     26  C   UNL d   1      53.714  33.658  54.980  0.00  0.00     0.021 A 
ATOM     27  C   UNL d   1      53.154  33.444  54.427  0.00  0.00     0.092 A 
ENDBRANCH  20  23
ENDBRANCH   1  20
TORSDOF 4
ENDMDL
MODEL 6
REMARK VINA RESULT:      -7.7      2.167      6.039
REMARK  4 active torsions:
REMARK  status: ('A' for Active; 'I' for Inactive)
REMARK    1  A    between atoms: C_2  and  S_1 
REMARK    2  A    between atoms: N_3  and  S_1 
REMARK    3  A    between atoms: C_4  and  C_6 
REMARK       I    between atoms: N_7  and  C_4 
REMARK    4  A    between atoms: C_14  and  N_7 
ROOT
ATOM      1  C   UNL d   1      47.448  35.759  52.550  0.00  0.00     0.104 A 
ATOM      2  C   UNL d   1      48.096  35.296  52.342  0.00  0.00     0.018 A 
ATOM      3  C   UNL d   1      48.780  35.315  52.805  0.00  0.00     0.059 A 
ATOM      4  C   UNL d   1      47.478  36.241  53.217  0.00  0.00     0.012 A 
ATOM      5  C   UNL d   1      48.814  35.798  53.474  0.00  0.00     0.005 A 
ATOM      6  C   UNL d   1      48.163  36.261  53.679  0.00  0.00     0.001 A 
ATOM      7  C   UNL d   1      46.831  36.704  53.425  0.00  0.00     0.001 C 
ENDROOT
BRANCH   3   8
ATOM      8  C   UNL d   1      49.433  34.855  52.604  0.00  0.00     0.279 C 
ATOM      9  N   UNL d   1      50.031  34.730  53.153  0.00  0.00    -0.208 NA
ATOM     10  O   UNL d   1      49.485  34.523  51.854  0.00  0.00    -0.265 OA
BRANCH   9  11
ATOM     11  C   UNL d   1      50.687  34.270  52.957  0.00  0.00     0.087 A 
ATOM     12  C   UNL d   1      50.791  33.543  53.319  0.00  0.00     0.045 A 
ATOM     13  C   UNL d   1      51.448  33.076  53.127  0.00  0.00     0.121 A 
ATOM     14  O   UNL d   1      51.703  32.329  53.392  0.00  0.00    -0.299 OA
ATOM     15  C   UNL d   1      51.993  33.351  52.572  0.00  0.00     0.119 A 
ATOM     16  C   UNL d   1      52.402  32.153  52.997  0.00  0.00     0.304 A 
ATOM     17  O   UNL d   1      52.591  32.780  52.485  0.00  0.00    -0.300 OA
ATOM     18  C   UNL d   1      51.887  34.093  52.203  0.00  0.00     0.028 A 
ATOM     19  C   UNL d   1      51.230  34.553  52.399  0.00  0.00     0.021 A 
ENDBRANCH   9  11
ENDBRANCH   3   8
BRANCH   1  20
ATOM     20  S   UNL d   1      46.770  35.740  52.092  0.00  0.00     0.271 S 
ATOM     21  O   UNL d   1      47.049  36.383  51.652  0.00  0.00    -0.200 OA
ATOM     22  O   UNL d   1      46.449  35.001  52.598  0.00  0.00    -0.200 OA
BRANCH  20  23
ATOM     23  N   UNL d   1      46.065  35.673  51.663  0.00  0.00    -0.229 N 
ATOM     24  C   UNL d   1      45.960  35.908  50.876  0.00  0.00     0.092 A 
ATOM     25  C   UNL d   1      45.178  35.741  50.672  0.00  0.00     0.021 A 
ATOM     26  C   UNL d   1      44.808  35.405  51.334  0.00  0.00     0.021 A 
ATOM     27  C   UNL d   1      45.357  35.366  51.937  0.00  0.00     0.092 A 
ENDBRANCH  20  23
ENDBRANCH   1  20
TORSDOF 4
ENDMDL
