MODEL 1
REMARK VINA RESULT:      -3.5      0.000      0.000
REMARK  7 active torsions:
REMARK  status: ('A' for Active; 'I' for Inactive)
REMARK    1  A    between atoms: C_14  and  N_1 
REMARK    2  A    between atoms: C_2  and  C_5 
REMARK    3  A    between atoms: C_6  and  C_2 
REMARK    4  A    between atoms: C_7  and  C_3 
REMARK    5  A    between atoms: C_5  and  C_7 
REMARK    6  A    between atoms: O_15  and  C_6 
REMARK    7  A    between atoms: C_18  and  O_15 
ROOT
ATOM      1  C   UNL d   1      58.346  -0.691  29.649  0.00  0.00     0.132 C 
ATOM      2  C   UNL d   1      58.190  -0.025  29.200  0.00  0.00     0.106 C 
ATOM      3  N   UNL d   1      58.034   0.627  28.766  0.00  0.00    -0.191 NA
ENDROOT
BRANCH   1   4
ATOM      4  C   UNL d   1      57.937  -0.840  30.350  0.00  0.00     0.017 C 
BRANCH   4   5
ATOM      5  C   UNL d   1      57.933  -0.296  30.925  0.00  0.00     0.018 C 
BRANCH   5   6
ATOM      6  C   UNL d   1      57.376  -0.343  31.525  0.00  0.00     0.064 A 
ATOM      7  N   UNL d   1      57.442   0.148  32.206  0.00  0.00    -0.305 N 
ATOM      8  C   UNL d   1      56.870   0.091  32.809  0.00  0.00     0.064 A 
ATOM      9  C   UNL d   1      56.243  -0.438  32.744  0.00  0.00     0.016 A 
ATOM     10  C   UNL d   1      56.944   0.576  33.474  0.00  0.00     0.018 A 
ATOM     11  C   UNL d   1      56.175  -0.926  32.068  0.00  0.00     0.003 A 
ATOM     12  C   UNL d   1      55.685  -0.485  33.345  0.00  0.00     0.001 A 
ATOM     13  C   UNL d   1      56.733  -0.879  31.467  0.00  0.00     0.018 A 
ATOM     14  C   UNL d   1      55.747  -0.004  34.019  0.00  0.00     0.000 A 
ATOM     15  C   UNL d   1      56.386   0.529  34.075  0.00  0.00     0.002 A 
BRANCH   7  16
ATOM     16  C   UNL d   1      58.070   0.682  32.278  0.00  0.00     0.080 C 
ATOM     17  C   UNL d   1      58.748   0.457  32.708  0.00  0.00     0.021 C 
ENDBRANCH   7  16
ENDBRANCH   5   6
ENDBRANCH   4   5
ENDBRANCH   1   4
BRANCH   1  18
ATOM     18  C   UNL d   1      58.909  -1.195  29.385  0.00  0.00     0.310 C 
ATOM     19  O   UNL d   1      59.648  -0.924  29.257  0.00  0.00    -0.258 OA
BRANCH  18  20
ATOM     20  O   UNL d   1      58.766  -1.892  29.258  0.00  0.00    -0.271 OA
BRANCH  20  21
ATOM     21  C   UNL d   1      59.354  -2.415  28.871  0.00  0.00     0.126 C 
ATOM     22  C   UNL d   1      59.134  -3.131  28.502  0.00  0.00     0.029 C 
ENDBRANCH  20  21
ENDBRANCH  18  20
ENDBRANCH   1  18
TORSDOF 7
ENDMDL
MODEL 2
REMARK VINA RESULT:      -2.6      0.527      1.361
REMARK  7 active torsions:
REMARK  status: ('A' for Active; 'I' for Inactive)
REMARK    1  A    between atoms: C_14  and  N_1 
REMARK    2  A    between atoms: C_2  and  C_5 
REMARK    3  A    between atoms: C_6  and  C_2 
REMARK    4  A    between atoms: C_7  and  C_3 
REMARK    5  A    between atoms: C_5  and  C_7 
REMARK    6  A    between atoms: O_15  and  C_6 
REMARK    7  A    between atoms: C_18  and  O_15 
ROOT
ATOM      1  C   UNL d   1      58.354  -0.253  29.891  0.00  0.00     0.132 C 
ATOM      2  C   UNL d   1      57.972   0.212  29.337  0.00  0.00     0.106 C 
ATOM      3  N   UNL d   1      57.597   0.670  28.801  0.00  0.00    -0.191 NA
ENDROOT
BRANCH   1   4
ATOM      4  C   UNL d   1      58.262  -0.119  30.700  0.00  0.00     0.017 C 
BRANCH   4   5
ATOM      5  C   UNL d   1      57.569  -0.277  31.047  0.00  0.00     0.018 C 
BRANCH   5   6
ATOM      6  C   UNL d   1      57.439  -0.039  31.821  0.00  0.00     0.064 A 
ATOM      7  N   UNL d   1      56.741  -0.278  32.227  0.00  0.00    -0.305 N 
ATOM      8  C   UNL d   1      56.620  -0.030  33.013  0.00  0.00     0.064 A 
ATOM      9  C   UNL d   1      57.174   0.444  33.394  0.00  0.00     0.016 A 
ATOM     10  C   UNL d   1      55.931  -0.269  33.404  0.00  0.00     0.018 A 
ATOM     11  C   UNL d   1      57.868   0.682  32.992  0.00  0.00     0.003 A 
ATOM     12  C   UNL d   1      57.043   0.682  34.169  0.00  0.00     0.001 A 
ATOM     13  C   UNL d   1      57.998   0.444  32.217  0.00  0.00     0.018 A 
ATOM     14  C   UNL d   1      56.357   0.449  34.574  0.00  0.00     0.000 A 
ATOM     15  C   UNL d   1      55.801  -0.031  34.179  0.00  0.00     0.002 A 
BRANCH   7  16
ATOM     16  C   UNL d   1      56.179  -0.754  31.851  0.00  0.00     0.080 C 
ATOM     17  C   UNL d   1      56.038  -1.523  32.140  0.00  0.00     0.021 C 
ENDBRANCH   7  16
ENDBRANCH   5   6
ENDBRANCH   4   5
ENDBRANCH   1   4
BRANCH   1  18
ATOM     18  C   UNL d   1      58.821  -0.845  29.622  0.00  0.00     0.310 C 
ATOM     19  O   UNL d   1      59.612  -0.791  29.708  0.00  0.00    -0.258 OA
BRANCH  18  20
ATOM     20  O   UNL d   1      58.545  -1.430  29.300  0.00  0.00    -0.271 OA
BRANCH  20  21
ATOM     21  C   UNL d   1      59.036  -2.141  29.145  0.00  0.00     0.126 C 
ATOM     22  C   UNL d   1      58.697  -2.890  29.003  0.00  0.00     0.029 C 
ENDBRANCH  20  21
ENDBRANCH  18  20
ENDBRANCH   1  18
TORSDOF 7
ENDMDL
MODEL 3
REMARK VINA RESULT:      -1.4      2.091      4.499
REMARK  7 active torsions:
REMARK  status: ('A' for Active; 'I' for Inactive)
REMARK    1  A    between atoms: C_14  and  N_1 
REMARK    2  A    between atoms: C_2  and  C_5 
REMARK    3  A    between atoms: C_6  and  C_2 
REMARK    4  A    between atoms: C_7  and  C_3 
REMARK    5  A    between atoms: C_5  and  C_7 
REMARK    6  A    between atoms: O_15  and  C_6 
REMARK    7  A    between atoms: C_18  and  O_15 
ROOT
ATOM      1  C   UNL d   1      56.665  -0.157  32.283  0.00  0.00     0.132 C 
ATOM      2  C   UNL d   1      56.589  -0.972  32.306  0.00  0.00     0.106 C 
ATOM      3  N   UNL d   1      56.518  -1.767  32.322  0.00  0.00    -0.191 NA
ENDROOT
BRANCH   1   4
ATOM      4  C   UNL d   1      57.005   0.223  31.635  0.00  0.00     0.017 C 
BRANCH   4   5
ATOM      5  C   UNL d   1      57.793   0.273  31.579  0.00  0.00     0.018 C 
BRANCH   5   6
ATOM      6  C   UNL d   1      58.148   0.275  30.840  0.00  0.00     0.064 A 
ATOM      7  N   UNL d   1      58.961   0.480  30.760  0.00  0.00    -0.305 N 
ATOM      8  C   UNL d   1      59.311   0.478  30.004  0.00  0.00     0.064 A 
ATOM      9  C   UNL d   1      58.870   0.278  29.338  0.00  0.00     0.016 A 
ATOM     10  C   UNL d   1      60.109   0.680  29.934  0.00  0.00     0.018 A 
ATOM     11  C   UNL d   1      58.063   0.074  29.416  0.00  0.00     0.003 A 
ATOM     12  C   UNL d   1      59.226   0.279  28.598  0.00  0.00     0.001 A 
ATOM     13  C   UNL d   1      57.707   0.072  30.156  0.00  0.00     0.018 A 
ATOM     14  C   UNL d   1      60.027   0.481  28.513  0.00  0.00     0.000 A 
ATOM     15  C   UNL d   1      60.465   0.682  29.195  0.00  0.00     0.002 A 
BRANCH   7  16
ATOM     16  C   UNL d   1      59.410   0.682  31.424  0.00  0.00     0.080 C 
ATOM     17  C   UNL d   1      60.059   0.205  31.638  0.00  0.00     0.021 C 
ENDBRANCH   7  16
ENDBRANCH   5   6
ENDBRANCH   4   5
ENDBRANCH   1   4
BRANCH   1  18
ATOM     18  C   UNL d   1      56.397   0.259  32.913  0.00  0.00     0.310 C 
ATOM     19  O   UNL d   1      56.889   0.411  33.521  0.00  0.00    -0.258 OA
BRANCH  18  20
ATOM     20  O   UNL d   1      55.717   0.502  32.945  0.00  0.00    -0.271 OA
BRANCH  20  21
ATOM     21  C   UNL d   1      55.308   0.614  33.714  0.00  0.00     0.126 C 
ATOM     22  C   UNL d   1      54.478   0.679  33.768  0.00  0.00     0.029 C 
ENDBRANCH  20  21
ENDBRANCH  18  20
ENDBRANCH   1  18
TORSDOF 7
ENDMDL
