MODEL 1
REMARK VINA RESULT:      -4.6      0.000      0.000
REMARK  7 active torsions:
REMARK  status: ('A' for Active; 'I' for Inactive)
REMARK    1  A    between atoms: C_7  and  S_1 
REMARK    2  A    between atoms: N_11  and  S_1 
REMARK    3  A    between atoms: C_5  and  C_2 
REMARK    4  A    between atoms: C_6  and  C_15 
REMARK    5  A    between atoms: C_18  and  N_11 
REMARK    6  A    between atoms: C_15  and  C_18 
REMARK    7  A    between atoms: O_21  and  C_17 
ROOT
ATOM      1  C   UNL d   1      58.148  -0.088  30.432  0.00  0.00     0.114 C 
ENDROOT
BRANCH   1   2
ATOM      2  C   UNL d   1      58.458   0.057  29.683  0.00  0.00     0.041 C 
BRANCH   2   3
ATOM      3  C   UNL d   1      58.882  -0.531  29.280  0.00  0.00     0.090 A 
ATOM      4  N   UNL d   1      58.784  -1.350  29.383  0.00  0.00    -0.238 NA
ATOM      5  C   UNL d   1      59.317  -1.731  28.871  0.00  0.00     0.112 A 
ATOM      6  S   UNL d   1      59.740  -1.153  28.455  0.00  0.00    -0.066 SA
ATOM      7  C   UNL d   1      59.469  -0.407  28.709  0.00  0.00     0.056 A 
BRANCH   5   8
ATOM      8  C   UNL d   1      59.415  -2.556  28.785  0.00  0.00     0.043 A 
ATOM      9  C   UNL d   1      60.158  -2.897  28.896  0.00  0.00     0.101 A 
ATOM     10  N   UNL d   1      60.253  -3.702  28.813  0.00  0.00    -0.242 NA
ATOM     11  C   UNL d   1      59.607  -4.173  28.618  0.00  0.00     0.099 A 
ATOM     12  C   UNL d   1      58.851  -3.822  28.506  0.00  0.00     0.021 A 
ATOM     13  C   UNL d   1      58.757  -3.013  28.590  0.00  0.00     0.005 A 
ENDBRANCH   5   8
ENDBRANCH   2   3
ENDBRANCH   1   2
BRANCH   1  14
ATOM     14  N   UNL d   1      57.941   0.559  30.930  0.00  0.00    -0.157 NA
BRANCH  14  15
ATOM     15  S   UNL d   1      57.438   0.428  31.576  0.00  0.00     0.285 S 
ATOM     16  O   UNL d   1      58.105   0.340  32.071  0.00  0.00    -0.198 OA
ATOM     17  O   UNL d   1      56.771   0.515  31.087  0.00  0.00    -0.198 OA
BRANCH  15  18
ATOM     18  C   UNL d   1      56.944   0.295  32.226  0.00  0.00     0.105 A 
ATOM     19  C   UNL d   1      57.108   0.676  32.937  0.00  0.00     0.015 A 
ATOM     20  C   UNL d   1      56.611   0.545  33.595  0.00  0.00     0.025 A 
ATOM     21  C   UNL d   1      55.968   0.041  33.530  0.00  0.00     0.094 A 
ATOM     22  C   UNL d   1      55.812  -0.334  32.817  0.00  0.00     0.025 A 
ATOM     23  C   UNL d   1      56.291  -0.216  32.159  0.00  0.00     0.015 A 
BRANCH  21  24
ATOM     24  O   UNL d   1      55.474  -0.091  34.179  0.00  0.00    -0.328 OA
ATOM     25  C   UNL d   1      54.810   0.385  34.293  0.00  0.00     0.181 C 
ENDBRANCH  21  24
ENDBRANCH  15  18
ENDBRANCH  14  15
ENDBRANCH   1  14
TORSDOF 7
ENDMDL
MODEL 2
REMARK VINA RESULT:      -4.5      1.871      5.816
REMARK  7 active torsions:
REMARK  status: ('A' for Active; 'I' for Inactive)
REMARK    1  A    between atoms: C_7  and  S_1 
REMARK    2  A    between atoms: N_11  and  S_1 
REMARK    3  A    between atoms: C_5  and  C_2 
REMARK    4  A    between atoms: C_6  and  C_15 
REMARK    5  A    between atoms: C_18  and  N_11 
REMARK    6  A    between atoms: C_15  and  C_18 
REMARK    7  A    between atoms: O_21  and  C_17 
ROOT
ATOM      1  C   UNL d   1      57.753  -0.202  30.687  0.00  0.00     0.114 C 
ENDROOT
BRANCH   1   2
ATOM      2  C   UNL d   1      57.373   0.468  30.979  0.00  0.00     0.041 C 
BRANCH   2   3
ATOM      3  C   UNL d   1      57.201   0.538  31.787  0.00  0.00     0.090 A 
ATOM      4  N   UNL d   1      56.439   0.525  32.119  0.00  0.00    -0.238 NA
ATOM      5  C   UNL d   1      56.524   0.612  32.941  0.00  0.00     0.112 A 
ATOM      6  S   UNL d   1      57.330   0.679  33.116  0.00  0.00    -0.066 SA
ATOM      7  C   UNL d   1      57.751   0.633  32.398  0.00  0.00     0.056 A 
BRANCH   5   8
ATOM      8  C   UNL d   1      55.905   0.630  33.502  0.00  0.00     0.043 A 
ATOM      9  C   UNL d   1      56.078   0.621  34.308  0.00  0.00     0.101 A 
ATOM     10  N   UNL d   1      55.474   0.639  34.855  0.00  0.00    -0.242 NA
ATOM     11  C   UNL d   1      54.692   0.666  34.601  0.00  0.00     0.099 A 
ATOM     12  C   UNL d   1      54.519   0.675  33.778  0.00  0.00     0.021 A 
ATOM     13  C   UNL d   1      55.127   0.658  33.230  0.00  0.00     0.005 A 
ENDBRANCH   5   8
ENDBRANCH   2   3
ENDBRANCH   1   2
BRANCH   1  14
ATOM     14  N   UNL d   1      57.924  -0.259  29.864  0.00  0.00    -0.157 NA
BRANCH  14  15
ATOM     15  S   UNL d   1      58.474  -0.823  29.603  0.00  0.00     0.285 S 
ATOM     16  O   UNL d   1      57.918  -1.427  29.757  0.00  0.00    -0.198 OA
ATOM     17  O   UNL d   1      59.030  -0.224  29.449  0.00  0.00    -0.198 OA
BRANCH  15  18
ATOM     18  C   UNL d   1      59.015  -1.392  29.345  0.00  0.00     0.105 A 
ATOM     19  C   UNL d   1      58.766  -2.171  29.258  0.00  0.00     0.015 A 
ATOM     20  C   UNL d   1      59.310  -2.748  28.997  0.00  0.00     0.025 A 
ATOM     21  C   UNL d   1      60.084  -2.537  28.831  0.00  0.00     0.094 A 
ATOM     22  C   UNL d   1      60.324  -1.757  28.920  0.00  0.00     0.025 A 
ATOM     23  C   UNL d   1      59.801  -1.176  29.176  0.00  0.00     0.015 A 
BRANCH  21  24
ATOM     24  O   UNL d   1      60.625  -3.105  28.572  0.00  0.00    -0.328 OA
ATOM     25  C   UNL d   1      60.553  -3.886  28.829  0.00  0.00     0.181 C 
ENDBRANCH  21  24
ENDBRANCH  15  18
ENDBRANCH  14  15
ENDBRANCH   1  14
TORSDOF 7
ENDMDL
MODEL 3
REMARK VINA RESULT:      -3.0      1.910      5.918
REMARK  7 active torsions:
REMARK  status: ('A' for Active; 'I' for Inactive)
REMARK    1  A    between atoms: C_7  and  S_1 
REMARK    2  A    between atoms: N_11  and  S_1 
REMARK    3  A    between atoms: C_5  and  C_2 
REMARK    4  A    between atoms: C_6  and  C_15 
REMARK    5  A    between atoms: C_18  and  N_11 
REMARK    6  A    between atoms: C_15  and  C_18 
REMARK    7  A    between atoms: O_21  and  C_17 
ROOT
ATOM      1  C   UNL d   1      57.362  -0.235  30.872  0.00  0.00     0.114 C 
ENDROOT
BRANCH   1   2
ATOM      2  C   UNL d   1      57.271   0.213  31.557  0.00  0.00     0.041 C 
BRANCH   2   3
ATOM      3  C   UNL d   1      56.745  -0.026  32.152  0.00  0.00     0.090 A 
ATOM      4  N   UNL d   1      56.525   0.431  32.811  0.00  0.00    -0.238 NA
ATOM      5  C   UNL d   1      55.992  -0.021  33.261  0.00  0.00     0.112 A 
ATOM      6  S   UNL d   1      55.884  -0.751  32.885  0.00  0.00    -0.066 SA
ATOM      7  C   UNL d   1      56.352  -0.753  32.195  0.00  0.00     0.056 A 
BRANCH   5   8
ATOM      8  C   UNL d   1      55.624   0.215  33.973  0.00  0.00     0.043 A 
ATOM      9  C   UNL d   1      54.801   0.246  34.022  0.00  0.00     0.101 A 
ATOM     10  N   UNL d   1      54.442   0.476  34.717  0.00  0.00    -0.242 NA
ATOM     11  C   UNL d   1      54.903   0.676  35.368  0.00  0.00     0.099 A 
ATOM     12  C   UNL d   1      55.741   0.643  35.316  0.00  0.00     0.021 A 
ATOM     13  C   UNL d   1      56.100   0.411  34.617  0.00  0.00     0.005 A 
ENDBRANCH   5   8
ENDBRANCH   2   3
ENDBRANCH   1   2
BRANCH   1  14
ATOM     14  N   UNL d   1      57.939  -0.011  30.301  0.00  0.00    -0.157 NA
BRANCH  14  15
ATOM     15  S   UNL d   1      58.401  -0.599  29.941  0.00  0.00     0.285 S 
ATOM     16  O   UNL d   1      57.936  -0.532  29.250  0.00  0.00    -0.198 OA
ATOM     17  O   UNL d   1      58.866  -0.668  30.627  0.00  0.00    -0.198 OA
BRANCH  15  18
ATOM     18  C   UNL d   1      58.855  -1.183  29.574  0.00  0.00     0.105 A 
ATOM     19  C   UNL d   1      59.572  -0.975  29.228  0.00  0.00     0.015 A 
ATOM     20  C   UNL d   1      60.033  -1.563  28.856  0.00  0.00     0.025 A 
ATOM     21  C   UNL d   1      59.772  -2.339  28.837  0.00  0.00     0.094 A 
ATOM     22  C   UNL d   1      59.055  -2.539  29.185  0.00  0.00     0.025 A 
ATOM     23  C   UNL d   1      58.588  -1.971  29.555  0.00  0.00     0.015 A 
BRANCH  21  24
ATOM     24  O   UNL d   1      60.226  -2.924  28.470  0.00  0.00    -0.328 OA
ATOM     25  C   UNL d   1      61.012  -3.033  28.695  0.00  0.00     0.181 C 
ENDBRANCH  21  24
ENDBRANCH  15  18
ENDBRANCH  14  15
ENDBRANCH   1  14
TORSDOF 7
ENDMDL
