MODEL 1
REMARK VINA RESULT:      -6.9      0.000      0.000
REMARK  6 active torsions:
REMARK  status: ('A' for Active; 'I' for Inactive)
REMARK    1  A    between atoms: C_10  and  C_3 
REMARK    2  A    between atoms: N_12  and  C_4 
REMARK    3  A    between atoms: N_11  and  C_14 
REMARK    4  A    between atoms: C_19  and  N_12 
REMARK    5  A    between atoms: C_14  and  C_15 
REMARK    6  A    between atoms: C_15  and  C_19 
ROOT
ATOM      1  C   UNL d   1      53.170  31.328  53.634  0.00  0.00     0.167 A 
ATOM      2  N   UNL d   1      52.805  31.841  53.101  0.00  0.00    -0.195 N 
ATOM      3  C   UNL d   1      52.983  30.561  53.411  0.00  0.00     0.057 A 
ATOM      4  C   UNL d   1      52.895  32.656  53.186  0.00  0.00     0.167 A 
ATOM      5  N   UNL d   1      52.397  31.387  52.553  0.00  0.00    -0.161 NA
ATOM      6  N   UNL d   1      53.624  31.628  54.252  0.00  0.00    -0.227 NA
ATOM      7  C   UNL d   1      53.352  32.957  53.809  0.00  0.00     0.058 A 
ATOM      8  C   UNL d   1      52.504  30.605  52.740  0.00  0.00     0.124 A 
ATOM      9  C   UNL d   1      53.713  32.449  54.337  0.00  0.00     0.086 A 
ATOM     10  C   UNL d   1      54.163  32.771  54.949  0.00  0.00     0.021 C 
ENDROOT
BRANCH   4  11
ATOM     11  N   UNL d   1      52.531  33.169  52.653  0.00  0.00    -0.225 NA
BRANCH  11  12
ATOM     12  C   UNL d   1      52.066  33.791  52.931  0.00  0.00     0.102 C 
BRANCH  12  13
ATOM     13  C   UNL d   1      51.416  34.058  52.482  0.00  0.00     0.040 C 
BRANCH  13  14
ATOM     14  C   UNL d   1      50.795  34.446  52.856  0.00  0.00     0.082 C 
BRANCH  14  15
ATOM     15  N   UNL d   1      50.088  34.581  52.445  0.00  0.00    -0.299 N 
ATOM     16  C   UNL d   1      49.462  34.982  52.813  0.00  0.00     0.107 A 
ATOM     17  C   UNL d   1      48.758  35.117  52.404  0.00  0.00     0.142 A 
ATOM     18  O   UNL d   1      48.677  34.852  51.625  0.00  0.00    -0.300 OA
ATOM     19  C   UNL d   1      49.297  34.453  51.258  0.00  0.00     0.142 A 
ATOM     20  C   UNL d   1      50.000  34.319  51.667  0.00  0.00     0.107 A 
ENDBRANCH  14  15
ENDBRANCH  13  14
ENDBRANCH  12  13
ENDBRANCH  11  12
ENDBRANCH   4  11
BRANCH   3  21
ATOM     21  C   UNL d   1      53.269  29.915  53.842  0.00  0.00     0.004 A 
ATOM     22  C   UNL d   1      53.979  29.567  53.634  0.00  0.00     0.000 A 
ATOM     23  C   UNL d   1      54.269  28.927  54.057  0.00  0.00     0.000 A 
ATOM     24  C   UNL d   1      53.832  28.633  54.703  0.00  0.00     0.000 A 
ATOM     25  C   UNL d   1      53.116  28.992  54.905  0.00  0.00     0.000 A 
ATOM     26  C   UNL d   1      52.839  29.626  54.479  0.00  0.00     0.000 A 
ENDBRANCH   3  21
TORSDOF 6
ENDMDL
MODEL 2
REMARK VINA RESULT:      -6.5      2.183      6.663
REMARK  6 active torsions:
REMARK  status: ('A' for Active; 'I' for Inactive)
REMARK    1  A    between atoms: C_10  and  C_3 
REMARK    2  A    between atoms: N_12  and  C_4 
REMARK    3  A    between atoms: N_11  and  C_14 
REMARK    4  A    between atoms: C_19  and  N_12 
REMARK    5  A    between atoms: C_14  and  C_15 
REMARK    6  A    between atoms: C_15  and  C_19 
ROOT
ATOM      1  C   UNL d   1      48.366  35.346  52.502  0.00  0.00     0.167 A 
ATOM      2  N   UNL d   1      49.070  35.259  52.924  0.00  0.00    -0.195 N 
ATOM      3  C   UNL d   1      47.849  35.785  52.964  0.00  0.00     0.057 A 
ATOM      4  C   UNL d   1      49.698  34.839  52.595  0.00  0.00     0.167 A 
ATOM      5  N   UNL d   1      48.981  35.645  53.642  0.00  0.00    -0.161 NA
ATOM      6  N   UNL d   1      48.290  35.013  51.752  0.00  0.00    -0.227 NA
ATOM      7  C   UNL d   1      49.620  34.505  51.840  0.00  0.00     0.058 A 
ATOM      8  C   UNL d   1      48.237  35.966  53.670  0.00  0.00     0.124 A 
ATOM      9  C   UNL d   1      48.924  34.591  51.423  0.00  0.00     0.086 A 
ATOM     10  C   UNL d   1      48.869  34.250  50.673  0.00  0.00     0.021 C 
ENDROOT
BRANCH   4  11
ATOM     11  N   UNL d   1      50.401  34.752  53.017  0.00  0.00    -0.225 NA
BRANCH  11  12
ATOM     12  C   UNL d   1      50.947  34.176  52.795  0.00  0.00     0.102 C 
BRANCH  12  13
ATOM     13  C   UNL d   1      51.548  33.943  53.325  0.00  0.00     0.040 C 
BRANCH  13  14
ATOM     14  C   UNL d   1      52.293  33.750  53.038  0.00  0.00     0.082 C 
BRANCH  14  15
ATOM     15  N   UNL d   1      52.842  33.378  53.535  0.00  0.00    -0.299 N 
ATOM     16  C   UNL d   1      53.100  32.607  53.369  0.00  0.00     0.107 A 
ATOM     17  C   UNL d   1      53.647  32.237  53.864  0.00  0.00     0.142 A 
ATOM     18  O   UNL d   1      53.937  32.636  54.528  0.00  0.00    -0.300 OA
ATOM     19  C   UNL d   1      53.682  33.401  54.695  0.00  0.00     0.142 A 
ATOM     20  C   UNL d   1      53.136  33.771  54.200  0.00  0.00     0.107 A 
ENDBRANCH  14  15
ENDBRANCH  13  14
ENDBRANCH  12  13
ENDBRANCH  11  12
ENDBRANCH   4  11
BRANCH   3  21
ATOM     21  C   UNL d   1      47.090  35.966  52.690  0.00  0.00     0.004 A 
ATOM     22  C   UNL d   1      46.991  36.524  52.102  0.00  0.00     0.000 A 
ATOM     23  C   UNL d   1      46.240  36.709  51.825  0.00  0.00     0.000 A 
ATOM     24  C   UNL d   1      45.578  36.321  52.151  0.00  0.00     0.000 A 
ATOM     25  C   UNL d   1      45.689  35.759  52.745  0.00  0.00     0.000 A 
ATOM     26  C   UNL d   1      46.437  35.584  53.011  0.00  0.00     0.000 A 
ENDBRANCH   3  21
TORSDOF 6
ENDMDL
MODEL 3
REMARK VINA RESULT:      -6.2      2.506      7.120
REMARK  6 active torsions:
REMARK  status: ('A' for Active; 'I' for Inactive)
REMARK    1  A    between atoms: C_10  and  C_3 
REMARK    2  A    between atoms: N_12  and  C_4 
REMARK    3  A    between atoms: N_11  and  C_14 
REMARK    4  A    between atoms: C_19  and  N_12 
REMARK    5  A    between atoms: C_14  and  C_15 
REMARK    6  A    between atoms: C_15  and  C_19 
ROOT
ATOM      1  C   UNL d   1      47.292  35.643  52.178  0.00  0.00     0.167 A 
ATOM      2  N   UNL d   1      48.022  35.299  52.009  0.00  0.00    -0.195 N 
ATOM      3  C   UNL d   1      46.779  35.458  51.565  0.00  0.00     0.057 A 
ATOM      4  C   UNL d   1      48.652  35.391  52.532  0.00  0.00     0.167 A 
ATOM      5  N   UNL d   1      47.954  34.905  51.293  0.00  0.00    -0.161 NA
ATOM      6  N   UNL d   1      47.191  36.079  52.870  0.00  0.00    -0.227 NA
ATOM      7  C   UNL d   1      48.549  35.831  53.228  0.00  0.00     0.058 A 
ATOM      8  C   UNL d   1      47.197  35.001  51.019  0.00  0.00     0.124 A 
ATOM      9  C   UNL d   1      47.826  36.171  53.395  0.00  0.00     0.086 A 
ATOM     10  C   UNL d   1      47.747  36.604  54.094  0.00  0.00     0.021 C 
ENDROOT
BRANCH   4  11
ATOM     11  N   UNL d   1      49.382  35.047  52.363  0.00  0.00    -0.225 NA
BRANCH  11  12
ATOM     12  C   UNL d   1      49.832  34.715  52.968  0.00  0.00     0.102 C 
BRANCH  12  13
ATOM     13  C   UNL d   1      50.569  34.363  52.797  0.00  0.00     0.040 C 
BRANCH  13  14
ATOM     14  C   UNL d   1      50.879  33.797  53.305  0.00  0.00     0.082 C 
BRANCH  14  15
ATOM     15  N   UNL d   1      51.680  33.591  53.252  0.00  0.00    -0.299 N 
ATOM     16  C   UNL d   1      51.900  32.850  52.951  0.00  0.00     0.107 A 
ATOM     17  C   UNL d   1      52.698  32.644  52.898  0.00  0.00     0.142 A 
ATOM     18  O   UNL d   1      53.278  33.179  53.145  0.00  0.00    -0.300 OA
ATOM     19  C   UNL d   1      53.061  33.915  53.445  0.00  0.00     0.142 A 
ATOM     20  C   UNL d   1      52.264  34.120  53.498  0.00  0.00     0.107 A 
ENDBRANCH  14  15
ENDBRANCH  13  14
ENDBRANCH  12  13
ENDBRANCH  11  12
ENDBRANCH   4  11
BRANCH   3  21
ATOM     21  C   UNL d   1      45.997  35.727  51.574  0.00  0.00     0.004 A 
ATOM     22  C   UNL d   1      45.803  36.435  51.215  0.00  0.00     0.000 A 
ATOM     23  C   UNL d   1      45.029  36.707  51.220  0.00  0.00     0.000 A 
ATOM     24  C   UNL d   1      44.440  36.254  51.597  0.00  0.00     0.000 A 
ATOM     25  C   UNL d   1      44.646  35.540  51.958  0.00  0.00     0.000 A 
ATOM     26  C   UNL d   1      45.416  35.280  51.946  0.00  0.00     0.000 A 
ENDBRANCH   3  21
TORSDOF 6
ENDMDL
MODEL 4
REMARK VINA RESULT:      -4.7      1.825      5.248
REMARK  6 active torsions:
REMARK  status: ('A' for Active; 'I' for Inactive)
REMARK    1  A    between atoms: C_10  and  C_3 
REMARK    2  A    between atoms: N_12  and  C_4 
REMARK    3  A    between atoms: N_11  and  C_14 
REMARK    4  A    between atoms: C_19  and  N_12 
REMARK    5  A    between atoms: C_14  and  C_15 
REMARK    6  A    between atoms: C_15  and  C_19 
ROOT
ATOM      1  C   UNL d   1      51.341  34.029  53.161  0.00  0.00     0.167 A 
ATOM      2  N   UNL d   1      51.732  33.410  53.542  0.00  0.00    -0.195 N 
ATOM      3  C   UNL d   1      50.561  33.801  53.048  0.00  0.00     0.057 A 
ATOM      4  C   UNL d   1      52.530  33.481  53.730  0.00  0.00     0.167 A 
ATOM      5  N   UNL d   1      51.190  32.805  53.660  0.00  0.00    -0.161 NA
ATOM      6  N   UNL d   1      51.748  34.719  52.969  0.00  0.00    -0.227 NA
ATOM      7  C   UNL d   1      52.939  34.176  53.535  0.00  0.00     0.058 A 
ATOM      8  C   UNL d   1      50.474  33.041  53.359  0.00  0.00     0.124 A 
ATOM      9  C   UNL d   1      52.552  34.788  53.159  0.00  0.00     0.086 A 
ATOM     10  C   UNL d   1      52.980  35.470  52.975  0.00  0.00     0.021 C 
ENDROOT
BRANCH   4  11
ATOM     11  N   UNL d   1      52.922  32.862  54.110  0.00  0.00    -0.225 NA
BRANCH  11  12
ATOM     12  C   UNL d   1      53.497  32.430  53.710  0.00  0.00     0.102 C 
BRANCH  12  13
ATOM     13  C   UNL d   1      53.722  31.676  53.988  0.00  0.00     0.040 C 
BRANCH  13  14
ATOM     14  C   UNL d   1      53.856  31.067  53.453  0.00  0.00     0.082 C 
BRANCH  14  15
ATOM     15  N   UNL d   1      53.528  30.318  53.591  0.00  0.00    -0.299 N 
ATOM     16  C   UNL d   1      53.729  29.895  54.276  0.00  0.00     0.107 A 
ATOM     17  C   UNL d   1      53.402  29.150  54.413  0.00  0.00     0.142 A 
ATOM     18  O   UNL d   1      52.874  28.824  53.867  0.00  0.00    -0.300 OA
ATOM     19  C   UNL d   1      52.674  29.243  53.186  0.00  0.00     0.142 A 
ATOM     20  C   UNL d   1      53.000  29.988  53.049  0.00  0.00     0.107 A 
ENDBRANCH  14  15
ENDBRANCH  13  14
ENDBRANCH  12  13
ENDBRANCH  11  12
ENDBRANCH   4  11
BRANCH   3  21
ATOM     21  C   UNL d   1      50.023  34.308  52.676  0.00  0.00     0.004 A 
ATOM     22  C   UNL d   1      49.606  34.855  53.117  0.00  0.00     0.000 A 
ATOM     23  C   UNL d   1      49.071  35.362  52.755  0.00  0.00     0.000 A 
ATOM     24  C   UNL d   1      48.958  35.313  51.931  0.00  0.00     0.000 A 
ATOM     25  C   UNL d   1      49.384  34.758  51.494  0.00  0.00     0.000 A 
ATOM     26  C   UNL d   1      49.911  34.261  51.864  0.00  0.00     0.000 A 
ENDBRANCH   3  21
TORSDOF 6
ENDMDL
MODEL 5
REMARK VINA RESULT:      -4.2      2.334      5.285
REMARK  6 active torsions:
REMARK  status: ('A' for Active; 'I' for Inactive)
REMARK    1  A    between atoms: C_10  and  C_3 
REMARK    2  A    between atoms: N_12  and  C_4 
REMARK    3  A    between atoms: N_11  and  C_14 
REMARK    4  A    between atoms: C_19  and  N_12 
REMARK    5  A    between atoms: C_14  and  C_15 
REMARK    6  A    between atoms: C_15  and  C_19 
ROOT
ATOM      1  C   UNL d   1      52.864  33.546  53.608  0.00  0.00     0.167 A 
ATOM      2  N   UNL d   1      53.165  32.835  53.317  0.00  0.00    -0.195 N 
ATOM      3  C   UNL d   1      53.486  33.966  53.938  0.00  0.00     0.057 A 
ATOM      4  C   UNL d   1      52.664  32.294  52.951  0.00  0.00     0.167 A 
ATOM      5  N   UNL d   1      53.971  32.822  53.471  0.00  0.00    -0.161 NA
ATOM      6  N   UNL d   1      52.061  33.715  53.533  0.00  0.00    -0.227 NA
ATOM      7  C   UNL d   1      51.856  32.466  52.876  0.00  0.00     0.058 A 
ATOM      8  C   UNL d   1      54.170  33.512  53.850  0.00  0.00     0.124 A 
ATOM      9  C   UNL d   1      51.558  33.169  53.164  0.00  0.00     0.086 A 
ATOM     10  C   UNL d   1      50.750  33.319  53.078  0.00  0.00     0.021 C 
ENDROOT
BRANCH   4  11
ATOM     11  N   UNL d   1      52.965  31.583  52.660  0.00  0.00    -0.225 NA
BRANCH  11  12
ATOM     12  C   UNL d   1      52.615  30.868  52.873  0.00  0.00     0.102 C 
BRANCH  12  13
ATOM     13  C   UNL d   1      53.085  30.242  53.160  0.00  0.00     0.040 C 
BRANCH  13  14
ATOM     14  C   UNL d   1      52.727  29.548  53.417  0.00  0.00     0.082 C 
BRANCH  14  15
ATOM     15  N   UNL d   1      53.021  29.156  54.085  0.00  0.00    -0.299 N 
ATOM     16  C   UNL d   1      52.834  29.430  54.845  0.00  0.00     0.107 A 
ATOM     17  C   UNL d   1      53.127  29.039  55.511  0.00  0.00     0.142 A 
ATOM     18  O   UNL d   1      53.609  28.374  55.419  0.00  0.00    -0.300 OA
ATOM     19  C   UNL d   1      53.796  28.100  54.665  0.00  0.00     0.142 A 
ATOM     20  C   UNL d   1      53.503  28.490  54.000  0.00  0.00     0.107 A 
ENDBRANCH  14  15
ENDBRANCH  13  14
ENDBRANCH  12  13
ENDBRANCH  11  12
ENDBRANCH   4  11
BRANCH   3  21
ATOM     21  C   UNL d   1      53.359  34.709  54.280  0.00  0.00     0.004 A 
ATOM     22  C   UNL d   1      53.212  34.771  55.081  0.00  0.00     0.000 A 
ATOM     23  C   UNL d   1      53.085  35.505  55.426  0.00  0.00     0.000 A 
ATOM     24  C   UNL d   1      53.106  36.188  54.950  0.00  0.00     0.000 A 
ATOM     25  C   UNL d   1      53.255  36.115  54.141  0.00  0.00     0.000 A 
ATOM     26  C   UNL d   1      53.380  35.383  53.810  0.00  0.00     0.000 A 
ENDBRANCH   3  21
TORSDOF 6
ENDMDL
