MODEL 1
REMARK VINA RESULT:      -8.7      0.000      0.000
REMARK  10 active torsions:
REMARK  status: ('A' for Active; 'I' for Inactive)
REMARK    1  A    between atoms: C_2  and  S_1 
REMARK    2  A    between atoms: N_3  and  S_1 
REMARK    3  A    between atoms: C_19  and  N_3 
REMARK    4  A    between atoms: C_4  and  C_8 
REMARK       I    between atoms: N_14  and  C_4 
REMARK    5  A    between atoms: O_27  and  C_7 
REMARK    6  A    between atoms: O_28  and  C_11 
REMARK    7  A    between atoms: C_29  and  N_14 
REMARK    8  A    between atoms: C_22  and  C_19 
REMARK    9  A    between atoms: C_21  and  C_30 
REMARK   10  A    between atoms: C_30  and  C_29 
ROOT
ATOM      1  C   UNL d   1      49.500  34.619  51.944  0.00  0.00     0.058 A 
ATOM      2  C   UNL d   1      49.660  34.646  52.748  0.00  0.00     0.005 A 
ATOM      3  C   UNL d   1      50.106  34.412  51.414  0.00  0.00     0.005 A 
ATOM      4  C   UNL d   1      51.019  34.261  52.498  0.00  0.00     0.020 A 
ATOM      5  C   UNL d   1      50.424  34.465  53.027  0.00  0.00     0.002 A 
ATOM      6  C   UNL d   1      50.864  34.233  51.696  0.00  0.00     0.002 A 
ENDROOT
BRANCH   1   7
ATOM      7  C   UNL d   1      48.751  34.795  51.663  0.00  0.00     0.279 C 
ATOM      8  O   UNL d   1      48.436  34.358  51.032  0.00  0.00    -0.265 OA
ATOM      9  N   UNL d   1      48.314  35.402  52.003  0.00  0.00    -0.206 NA
BRANCH   9  10
ATOM     10  C   UNL d   1      47.560  35.575  51.716  0.00  0.00     0.102 C 
BRANCH  10  11
ATOM     11  C   UNL d   1      47.251  36.322  51.833  0.00  0.00     0.021 C 
BRANCH  11  12
ATOM     12  C   UNL d   1      46.524  36.405  52.186  0.00  0.00     0.004 A 
ATOM     13  C   UNL d   1      45.830  36.357  51.741  0.00  0.00     0.026 A 
ATOM     14  C   UNL d   1      45.104  36.442  52.104  0.00  0.00     0.116 A 
ATOM     15  C   UNL d   1      45.062  36.578  52.926  0.00  0.00     0.116 A 
ATOM     16  C   UNL d   1      45.743  36.626  53.367  0.00  0.00     0.026 A 
ATOM     17  C   UNL d   1      46.479  36.540  52.999  0.00  0.00     0.002 A 
BRANCH  14  18
ATOM     18  O   UNL d   1      44.412  36.393  51.656  0.00  0.00    -0.326 OA
ATOM     19  C   UNL d   1      44.314  36.048  50.860  0.00  0.00     0.181 C 
ENDBRANCH  14  18
BRANCH  15  20
ATOM     20  O   UNL d   1      44.349  36.665  53.301  0.00  0.00    -0.326 OA
ATOM     21  C   UNL d   1      44.314  36.708  54.110  0.00  0.00     0.181 C 
ENDBRANCH  15  20
ENDBRANCH  11  12
ENDBRANCH  10  11
ENDBRANCH   9  10
ENDBRANCH   1   7
BRANCH   4  22
ATOM     22  C   UNL d   1      51.777  34.083  52.781  0.00  0.00     0.112 C 
BRANCH  22  23
ATOM     23  N   UNL d   1      51.976  33.309  52.936  0.00  0.00    -0.157 NA
BRANCH  23  24
ATOM     24  S   UNL d   1      52.686  33.134  53.336  0.00  0.00     0.285 S 
ATOM     25  O   UNL d   1      53.093  33.639  52.827  0.00  0.00    -0.198 OA
ATOM     26  O   UNL d   1      52.273  32.629  53.842  0.00  0.00    -0.198 OA
BRANCH  24  27
ATOM     27  C   UNL d   1      53.379  32.956  53.735  0.00  0.00     0.105 A 
ATOM     28  C   UNL d   1      53.740  32.232  53.635  0.00  0.00     0.012 A 
ATOM     29  C   UNL d   1      54.441  32.056  54.040  0.00  0.00     0.001 A 
ATOM     30  C   UNL d   1      53.397  31.674  53.123  0.00  0.00     0.001 C 
ATOM     31  C   UNL d   1      54.779  32.614  54.549  0.00  0.00     0.000 A 
ATOM     32  C   UNL d   1      54.412  33.351  54.652  0.00  0.00     0.001 A 
ATOM     33  C   UNL d   1      53.709  33.525  54.244  0.00  0.00     0.013 A 
ATOM     34  C   UNL d   1      54.743  33.909  55.156  0.00  0.00     0.000 C 
ENDBRANCH  24  27
ENDBRANCH  23  24
ENDBRANCH  22  23
ENDBRANCH   4  22
TORSDOF 10
ENDMDL
MODEL 2
REMARK VINA RESULT:      -6.6      1.491      2.309
REMARK  10 active torsions:
REMARK  status: ('A' for Active; 'I' for Inactive)
REMARK    1  A    between atoms: C_2  and  S_1 
REMARK    2  A    between atoms: N_3  and  S_1 
REMARK    3  A    between atoms: C_19  and  N_3 
REMARK    4  A    between atoms: C_4  and  C_8 
REMARK       I    between atoms: N_14  and  C_4 
REMARK    5  A    between atoms: O_27  and  C_7 
REMARK    6  A    between atoms: O_28  and  C_11 
REMARK    7  A    between atoms: C_29  and  N_14 
REMARK    8  A    between atoms: C_22  and  C_19 
REMARK    9  A    between atoms: C_21  and  C_30 
REMARK   10  A    between atoms: C_30  and  C_29 
ROOT
ATOM      1  C   UNL d   1      50.521  34.050  52.647  0.00  0.00     0.058 A 
ATOM      2  C   UNL d   1      50.410  33.505  53.249  0.00  0.00     0.005 A 
ATOM      3  C   UNL d   1      51.272  34.124  52.296  0.00  0.00     0.005 A 
ATOM      4  C   UNL d   1      51.785  33.109  53.155  0.00  0.00     0.020 A 
ATOM      5  C   UNL d   1      51.046  33.031  53.505  0.00  0.00     0.002 A 
ATOM      6  C   UNL d   1      51.901  33.651  52.554  0.00  0.00     0.002 A 
ENDROOT
BRANCH   1   7
ATOM      7  C   UNL d   1      49.900  34.519  52.390  0.00  0.00     0.279 C 
ATOM      8  O   UNL d   1      49.733  34.572  51.579  0.00  0.00    -0.265 OA
ATOM      9  N   UNL d   1      49.444  34.935  52.932  0.00  0.00    -0.206 NA
BRANCH   9  10
ATOM     10  C   UNL d   1      48.820  35.406  52.669  0.00  0.00     0.102 C 
BRANCH  10  11
ATOM     11  C   UNL d   1      48.448  35.905  53.196  0.00  0.00     0.021 C 
BRANCH  11  12
ATOM     12  C   UNL d   1      47.668  36.105  53.078  0.00  0.00     0.004 A 
ATOM     13  C   UNL d   1      47.161  36.221  53.720  0.00  0.00     0.026 A 
ATOM     14  C   UNL d   1      46.381  36.422  53.594  0.00  0.00     0.116 A 
ATOM     15  C   UNL d   1      46.093  36.511  52.815  0.00  0.00     0.116 A 
ATOM     16  C   UNL d   1      46.590  36.397  52.182  0.00  0.00     0.026 A 
ATOM     17  C   UNL d   1      47.382  36.194  52.310  0.00  0.00     0.002 A 
BRANCH  14  18
ATOM     18  O   UNL d   1      45.876  36.536  54.237  0.00  0.00    -0.326 OA
ATOM     19  C   UNL d   1      46.096  36.686  55.069  0.00  0.00     0.181 C 
ENDBRANCH  14  18
BRANCH  15  20
ATOM     20  O   UNL d   1      45.321  36.709  52.673  0.00  0.00    -0.326 OA
ATOM     21  C   UNL d   1      44.873  36.271  52.159  0.00  0.00     0.181 C 
ENDBRANCH  15  20
ENDBRANCH  11  12
ENDBRANCH  10  11
ENDBRANCH   9  10
ENDBRANCH   1   7
BRANCH   4  22
ATOM     22  C   UNL d   1      52.414  32.637  53.413  0.00  0.00     0.112 C 
BRANCH  22  23
ATOM     23  N   UNL d   1      52.747  32.097  52.903  0.00  0.00    -0.157 NA
BRANCH  23  24
ATOM     24  S   UNL d   1      53.026  31.367  53.192  0.00  0.00     0.285 S 
ATOM     25  O   UNL d   1      52.633  30.978  52.580  0.00  0.00    -0.198 OA
ATOM     26  O   UNL d   1      53.417  31.761  53.803  0.00  0.00    -0.198 OA
BRANCH  24  27
ATOM     27  C   UNL d   1      53.304  30.654  53.484  0.00  0.00     0.105 A 
ATOM     28  C   UNL d   1      54.022  30.356  53.236  0.00  0.00     0.012 A 
ATOM     29  C   UNL d   1      54.300  29.635  53.533  0.00  0.00     0.001 A 
ATOM     30  C   UNL d   1      54.470  30.786  52.683  0.00  0.00     0.001 C 
ATOM     31  C   UNL d   1      53.850  29.211  54.084  0.00  0.00     0.000 A 
ATOM     32  C   UNL d   1      53.120  29.512  54.337  0.00  0.00     0.001 A 
ATOM     33  C   UNL d   1      52.843  30.236  54.037  0.00  0.00     0.013 A 
ATOM     34  C   UNL d   1      52.670  29.095  54.883  0.00  0.00     0.000 C 
ENDBRANCH  24  27
ENDBRANCH  23  24
ENDBRANCH  22  23
ENDBRANCH   4  22
TORSDOF 10
ENDMDL
MODEL 3
REMARK VINA RESULT:      -5.8      1.781      7.703
REMARK  10 active torsions:
REMARK  status: ('A' for Active; 'I' for Inactive)
REMARK    1  A    between atoms: C_2  and  S_1 
REMARK    2  A    between atoms: N_3  and  S_1 
REMARK    3  A    between atoms: C_19  and  N_3 
REMARK    4  A    between atoms: C_4  and  C_8 
REMARK       I    between atoms: N_14  and  C_4 
REMARK    5  A    between atoms: O_27  and  C_7 
REMARK    6  A    between atoms: O_28  and  C_11 
REMARK    7  A    between atoms: C_29  and  N_14 
REMARK    8  A    between atoms: C_22  and  C_19 
REMARK    9  A    between atoms: C_21  and  C_30 
REMARK   10  A    between atoms: C_30  and  C_29 
ROOT
ATOM      1  C   UNL d   1      51.031  34.113  52.696  0.00  0.00     0.058 A 
ATOM      2  C   UNL d   1      50.758  34.099  51.923  0.00  0.00     0.005 A 
ATOM      3  C   UNL d   1      50.557  34.452  53.291  0.00  0.00     0.005 A 
ATOM      4  C   UNL d   1      49.549  34.756  52.330  0.00  0.00     0.020 A 
ATOM      5  C   UNL d   1      50.012  34.423  51.739  0.00  0.00     0.002 A 
ATOM      6  C   UNL d   1      49.817  34.772  53.102  0.00  0.00     0.002 A 
ENDROOT
BRANCH   1   7
ATOM      7  C   UNL d   1      51.763  33.798  52.885  0.00  0.00     0.279 C 
ATOM      8  O   UNL d   1      52.391  34.303  53.080  0.00  0.00    -0.265 OA
ATOM      9  N   UNL d   1      51.875  32.984  52.882  0.00  0.00    -0.206 NA
BRANCH   9  10
ATOM     10  C   UNL d   1      52.614  32.670  53.073  0.00  0.00     0.102 C 
BRANCH  10  11
ATOM     11  C   UNL d   1      52.878  32.005  52.682  0.00  0.00     0.021 C 
BRANCH  11  12
ATOM     12  C   UNL d   1      53.075  31.340  53.107  0.00  0.00     0.004 A 
ATOM     13  C   UNL d   1      52.738  30.608  52.926  0.00  0.00     0.026 A 
ATOM     14  C   UNL d   1      52.942  29.946  53.357  0.00  0.00     0.116 A 
ATOM     15  C   UNL d   1      53.491  30.008  53.982  0.00  0.00     0.116 A 
ATOM     16  C   UNL d   1      53.825  30.727  54.163  0.00  0.00     0.026 A 
ATOM     17  C   UNL d   1      53.618  31.399  53.724  0.00  0.00     0.002 A 
BRANCH  14  18
ATOM     18  O   UNL d   1      52.603  29.216  53.175  0.00  0.00    -0.326 OA
ATOM     19  C   UNL d   1      52.121  29.010  52.477  0.00  0.00     0.181 C 
ENDBRANCH  14  18
BRANCH  15  20
ATOM     20  O   UNL d   1      53.704  29.361  54.420  0.00  0.00    -0.326 OA
ATOM     21  C   UNL d   1      53.290  29.163  55.088  0.00  0.00     0.181 C 
ENDBRANCH  15  20
ENDBRANCH  11  12
ENDBRANCH  10  11
ENDBRANCH   9  10
ENDBRANCH   1   7
BRANCH   4  22
ATOM     22  C   UNL d   1      48.808  35.075  52.142  0.00  0.00     0.112 C 
BRANCH  22  23
ATOM     23  N   UNL d   1      48.448  35.588  52.661  0.00  0.00    -0.157 NA
BRANCH  23  24
ATOM     24  S   UNL d   1      47.665  35.837  52.524  0.00  0.00     0.285 S 
ATOM     25  O   UNL d   1      47.922  36.620  52.498  0.00  0.00    -0.198 OA
ATOM     26  O   UNL d   1      47.413  35.052  52.552  0.00  0.00    -0.198 OA
BRANCH  24  27
ATOM     27  C   UNL d   1      46.892  36.074  52.390  0.00  0.00     0.105 A 
ATOM     28  C   UNL d   1      46.474  36.472  52.966  0.00  0.00     0.012 A 
ATOM     29  C   UNL d   1      45.693  36.709  52.826  0.00  0.00     0.001 A 
ATOM     30  C   UNL d   1      46.842  36.637  53.693  0.00  0.00     0.001 C 
ATOM     31  C   UNL d   1      45.331  36.543  52.100  0.00  0.00     0.000 A 
ATOM     32  C   UNL d   1      45.755  36.138  51.514  0.00  0.00     0.001 A 
ATOM     33  C   UNL d   1      46.539  35.901  51.656  0.00  0.00     0.013 A 
ATOM     34  C   UNL d   1      45.401  35.971  50.792  0.00  0.00     0.000 C 
ENDBRANCH  24  27
ENDBRANCH  23  24
ENDBRANCH  22  23
ENDBRANCH   4  22
TORSDOF 10
ENDMDL
