MODEL 1
REMARK VINA RESULT:      -8.9      0.000      0.000
REMARK  6 active torsions:
REMARK  status: ('A' for Active; 'I' for Inactive)
REMARK    1  A    between atoms: S_2  and  N_1 
REMARK    2  A    between atoms: C_11  and  S_2 
REMARK    3  A    between atoms: O_8  and  C_5 
REMARK    4  A    between atoms: C_7  and  O_8 
REMARK    5  A    between atoms: C_12  and  C_7 
REMARK    6  A    between atoms: O_20  and  C_17 
ROOT
ATOM      1  N   UNL d   1      52.459  33.185  53.558  0.00  0.00    -0.130 N 
ATOM      2  N   UNL d   1      51.842  33.731  53.570  0.00  0.00    -0.128 NA
ATOM      3  C   UNL d   1      52.218  32.525  53.136  0.00  0.00     0.200 A 
ATOM      4  C   UNL d   1      51.211  33.401  53.148  0.00  0.00     0.208 A 
ATOM      5  C   UNL d   1      51.440  32.664  52.883  0.00  0.00     0.088 A 
ATOM      6  N   UNL d   1      52.665  31.849  52.990  0.00  0.00    -0.126 N 
ENDROOT
BRANCH   4   7
ATOM      7  O   UNL d   1      50.475  33.757  53.019  0.00  0.00    -0.253 OA
BRANCH   7   8
ATOM      8  C   UNL d   1      50.361  34.240  52.359  0.00  0.00     0.301 C 
ATOM      9  O   UNL d   1      50.969  34.353  51.818  0.00  0.00    -0.259 OA
BRANCH   8  10
ATOM     10  C   UNL d   1      49.634  34.613  52.239  0.00  0.00     0.064 A 
ATOM     11  C   UNL d   1      49.310  35.105  52.822  0.00  0.00     0.007 A 
ATOM     12  C   UNL d   1      48.590  35.477  52.707  0.00  0.00     0.024 A 
ATOM     13  C   UNL d   1      48.177  35.359  51.997  0.00  0.00     0.094 A 
ATOM     14  C   UNL d   1      48.502  34.867  51.414  0.00  0.00     0.024 A 
ATOM     15  C   UNL d   1      49.225  34.494  51.532  0.00  0.00     0.007 A 
BRANCH  13  16
ATOM     16  O   UNL d   1      47.459  35.721  51.866  0.00  0.00    -0.328 OA
ATOM     17  C   UNL d   1      47.229  36.394  52.280  0.00  0.00     0.181 C 
ENDBRANCH  13  16
ENDBRANCH   8  10
ENDBRANCH   7   8
ENDBRANCH   4   7
BRANCH   1  18
ATOM     18  S   UNL d   1      53.197  33.288  53.912  0.00  0.00     0.287 S 
ATOM     19  O   UNL d   1      53.539  33.517  53.183  0.00  0.00    -0.198 OA
ATOM     20  O   UNL d   1      52.872  33.066  54.623  0.00  0.00    -0.198 OA
BRANCH  18  21
ATOM     21  C   UNL d   1      53.928  33.385  54.281  0.00  0.00     0.105 A 
ATOM     22  C   UNL d   1      54.620  33.413  53.830  0.00  0.00     0.013 A 
ATOM     23  C   UNL d   1      55.350  33.510  54.203  0.00  0.00     0.001 A 
ATOM     24  C   UNL d   1      55.390  33.580  55.021  0.00  0.00     0.000 A 
ATOM     25  C   UNL d   1      54.699  33.552  55.469  0.00  0.00     0.001 A 
ATOM     26  C   UNL d   1      53.964  33.455  55.107  0.00  0.00     0.013 A 
ENDBRANCH  18  21
ENDBRANCH   1  18
TORSDOF 6
ENDMDL
MODEL 2
REMARK VINA RESULT:      -8.9      1.339      1.829
REMARK  6 active torsions:
REMARK  status: ('A' for Active; 'I' for Inactive)
REMARK    1  A    between atoms: S_2  and  N_1 
REMARK    2  A    between atoms: C_11  and  S_2 
REMARK    3  A    between atoms: O_8  and  C_5 
REMARK    4  A    between atoms: C_7  and  O_8 
REMARK    5  A    between atoms: C_12  and  C_7 
REMARK    6  A    between atoms: O_20  and  C_17 
ROOT
ATOM      1  N   UNL d   1      51.810  33.504  53.088  0.00  0.00    -0.130 N 
ATOM      2  N   UNL d   1      50.989  33.520  53.146  0.00  0.00    -0.128 NA
ATOM      3  C   UNL d   1      52.078  34.265  52.936  0.00  0.00     0.200 A 
ATOM      4  C   UNL d   1      50.747  34.303  53.027  0.00  0.00     0.208 A 
ATOM      5  C   UNL d   1      51.412  34.758  52.898  0.00  0.00     0.088 A 
ATOM      6  N   UNL d   1      52.862  34.495  52.838  0.00  0.00    -0.126 N 
ENDROOT
BRANCH   4   7
ATOM      7  O   UNL d   1      49.965  34.576  53.036  0.00  0.00    -0.253 OA
BRANCH   7   8
ATOM      8  C   UNL d   1      49.558  34.685  52.327  0.00  0.00     0.301 C 
ATOM      9  O   UNL d   1      49.850  34.365  51.628  0.00  0.00    -0.259 OA
BRANCH   8  10
ATOM     10  C   UNL d   1      48.854  35.117  52.315  0.00  0.00     0.064 A 
ATOM     11  C   UNL d   1      48.625  35.569  52.970  0.00  0.00     0.007 A 
ATOM     12  C   UNL d   1      47.928  35.999  52.963  0.00  0.00     0.024 A 
ATOM     13  C   UNL d   1      47.444  35.981  52.289  0.00  0.00     0.094 A 
ATOM     14  C   UNL d   1      47.674  35.529  51.634  0.00  0.00     0.024 A 
ATOM     15  C   UNL d   1      48.374  35.098  51.644  0.00  0.00     0.007 A 
BRANCH  13  16
ATOM     16  O   UNL d   1      46.747  36.403  52.265  0.00  0.00    -0.328 OA
ATOM     17  C   UNL d   1      46.087  36.129  51.857  0.00  0.00     0.181 C 
ENDBRANCH  13  16
ENDBRANCH   8  10
ENDBRANCH   7   8
ENDBRANCH   4   7
BRANCH   1  18
ATOM     18  S   UNL d   1      52.284  32.834  53.171  0.00  0.00     0.287 S 
ATOM     19  O   UNL d   1      52.287  32.709  52.343  0.00  0.00    -0.198 OA
ATOM     20  O   UNL d   1      52.286  32.950  53.975  0.00  0.00    -0.198 OA
BRANCH  18  21
ATOM     21  C   UNL d   1      52.758  32.167  53.270  0.00  0.00     0.105 A 
ATOM     22  C   UNL d   1      53.438  32.207  53.739  0.00  0.00     0.013 A 
ATOM     23  C   UNL d   1      53.910  31.537  53.836  0.00  0.00     0.001 A 
ATOM     24  C   UNL d   1      53.706  30.831  53.468  0.00  0.00     0.000 A 
ATOM     25  C   UNL d   1      53.028  30.793  53.001  0.00  0.00     0.001 A 
ATOM     26  C   UNL d   1      52.549  31.457  52.897  0.00  0.00     0.013 A 
ENDBRANCH  18  21
ENDBRANCH   1  18
TORSDOF 6
ENDMDL
MODEL 3
REMARK VINA RESULT:      -8.7      2.053      5.433
REMARK  6 active torsions:
REMARK  status: ('A' for Active; 'I' for Inactive)
REMARK    1  A    between atoms: S_2  and  N_1 
REMARK    2  A    between atoms: C_11  and  S_2 
REMARK    3  A    between atoms: O_8  and  C_5 
REMARK    4  A    between atoms: C_7  and  O_8 
REMARK    5  A    between atoms: C_12  and  C_7 
REMARK    6  A    between atoms: O_20  and  C_17 
ROOT
ATOM      1  N   UNL d   1      51.519  33.870  52.949  0.00  0.00    -0.130 N 
ATOM      2  N   UNL d   1      51.673  33.080  53.126  0.00  0.00    -0.128 NA
ATOM      3  C   UNL d   1      52.204  34.304  53.071  0.00  0.00     0.200 A 
ATOM      4  C   UNL d   1      52.466  33.028  53.360  0.00  0.00     0.208 A 
ATOM      5  C   UNL d   1      52.790  33.776  53.326  0.00  0.00     0.088 A 
ATOM      6  N   UNL d   1      52.293  35.115  52.959  0.00  0.00    -0.126 N 
ENDROOT
BRANCH   4   7
ATOM      7  O   UNL d   1      52.860  32.336  53.589  0.00  0.00    -0.253 OA
BRANCH   7   8
ATOM      8  C   UNL d   1      52.904  31.696  53.069  0.00  0.00     0.301 C 
ATOM      9  O   UNL d   1      52.841  31.816  52.258  0.00  0.00    -0.259 OA
BRANCH   8  10
ATOM     10  C   UNL d   1      53.013  30.932  53.361  0.00  0.00     0.064 A 
ATOM     11  C   UNL d   1      53.627  30.766  53.893  0.00  0.00     0.007 A 
ATOM     12  C   UNL d   1      53.738  30.009  54.185  0.00  0.00     0.024 A 
ATOM     13  C   UNL d   1      53.229  29.399  53.946  0.00  0.00     0.094 A 
ATOM     14  C   UNL d   1      52.616  29.566  53.414  0.00  0.00     0.024 A 
ATOM     15  C   UNL d   1      52.506  30.326  53.122  0.00  0.00     0.007 A 
BRANCH  13  16
ATOM     16  O   UNL d   1      53.326  28.640  54.227  0.00  0.00    -0.328 OA
ATOM     17  C   UNL d   1      53.427  28.483  55.028  0.00  0.00     0.181 C 
ENDBRANCH  13  16
ENDBRANCH   8  10
ENDBRANCH   7   8
ENDBRANCH   4   7
BRANCH   1  18
ATOM     18  S   UNL d   1      50.796  34.172  52.693  0.00  0.00     0.287 S 
ATOM     19  O   UNL d   1      51.091  34.275  51.916  0.00  0.00    -0.198 OA
ATOM     20  O   UNL d   1      50.503  34.074  53.444  0.00  0.00    -0.198 OA
BRANCH  18  21
ATOM     21  C   UNL d   1      50.067  34.472  52.452  0.00  0.00     0.105 A 
ATOM     22  C   UNL d   1      49.797  34.337  51.682  0.00  0.00     0.013 A 
ATOM     23  C   UNL d   1      49.066  34.639  51.445  0.00  0.00     0.001 A 
ATOM     24  C   UNL d   1      48.607  35.073  51.971  0.00  0.00     0.000 A 
ATOM     25  C   UNL d   1      48.878  35.206  52.738  0.00  0.00     0.001 A 
ATOM     26  C   UNL d   1      49.607  34.909  52.986  0.00  0.00     0.013 A 
ENDBRANCH  18  21
ENDBRANCH   1  18
TORSDOF 6
ENDMDL
MODEL 4
REMARK VINA RESULT:      -7.3      1.706      5.651
REMARK  6 active torsions:
REMARK  status: ('A' for Active; 'I' for Inactive)
REMARK    1  A    between atoms: S_2  and  N_1 
REMARK    2  A    between atoms: C_11  and  S_2 
REMARK    3  A    between atoms: O_8  and  C_5 
REMARK    4  A    between atoms: C_7  and  O_8 
REMARK    5  A    between atoms: C_12  and  C_7 
REMARK    6  A    between atoms: O_20  and  C_17 
ROOT
ATOM      1  N   UNL d   1      49.500  34.808  52.575  0.00  0.00    -0.130 N 
ATOM      2  N   UNL d   1      50.023  34.613  53.181  0.00  0.00    -0.128 NA
ATOM      3  C   UNL d   1      49.760  34.459  51.880  0.00  0.00     0.200 A 
ATOM      4  C   UNL d   1      50.616  34.136  52.852  0.00  0.00     0.208 A 
ATOM      5  C   UNL d   1      50.454  34.042  52.058  0.00  0.00     0.088 A 
ATOM      6  N   UNL d   1      49.398  34.512  51.143  0.00  0.00    -0.126 N 
ENDROOT
BRANCH   4   7
ATOM      7  O   UNL d   1      51.259  33.812  53.260  0.00  0.00    -0.253 OA
BRANCH   7   8
ATOM      8  C   UNL d   1      52.013  34.134  53.164  0.00  0.00     0.301 C 
ATOM      9  O   UNL d   1      52.161  34.668  52.557  0.00  0.00    -0.259 OA
BRANCH   8  10
ATOM     10  C   UNL d   1      52.623  33.921  53.677  0.00  0.00     0.064 A 
ATOM     11  C   UNL d   1      52.970  33.170  53.634  0.00  0.00     0.007 A 
ATOM     12  C   UNL d   1      53.575  32.954  54.142  0.00  0.00     0.024 A 
ATOM     13  C   UNL d   1      53.846  33.497  54.708  0.00  0.00     0.094 A 
ATOM     14  C   UNL d   1      53.500  34.248  54.751  0.00  0.00     0.024 A 
ATOM     15  C   UNL d   1      52.892  34.462  54.241  0.00  0.00     0.007 A 
BRANCH  13  16
ATOM     16  O   UNL d   1      54.448  33.299  55.221  0.00  0.00    -0.328 OA
ATOM     17  C   UNL d   1      55.176  33.682  55.206  0.00  0.00     0.181 C 
ENDBRANCH  13  16
ENDBRANCH   8  10
ENDBRANCH   7   8
ENDBRANCH   4   7
BRANCH   1  18
ATOM     18  S   UNL d   1      48.826  35.276  52.656  0.00  0.00     0.287 S 
ATOM     19  O   UNL d   1      48.446  34.876  52.027  0.00  0.00    -0.198 OA
ATOM     20  O   UNL d   1      49.188  35.670  53.268  0.00  0.00    -0.198 OA
BRANCH  18  21
ATOM     21  C   UNL d   1      48.160  35.753  52.750  0.00  0.00     0.105 A 
ATOM     22  C   UNL d   1      48.018  36.130  53.472  0.00  0.00     0.013 A 
ATOM     23  C   UNL d   1      47.350  36.607  53.563  0.00  0.00     0.001 A 
ATOM     24  C   UNL d   1      46.826  36.707  52.937  0.00  0.00     0.000 A 
ATOM     25  C   UNL d   1      46.969  36.330  52.219  0.00  0.00     0.001 A 
ATOM     26  C   UNL d   1      47.633  35.851  52.117  0.00  0.00     0.013 A 
ENDBRANCH  18  21
ENDBRANCH   1  18
TORSDOF 6
ENDMDL
MODEL 5
REMARK VINA RESULT:      -6.8      2.833      6.268
REMARK  6 active torsions:
REMARK  status: ('A' for Active; 'I' for Inactive)
REMARK    1  A    between atoms: S_2  and  N_1 
REMARK    2  A    between atoms: C_11  and  S_2 
REMARK    3  A    between atoms: O_8  and  C_5 
REMARK    4  A    between atoms: C_7  and  O_8 
REMARK    5  A    between atoms: C_12  and  C_7 
REMARK    6  A    between atoms: O_20  and  C_17 
ROOT
ATOM      1  N   UNL d   1      47.508  35.976  53.468  0.00  0.00    -0.130 N 
ATOM      2  N   UNL d   1      48.206  35.612  53.710  0.00  0.00    -0.128 NA
ATOM      3  C   UNL d   1      47.601  36.234  52.695  0.00  0.00     0.200 A 
ATOM      4  C   UNL d   1      48.737  35.648  53.076  0.00  0.00     0.208 A 
ATOM      5  C   UNL d   1      48.367  36.028  52.455  0.00  0.00     0.088 A 
ATOM      6  N   UNL d   1      47.036  36.626  52.241  0.00  0.00    -0.126 N 
ENDROOT
BRANCH   4   7
ATOM      7  O   UNL d   1      49.510  35.349  53.073  0.00  0.00    -0.253 OA
BRANCH   7   8
ATOM      8  C   UNL d   1      49.698  34.697  52.603  0.00  0.00     0.301 C 
ATOM      9  O   UNL d   1      49.182  34.449  52.013  0.00  0.00    -0.259 OA
BRANCH   8  10
ATOM     10  C   UNL d   1      50.406  34.290  52.723  0.00  0.00     0.064 A 
ATOM     11  C   UNL d   1      51.091  34.502  52.309  0.00  0.00     0.007 A 
ATOM     12  C   UNL d   1      51.796  34.101  52.425  0.00  0.00     0.024 A 
ATOM     13  C   UNL d   1      51.824  33.473  52.966  0.00  0.00     0.094 A 
ATOM     14  C   UNL d   1      51.138  33.261  53.380  0.00  0.00     0.024 A 
ATOM     15  C   UNL d   1      50.432  33.665  53.262  0.00  0.00     0.007 A 
BRANCH  13  16
ATOM     16  O   UNL d   1      52.517  33.063  53.094  0.00  0.00    -0.328 OA
ATOM     17  C   UNL d   1      53.108  33.352  53.588  0.00  0.00     0.181 C 
ENDBRANCH  13  16
ENDBRANCH   8  10
ENDBRANCH   7   8
ENDBRANCH   4   7
BRANCH   1  18
ATOM     18  S   UNL d   1      46.829  36.064  53.927  0.00  0.00     0.287 S 
ATOM     19  O   UNL d   1      47.168  36.708  54.342  0.00  0.00    -0.198 OA
ATOM     20  O   UNL d   1      46.494  35.441  53.529  0.00  0.00    -0.198 OA
BRANCH  18  21
ATOM     21  C   UNL d   1      46.143  36.140  54.378  0.00  0.00     0.105 A 
ATOM     22  C   UNL d   1      45.461  35.722  54.169  0.00  0.00     0.013 A 
ATOM     23  C   UNL d   1      44.776  35.800  54.622  0.00  0.00     0.001 A 
ATOM     24  C   UNL d   1      44.770  36.291  55.282  0.00  0.00     0.000 A 
ATOM     25  C   UNL d   1      45.451  36.707  55.489  0.00  0.00     0.001 A 
ATOM     26  C   UNL d   1      46.141  36.636  55.042  0.00  0.00     0.013 A 
ENDBRANCH  18  21
ENDBRANCH   1  18
TORSDOF 6
ENDMDL
