MODEL 1
REMARK VINA RESULT:     -10.2      0.000      0.000
REMARK  2 active torsions:
REMARK  status: ('A' for Active; 'I' for Inactive)
REMARK    1  A    between atoms: N_9  and  C_3 
REMARK    2  A    between atoms: C_11  and  C_5 
ROOT
ATOM      1  N   UNL d   1      53.113  33.507  53.819  0.00  0.00    -0.196 N 
ATOM      2  C   UNL d   1      52.504  33.284  53.310  0.00  0.00     0.167 A 
ATOM      3  C   UNL d   1      53.676  32.956  54.054  0.00  0.00     0.152 A 
ATOM      4  N   UNL d   1      53.014  34.300  53.994  0.00  0.00    -0.163 NA
ATOM      5  C   UNL d   1      52.030  33.939  53.171  0.00  0.00     0.055 A 
ATOM      6  C   UNL d   1      52.343  34.568  53.593  0.00  0.00     0.104 A 
ATOM      7  N   UNL d   1      52.458  32.509  53.036  0.00  0.00    -0.227 NA
ATOM      8  C   UNL d   1      53.634  32.174  53.781  0.00  0.00     0.057 A 
ATOM      9  C   UNL d   1      53.025  31.951  53.272  0.00  0.00     0.086 A 
ATOM     10  C   UNL d   1      52.039  35.335  53.612  0.00  0.00     0.023 C 
ATOM     11  C   UNL d   1      52.972  31.169  52.990  0.00  0.00     0.021 C 
ENDROOT
BRANCH   5  12
ATOM     12  C   UNL d   1      51.350  34.050  52.714  0.00  0.00     0.004 A 
ATOM     13  C   UNL d   1      50.603  34.006  53.070  0.00  0.00     0.000 A 
ATOM     14  C   UNL d   1      49.923  34.116  52.614  0.00  0.00     0.000 A 
ATOM     15  C   UNL d   1      49.986  34.270  51.806  0.00  0.00     0.000 A 
ATOM     16  C   UNL d   1      50.737  34.314  51.452  0.00  0.00     0.000 A 
ATOM     17  C   UNL d   1      51.413  34.203  51.907  0.00  0.00     0.000 A 
ENDBRANCH   5  12
BRANCH   3  18
ATOM     18  N   UNL d   1      54.285  33.179  54.564  0.00  0.00    -0.289 N 
ATOM     19  C   UNL d   1      55.024  33.447  54.318  0.00  0.00     0.082 A 
ATOM     20  C   UNL d   1      55.479  33.615  54.990  0.00  0.00     0.021 A 
ATOM     21  C   UNL d   1      55.011  33.447  55.648  0.00  0.00     0.021 A 
ATOM     22  C   UNL d   1      54.284  33.182  55.400  0.00  0.00     0.082 A 
ENDBRANCH   3  18
TORSDOF 2
ENDMDL
MODEL 2
REMARK VINA RESULT:      -9.4      0.838      3.790
REMARK  2 active torsions:
REMARK  status: ('A' for Active; 'I' for Inactive)
REMARK    1  A    between atoms: N_9  and  C_3 
REMARK    2  A    between atoms: C_11  and  C_5 
ROOT
ATOM      1  N   UNL d   1      52.240  33.793  53.395  0.00  0.00    -0.196 N 
ATOM      2  C   UNL d   1      52.898  33.391  53.687  0.00  0.00     0.167 A 
ATOM      3  C   UNL d   1      51.690  33.399  52.927  0.00  0.00     0.152 A 
ATOM      4  N   UNL d   1      52.282  34.566  53.659  0.00  0.00    -0.163 NA
ATOM      5  C   UNL d   1      53.346  33.916  54.131  0.00  0.00     0.055 A 
ATOM      6  C   UNL d   1      52.968  34.643  54.115  0.00  0.00     0.104 A 
ATOM      7  N   UNL d   1      53.007  32.595  53.511  0.00  0.00    -0.227 NA
ATOM      8  C   UNL d   1      51.796  32.596  52.747  0.00  0.00     0.057 A 
ATOM      9  C   UNL d   1      52.454  32.194  53.039  0.00  0.00     0.086 A 
ATOM     10  C   UNL d   1      53.227  35.331  54.490  0.00  0.00     0.023 C 
ATOM     11  C   UNL d   1      52.571  31.388  52.865  0.00  0.00     0.021 C 
ENDROOT
BRANCH   5  12
ATOM     12  C   UNL d   1      54.053  33.831  54.550  0.00  0.00     0.004 A 
ATOM     13  C   UNL d   1      54.777  33.956  54.167  0.00  0.00     0.000 A 
ATOM     14  C   UNL d   1      55.484  33.871  54.587  0.00  0.00     0.000 A 
ATOM     15  C   UNL d   1      55.470  33.663  55.384  0.00  0.00     0.000 A 
ATOM     16  C   UNL d   1      54.742  33.538  55.766  0.00  0.00     0.000 A 
ATOM     17  C   UNL d   1      54.039  33.623  55.348  0.00  0.00     0.000 A 
ENDBRANCH   5  12
BRANCH   3  18
ATOM     18  N   UNL d   1      51.032  33.801  52.635  0.00  0.00    -0.289 N 
ATOM     19  C   UNL d   1      50.970  34.101  51.871  0.00  0.00     0.082 A 
ATOM     20  C   UNL d   1      50.230  34.464  51.792  0.00  0.00     0.021 A 
ATOM     21  C   UNL d   1      49.840  34.384  52.514  0.00  0.00     0.021 A 
ATOM     22  C   UNL d   1      50.319  33.982  53.034  0.00  0.00     0.082 A 
ENDBRANCH   3  18
TORSDOF 2
ENDMDL
MODEL 3
REMARK VINA RESULT:      -8.5      1.337      3.981
REMARK  2 active torsions:
REMARK  status: ('A' for Active; 'I' for Inactive)
REMARK    1  A    between atoms: N_9  and  C_3 
REMARK    2  A    between atoms: C_11  and  C_5 
ROOT
ATOM      1  N   UNL d   1      52.972  32.410  53.606  0.00  0.00    -0.196 N 
ATOM      2  C   UNL d   1      53.377  31.833  54.033  0.00  0.00     0.167 A 
ATOM      3  C   UNL d   1      53.082  33.206  53.782  0.00  0.00     0.152 A 
ATOM      4  N   UNL d   1      52.507  32.029  53.051  0.00  0.00    -0.163 NA
ATOM      5  C   UNL d   1      53.162  31.096  53.742  0.00  0.00     0.055 A 
ATOM      6  C   UNL d   1      52.625  31.215  53.135  0.00  0.00     0.104 A 
ATOM      7  N   UNL d   1      53.893  32.052  54.636  0.00  0.00    -0.227 NA
ATOM      8  C   UNL d   1      53.600  33.431  54.388  0.00  0.00     0.057 A 
ATOM      9  C   UNL d   1      54.006  32.855  54.815  0.00  0.00     0.086 A 
ATOM     10  C   UNL d   1      52.264  30.623  52.687  0.00  0.00     0.023 C 
ATOM     11  C   UNL d   1      54.529  33.068  55.426  0.00  0.00     0.021 C 
ENDROOT
BRANCH   5  12
ATOM     12  C   UNL d   1      53.385  30.328  53.948  0.00  0.00     0.004 A 
ATOM     13  C   UNL d   1      52.976  29.927  54.548  0.00  0.00     0.000 A 
ATOM     14  C   UNL d   1      53.198  29.159  54.754  0.00  0.00     0.000 A 
ATOM     15  C   UNL d   1      53.825  28.790  54.365  0.00  0.00     0.000 A 
ATOM     16  C   UNL d   1      54.234  29.194  53.764  0.00  0.00     0.000 A 
ATOM     17  C   UNL d   1      54.012  29.959  53.560  0.00  0.00     0.000 A 
ENDBRANCH   5  12
BRANCH   3  18
ATOM     18  N   UNL d   1      52.676  33.783  53.354  0.00  0.00    -0.289 N 
ATOM     19  C   UNL d   1      51.935  34.080  53.559  0.00  0.00     0.082 A 
ATOM     20  C   UNL d   1      51.716  34.646  52.996  0.00  0.00     0.021 A 
ATOM     21  C   UNL d   1      52.329  34.693  52.445  0.00  0.00     0.021 A 
ATOM     22  C   UNL d   1      52.917  34.172  52.654  0.00  0.00     0.082 A 
ENDBRANCH   3  18
TORSDOF 2
ENDMDL
MODEL 4
REMARK VINA RESULT:      -8.5      1.223      3.247
REMARK  2 active torsions:
REMARK  status: ('A' for Active; 'I' for Inactive)
REMARK    1  A    between atoms: N_9  and  C_3 
REMARK    2  A    between atoms: C_11  and  C_5 
ROOT
ATOM      1  N   UNL d   1      52.903  33.341  53.717  0.00  0.00    -0.196 N 
ATOM      2  C   UNL d   1      52.560  32.623  53.503  0.00  0.00     0.167 A 
ATOM      3  C   UNL d   1      52.452  34.028  53.721  0.00  0.00     0.152 A 
ATOM      4  N   UNL d   1      53.689  33.199  53.894  0.00  0.00    -0.163 NA
ATOM      5  C   UNL d   1      53.134  32.037  53.548  0.00  0.00     0.055 A 
ATOM      6  C   UNL d   1      53.833  32.391  53.789  0.00  0.00     0.104 A 
ATOM      7  N   UNL d   1      51.765  32.591  53.293  0.00  0.00    -0.227 NA
ATOM      8  C   UNL d   1      51.650  34.002  53.510  0.00  0.00     0.057 A 
ATOM      9  C   UNL d   1      51.307  33.284  53.297  0.00  0.00     0.086 A 
ATOM     10  C   UNL d   1      54.553  32.007  53.907  0.00  0.00     0.023 C 
ATOM     11  C   UNL d   1      50.503  33.244  53.083  0.00  0.00     0.021 C 
ENDROOT
BRANCH   5  12
ATOM     12  C   UNL d   1      53.116  31.225  53.401  0.00  0.00     0.004 A 
ATOM     13  C   UNL d   1      53.109  30.692  54.036  0.00  0.00     0.000 A 
ATOM     14  C   UNL d   1      53.091  29.879  53.889  0.00  0.00     0.000 A 
ATOM     15  C   UNL d   1      53.079  29.597  53.114  0.00  0.00     0.000 A 
ATOM     16  C   UNL d   1      53.085  30.134  52.480  0.00  0.00     0.000 A 
ATOM     17  C   UNL d   1      53.103  30.943  52.626  0.00  0.00     0.000 A 
ENDBRANCH   5  12
BRANCH   3  18
ATOM     18  N   UNL d   1      52.796  34.747  53.935  0.00  0.00    -0.289 N 
ATOM     19  C   UNL d   1      52.774  35.066  54.694  0.00  0.00     0.082 A 
ATOM     20  C   UNL d   1      53.179  35.789  54.685  0.00  0.00     0.021 A 
ATOM     21  C   UNL d   1      53.447  35.908  53.914  0.00  0.00     0.021 A 
ATOM     22  C   UNL d   1      53.220  35.281  53.450  0.00  0.00     0.082 A 
ENDBRANCH   3  18
TORSDOF 2
ENDMDL
MODEL 5
REMARK VINA RESULT:      -7.9      0.821      1.894
REMARK  2 active torsions:
REMARK  status: ('A' for Active; 'I' for Inactive)
REMARK    1  A    between atoms: N_9  and  C_3 
REMARK    2  A    between atoms: C_11  and  C_5 
ROOT
ATOM      1  N   UNL d   1      52.891  33.964  53.975  0.00  0.00    -0.196 N 
ATOM      2  C   UNL d   1      52.288  34.425  53.654  0.00  0.00     0.167 A 
ATOM      3  C   UNL d   1      53.433  34.299  54.495  0.00  0.00     0.152 A 
ATOM      4  N   UNL d   1      52.810  33.206  53.679  0.00  0.00    -0.163 NA
ATOM      5  C   UNL d   1      51.834  33.952  53.160  0.00  0.00     0.055 A 
ATOM      6  C   UNL d   1      52.155  33.198  53.174  0.00  0.00     0.104 A 
ATOM      7  N   UNL d   1      52.227  35.222  53.853  0.00  0.00    -0.227 NA
ATOM      8  C   UNL d   1      53.375  35.101  54.699  0.00  0.00     0.057 A 
ATOM      9  C   UNL d   1      52.773  35.562  54.378  0.00  0.00     0.086 A 
ATOM     10  C   UNL d   1      51.873  32.545  52.756  0.00  0.00     0.023 C 
ATOM     11  C   UNL d   1      52.704  36.368  54.574  0.00  0.00     0.021 C 
ENDROOT
BRANCH   5  12
ATOM     12  C   UNL d   1      51.168  34.106  52.696  0.00  0.00     0.004 A 
ATOM     13  C   UNL d   1      50.418  34.128  53.047  0.00  0.00     0.000 A 
ATOM     14  C   UNL d   1      49.752  34.281  52.583  0.00  0.00     0.000 A 
ATOM     15  C   UNL d   1      49.832  34.412  51.773  0.00  0.00     0.000 A 
ATOM     16  C   UNL d   1      50.586  34.390  51.423  0.00  0.00     0.000 A 
ATOM     17  C   UNL d   1      51.249  34.237  51.886  0.00  0.00     0.000 A 
ENDBRANCH   5  12
BRANCH   3  18
ATOM     18  N   UNL d   1      54.037  33.837  54.816  0.00  0.00    -0.289 N 
ATOM     19  C   UNL d   1      54.818  33.845  54.557  0.00  0.00     0.082 A 
ATOM     20  C   UNL d   1      55.252  33.309  55.015  0.00  0.00     0.021 A 
ATOM     21  C   UNL d   1      54.728  32.973  55.558  0.00  0.00     0.021 A 
ATOM     22  C   UNL d   1      53.987  33.288  55.445  0.00  0.00     0.082 A 
ENDBRANCH   3  18
TORSDOF 2
ENDMDL
MODEL 6
REMARK VINA RESULT:      -7.7      1.250      3.092
REMARK  2 active torsions:
REMARK  status: ('A' for Active; 'I' for Inactive)
REMARK    1  A    between atoms: N_9  and  C_3 
REMARK    2  A    between atoms: C_11  and  C_5 
ROOT
ATOM      1  N   UNL d   1      53.025  32.282  53.689  0.00  0.00    -0.196 N 
ATOM      2  C   UNL d   1      52.721  33.046  53.738  0.00  0.00     0.167 A 
ATOM      3  C   UNL d   1      52.574  31.680  53.355  0.00  0.00     0.152 A 
ATOM      4  N   UNL d   1      53.776  32.290  54.012  0.00  0.00    -0.163 NA
ATOM      5  C   UNL d   1      53.284  33.527  54.092  0.00  0.00     0.055 A 
ATOM      6  C   UNL d   1      53.937  33.062  54.262  0.00  0.00     0.104 A 
ATOM      7  N   UNL d   1      51.966  33.209  53.454  0.00  0.00    -0.227 NA
ATOM      8  C   UNL d   1      51.813  31.840  53.067  0.00  0.00     0.057 A 
ATOM      9  C   UNL d   1      51.509  32.604  53.117  0.00  0.00     0.086 A 
ATOM     10  C   UNL d   1      54.634  33.320  54.620  0.00  0.00     0.023 C 
ATOM     11  C   UNL d   1      50.746  32.777  52.832  0.00  0.00     0.021 C 
ENDROOT
BRANCH   5  12
ATOM     12  C   UNL d   1      53.292  34.330  54.284  0.00  0.00     0.004 A 
ATOM     13  C   UNL d   1      53.156  34.568  55.067  0.00  0.00     0.000 A 
ATOM     14  C   UNL d   1      53.164  35.372  55.259  0.00  0.00     0.000 A 
ATOM     15  C   UNL d   1      53.306  35.936  54.675  0.00  0.00     0.000 A 
ATOM     16  C   UNL d   1      53.442  35.695  53.891  0.00  0.00     0.000 A 
ATOM     17  C   UNL d   1      53.434  34.895  53.700  0.00  0.00     0.000 A 
ENDBRANCH   5  12
BRANCH   3  18
ATOM     18  N   UNL d   1      52.879  30.915  53.306  0.00  0.00    -0.289 N 
ATOM     19  C   UNL d   1      52.831  30.354  53.907  0.00  0.00     0.082 A 
ATOM     20  C   UNL d   1      53.199  29.659  53.647  0.00  0.00     0.021 A 
ATOM     21  C   UNL d   1      53.472  29.800  52.881  0.00  0.00     0.021 A 
ATOM     22  C   UNL d   1      53.282  30.560  52.664  0.00  0.00     0.082 A 
ENDBRANCH   3  18
TORSDOF 2
ENDMDL
