MODEL 1
REMARK VINA RESULT:      -6.8      0.000      0.000
REMARK  7 active torsions:
REMARK  status: ('A' for Active; 'I' for Inactive)
REMARK    1  A    between atoms: N_10  and  C_1 
REMARK    2  A    between atoms: C_11  and  C_2 
REMARK    3  A    between atoms: C_7  and  S_14 
REMARK       I    between atoms: C_13  and  N_10 
REMARK    4  A    between atoms: O_18  and  C_11 
REMARK    5  A    between atoms: C_17  and  C_13 
REMARK    6  A    between atoms: S_14  and  C_17 
REMARK    7  A    between atoms: C_22  and  O_18 
ROOT
ATOM      1  C   UNL d   1     -48.469  13.939  22.995  0.00  0.00     0.119 A 
ATOM      2  C   UNL d   1     -49.278  13.772  22.973  0.00  0.00     0.088 A 
ATOM      3  S   UNL d   1     -48.069  13.270  23.213  0.00  0.00    -0.068 SA
ATOM      4  C   UNL d   1     -49.372  12.972  23.186  0.00  0.00     0.013 A 
ATOM      5  C   UNL d   1     -48.623  12.659  23.335  0.00  0.00     0.031 A 
ATOM      6  C   UNL d   1     -50.113  12.594  23.228  0.00  0.00     0.001 A 
ATOM      7  C   UNL d   1     -48.423  11.890  23.564  0.00  0.00     0.006 A 
ATOM      8  C   UNL d   1     -50.272  11.811  23.431  0.00  0.00     0.000 A 
ATOM      9  C   UNL d   1     -48.931  11.248  23.698  0.00  0.00     0.001 A 
ATOM     10  C   UNL d   1     -49.745  11.218  23.638  0.00  0.00     0.000 A 
ENDROOT
BRANCH   1  11
ATOM     11  N   UNL d   1     -48.116  14.672  22.823  0.00  0.00    -0.201 NA
ATOM     12  C   UNL d   1     -47.293  14.724  22.725  0.00  0.00     0.286 C 
ATOM     13  O   UNL d   1     -46.953  15.456  22.554  0.00  0.00    -0.265 OA
BRANCH  12  14
ATOM     14  C   UNL d   1     -46.819  14.056  22.797  0.00  0.00     0.100 C 
BRANCH  14  15
ATOM     15  S   UNL d   1     -45.996  14.132  22.841  0.00  0.00    -0.054 SA
BRANCH  15  16
ATOM     16  C   UNL d   1     -45.508  13.496  22.648  0.00  0.00     0.164 A 
ATOM     17  S   UNL d   1     -44.936  13.400  22.059  0.00  0.00    -0.039 SA
ATOM     18  C   UNL d   1     -44.621  12.633  22.136  0.00  0.00     0.134 A 
ATOM     19  C   UNL d   1     -44.032  12.301  21.659  0.00  0.00     0.030 C 
ATOM     20  N   UNL d   1     -45.000  12.266  22.770  0.00  0.00    -0.140 NA
ATOM     21  N   UNL d   1     -45.547  12.793  23.089  0.00  0.00    -0.134 NA
ENDBRANCH  15  16
ENDBRANCH  14  15
ENDBRANCH  12  14
ENDBRANCH   1  11
BRANCH   2  22
ATOM     22  C   UNL d   1     -49.885  14.296  22.778  0.00  0.00     0.302 C 
ATOM     23  O   UNL d   1     -50.210  14.295  22.014  0.00  0.00    -0.259 OA
BRANCH  22  24
ATOM     24  O   UNL d   1     -50.173  14.827  23.348  0.00  0.00    -0.271 OA
BRANCH  24  25
ATOM     25  C   UNL d   1     -50.879  15.230  23.218  0.00  0.00     0.126 C 
ATOM     26  C   UNL d   1     -51.050  15.922  23.633  0.00  0.00     0.029 C 
ENDBRANCH  24  25
ENDBRANCH  22  24
ENDBRANCH   2  22
TORSDOF 7
ENDMDL
MODEL 2
REMARK VINA RESULT:      -6.2      8.548      9.992
REMARK  7 active torsions:
REMARK  status: ('A' for Active; 'I' for Inactive)
REMARK    1  A    between atoms: N_10  and  C_1 
REMARK    2  A    between atoms: C_11  and  C_2 
REMARK    3  A    between atoms: C_7  and  S_14 
REMARK       I    between atoms: C_13  and  N_10 
REMARK    4  A    between atoms: O_18  and  C_11 
REMARK    5  A    between atoms: C_17  and  C_13 
REMARK    6  A    between atoms: S_14  and  C_17 
REMARK    7  A    between atoms: C_22  and  O_18 
ROOT
ATOM      1  C   UNL d   1     -40.194  14.603  18.398  0.00  0.00     0.119 A 
ATOM      2  C   UNL d   1     -39.905  14.759  17.640  0.00  0.00     0.088 A 
ATOM      3  S   UNL d   1     -39.805  13.962  18.700  0.00  0.00    -0.068 SA
ATOM      4  C   UNL d   1     -39.319  14.190  17.477  0.00  0.00     0.013 A 
ATOM      5  C   UNL d   1     -39.255  13.694  18.133  0.00  0.00     0.031 A 
ATOM      6  C   UNL d   1     -38.894  14.163  16.760  0.00  0.00     0.001 A 
ATOM      7  C   UNL d   1     -38.753  13.047  18.243  0.00  0.00     0.006 A 
ATOM      8  C   UNL d   1     -38.307  13.630  16.539  0.00  0.00     0.000 A 
ATOM      9  C   UNL d   1     -38.191  12.741  17.715  0.00  0.00     0.001 A 
ATOM     10  C   UNL d   1     -37.998  13.001  16.965  0.00  0.00     0.000 A 
ENDROOT
BRANCH   1  11
ATOM     11  N   UNL d   1     -40.788  15.032  18.792  0.00  0.00    -0.201 NA
ATOM     12  C   UNL d   1     -40.706  15.208  19.600  0.00  0.00     0.286 C 
ATOM     13  O   UNL d   1     -41.301  15.634  19.982  0.00  0.00    -0.265 OA
BRANCH  12  14
ATOM     14  C   UNL d   1     -40.041  14.962  20.018  0.00  0.00     0.100 C 
BRANCH  14  15
ATOM     15  S   UNL d   1     -40.067  14.903  20.842  0.00  0.00    -0.054 SA
BRANCH  15  16
ATOM     16  C   UNL d   1     -39.394  15.060  21.293  0.00  0.00     0.164 A 
ATOM     17  S   UNL d   1     -39.123  14.742  22.006  0.00  0.00    -0.039 SA
ATOM     18  C   UNL d   1     -38.404  15.120  22.194  0.00  0.00     0.134 A 
ATOM     19  C   UNL d   1     -37.940  14.972  22.862  0.00  0.00     0.030 C 
ATOM     20  N   UNL d   1     -38.241  15.664  21.597  0.00  0.00    -0.140 NA
ATOM     21  N   UNL d   1     -38.847  15.632  21.039  0.00  0.00    -0.134 NA
ENDBRANCH  15  16
ENDBRANCH  14  15
ENDBRANCH  12  14
ENDBRANCH   1  11
BRANCH   2  22
ATOM     22  C   UNL d   1     -40.148  15.363  17.134  0.00  0.00     0.302 C 
ATOM     23  O   UNL d   1     -39.599  15.922  16.854  0.00  0.00    -0.259 OA
BRANCH  22  24
ATOM     24  O   UNL d   1     -40.943  15.415  16.902  0.00  0.00    -0.271 OA
BRANCH  24  25
ATOM     25  C   UNL d   1     -41.163  15.912  16.283  0.00  0.00     0.126 C 
ATOM     26  C   UNL d   1     -41.915  15.862  15.951  0.00  0.00     0.029 C 
ENDBRANCH  24  25
ENDBRANCH  22  24
ENDBRANCH   2  22
TORSDOF 7
ENDMDL
MODEL 3
REMARK VINA RESULT:      -6.1      1.713      4.187
REMARK  7 active torsions:
REMARK  status: ('A' for Active; 'I' for Inactive)
REMARK    1  A    between atoms: N_10  and  C_1 
REMARK    2  A    between atoms: C_11  and  C_2 
REMARK    3  A    between atoms: C_7  and  S_14 
REMARK       I    between atoms: C_13  and  N_10 
REMARK    4  A    between atoms: O_18  and  C_11 
REMARK    5  A    between atoms: C_17  and  C_13 
REMARK    6  A    between atoms: S_14  and  C_17 
REMARK    7  A    between atoms: C_22  and  O_18 
ROOT
ATOM      1  C   UNL d   1     -46.714  13.467  23.067  0.00  0.00     0.119 A 
ATOM      2  C   UNL d   1     -46.260  12.777  23.053  0.00  0.00     0.088 A 
ATOM      3  S   UNL d   1     -47.477  13.274  23.254  0.00  0.00    -0.068 SA
ATOM      4  C   UNL d   1     -46.766  12.143  23.239  0.00  0.00     0.013 A 
ATOM      5  C   UNL d   1     -47.522  12.449  23.364  0.00  0.00     0.031 A 
ATOM      6  C   UNL d   1     -46.511  11.351  23.281  0.00  0.00     0.001 A 
ATOM      7  C   UNL d   1     -48.216  12.044  23.562  0.00  0.00     0.006 A 
ATOM      8  C   UNL d   1     -46.960  10.683  23.459  0.00  0.00     0.000 A 
ATOM      9  C   UNL d   1     -48.315  11.230  23.682  0.00  0.00     0.001 A 
ATOM     10  C   UNL d   1     -47.759  10.633  23.636  0.00  0.00     0.000 A 
ENDROOT
BRANCH   1  11
ATOM     11  N   UNL d   1     -46.439  14.237  22.914  0.00  0.00    -0.201 NA
ATOM     12  C   UNL d   1     -46.975  14.836  22.703  0.00  0.00     0.286 C 
ATOM     13  O   UNL d   1     -46.692  15.596  22.553  0.00  0.00    -0.265 OA
BRANCH  12  14
ATOM     14  C   UNL d   1     -47.780  14.675  22.642  0.00  0.00     0.100 C 
BRANCH  14  15
ATOM     15  S   UNL d   1     -48.292  15.236  22.314  0.00  0.00    -0.054 SA
BRANCH  15  16
ATOM     16  C   UNL d   1     -49.107  15.107  22.313  0.00  0.00     0.164 A 
ATOM     17  S   UNL d   1     -49.600  14.707  21.784  0.00  0.00    -0.039 SA
ATOM     18  C   UNL d   1     -50.379  14.762  22.075  0.00  0.00     0.134 A 
ATOM     19  C   UNL d   1     -51.052  14.439  21.720  0.00  0.00     0.030 C 
ATOM     20  N   UNL d   1     -50.357  15.194  22.777  0.00  0.00    -0.140 NA
ATOM     21  N   UNL d   1     -49.576  15.409  22.929  0.00  0.00    -0.134 NA
ENDBRANCH  15  16
ENDBRANCH  14  15
ENDBRANCH  12  14
ENDBRANCH   1  11
BRANCH   2  22
ATOM     22  C   UNL d   1     -45.454  12.721  22.888  0.00  0.00     0.302 C 
ATOM     23  O   UNL d   1     -44.910  12.565  23.497  0.00  0.00    -0.259 OA
BRANCH  22  24
ATOM     24  O   UNL d   1     -45.183  12.819  22.109  0.00  0.00    -0.271 OA
BRANCH  24  25
ATOM     25  C   UNL d   1     -44.404  12.633  21.915  0.00  0.00     0.126 C 
ATOM     26  C   UNL d   1     -44.020  13.024  21.299  0.00  0.00     0.029 C 
ENDBRANCH  24  25
ENDBRANCH  22  24
ENDBRANCH   2  22
TORSDOF 7
ENDMDL
MODEL 4
REMARK VINA RESULT:      -5.8      1.596      2.590
REMARK  7 active torsions:
REMARK  status: ('A' for Active; 'I' for Inactive)
REMARK    1  A    between atoms: N_10  and  C_1 
REMARK    2  A    between atoms: C_11  and  C_2 
REMARK    3  A    between atoms: C_7  and  S_14 
REMARK       I    between atoms: C_13  and  N_10 
REMARK    4  A    between atoms: O_18  and  C_11 
REMARK    5  A    between atoms: C_17  and  C_13 
REMARK    6  A    between atoms: S_14  and  C_17 
REMARK    7  A    between atoms: C_22  and  O_18 
ROOT
ATOM      1  C   UNL d   1     -47.960  12.761  23.053  0.00  0.00     0.119 A 
ATOM      2  C   UNL d   1     -48.706  12.936  22.744  0.00  0.00     0.088 A 
ATOM      3  S   UNL d   1     -47.524  13.442  23.087  0.00  0.00    -0.068 SA
ATOM      4  C   UNL d   1     -48.723  13.753  22.585  0.00  0.00     0.013 A 
ATOM      5  C   UNL d   1     -47.991  14.069  22.798  0.00  0.00     0.031 A 
ATOM      6  C   UNL d   1     -49.387  14.144  22.267  0.00  0.00     0.001 A 
ATOM      7  C   UNL d   1     -47.734  14.854  22.747  0.00  0.00     0.006 A 
ATOM      8  C   UNL d   1     -49.467  14.945  22.089  0.00  0.00     0.000 A 
ATOM      9  C   UNL d   1     -48.156  15.512  22.469  0.00  0.00     0.001 A 
ATOM     10  C   UNL d   1     -48.919  15.548  22.180  0.00  0.00     0.000 A 
ENDROOT
BRANCH   1  11
ATOM     11  N   UNL d   1     -47.693  12.010  23.291  0.00  0.00    -0.201 NA
ATOM     12  C   UNL d   1     -46.881  11.835  23.279  0.00  0.00     0.286 C 
ATOM     13  O   UNL d   1     -46.627  11.087  23.517  0.00  0.00    -0.265 OA
BRANCH  12  14
ATOM     14  C   UNL d   1     -46.334  12.398  23.033  0.00  0.00     0.100 C 
BRANCH  14  15
ATOM     15  S   UNL d   1     -45.527  12.282  23.174  0.00  0.00    -0.054 SA
BRANCH  15  16
ATOM     16  C   UNL d   1     -44.966  12.558  22.635  0.00  0.00     0.164 A 
ATOM     17  S   UNL d   1     -44.300  12.198  22.303  0.00  0.00    -0.039 SA
ATOM     18  C   UNL d   1     -43.944  12.752  21.791  0.00  0.00     0.134 A 
ATOM     19  C   UNL d   1     -43.261  12.627  21.342  0.00  0.00     0.030 C 
ATOM     20  N   UNL d   1     -44.393  13.443  21.815  0.00  0.00    -0.140 NA
ATOM     21  N   UNL d   1     -45.024  13.329  22.332  0.00  0.00    -0.134 NA
ENDBRANCH  15  16
ENDBRANCH  14  15
ENDBRANCH  12  14
ENDBRANCH   1  11
BRANCH   2  22
ATOM     22  C   UNL d   1     -49.323  12.405  22.614  0.00  0.00     0.302 C 
ATOM     23  O   UNL d   1     -49.354  11.961  21.912  0.00  0.00    -0.259 OA
BRANCH  22  24
ATOM     24  O   UNL d   1     -49.917  12.311  23.186  0.00  0.00    -0.271 OA
BRANCH  24  25
ATOM     25  C   UNL d   1     -50.494  11.730  23.094  0.00  0.00     0.126 C 
ATOM     26  C   UNL d   1     -51.032  11.573  23.698  0.00  0.00     0.029 C 
ENDBRANCH  24  25
ENDBRANCH  22  24
ENDBRANCH   2  22
TORSDOF 7
ENDMDL
MODEL 5
REMARK VINA RESULT:      -5.4      9.369     10.657
REMARK  7 active torsions:
REMARK  status: ('A' for Active; 'I' for Inactive)
REMARK    1  A    between atoms: N_10  and  C_1 
REMARK    2  A    between atoms: C_11  and  C_2 
REMARK    3  A    between atoms: C_7  and  S_14 
REMARK       I    between atoms: C_13  and  N_10 
REMARK    4  A    between atoms: O_18  and  C_11 
REMARK    5  A    between atoms: C_17  and  C_13 
REMARK    6  A    between atoms: S_14  and  C_17 
REMARK    7  A    between atoms: C_22  and  O_18 
ROOT
ATOM      1  C   UNL d   1     -39.306  14.030  17.871  0.00  0.00     0.119 A 
ATOM      2  C   UNL d   1     -39.210  14.481  17.185  0.00  0.00     0.088 A 
ATOM      3  S   UNL d   1     -40.043  14.168  18.174  0.00  0.00    -0.068 SA
ATOM      4  C   UNL d   1     -39.915  14.908  17.069  0.00  0.00     0.013 A 
ATOM      5  C   UNL d   1     -40.434  14.715  17.681  0.00  0.00     0.031 A 
ATOM      6  C   UNL d   1     -40.034  15.429  16.430  0.00  0.00     0.001 A 
ATOM      7  C   UNL d   1     -41.201  14.993  17.812  0.00  0.00     0.006 A 
ATOM      8  C   UNL d   1     -40.704  15.878  16.259  0.00  0.00     0.000 A 
ATOM      9  C   UNL d   1     -41.634  15.534  17.356  0.00  0.00     0.001 A 
ATOM     10  C   UNL d   1     -41.411  15.922  16.672  0.00  0.00     0.000 A 
ENDROOT
BRANCH   1  11
ATOM     11  N   UNL d   1     -38.741  13.516  18.201  0.00  0.00    -0.201 NA
ATOM     12  C   UNL d   1     -38.500  13.616  18.990  0.00  0.00     0.286 C 
ATOM     13  O   UNL d   1     -37.940  13.101  19.308  0.00  0.00    -0.265 OA
BRANCH  12  14
ATOM     14  C   UNL d   1     -38.814  14.221  19.451  0.00  0.00     0.100 C 
BRANCH  14  15
ATOM     15  S   UNL d   1     -38.361  14.563  20.053  0.00  0.00    -0.054 SA
BRANCH  15  16
ATOM     16  C   UNL d   1     -38.728  14.937  20.690  0.00  0.00     0.164 A 
ATOM     17  S   UNL d   1     -38.573  14.918  21.502  0.00  0.00    -0.039 SA
ATOM     18  C   UNL d   1     -39.132  15.411  21.876  0.00  0.00     0.134 A 
ATOM     19  C   UNL d   1     -39.183  15.556  22.689  0.00  0.00     0.030 C 
ATOM     20  N   UNL d   1     -39.622  15.726  21.293  0.00  0.00    -0.140 NA
ATOM     21  N   UNL d   1     -39.378  15.438  20.561  0.00  0.00    -0.134 NA
ENDBRANCH  15  16
ENDBRANCH  14  15
ENDBRANCH  12  14
ENDBRANCH   1  11
BRANCH   2  22
ATOM     22  C   UNL d   1     -38.542  14.507  16.702  0.00  0.00     0.302 C 
ATOM     23  O   UNL d   1     -38.040  15.169  16.716  0.00  0.00    -0.259 OA
BRANCH  22  24
ATOM     24  O   UNL d   1     -38.370  13.870  16.197  0.00  0.00    -0.271 OA
BRANCH  24  25
ATOM     25  C   UNL d   1     -37.940  13.994  15.506  0.00  0.00     0.126 C 
ATOM     26  C   UNL d   1     -37.957  13.440  14.896  0.00  0.00     0.029 C 
ENDBRANCH  24  25
ENDBRANCH  22  24
ENDBRANCH   2  22
TORSDOF 7
ENDMDL
MODEL 6
REMARK VINA RESULT:      -4.7      6.110      9.565
REMARK  7 active torsions:
REMARK  status: ('A' for Active; 'I' for Inactive)
REMARK    1  A    between atoms: N_10  and  C_1 
REMARK    2  A    between atoms: C_11  and  C_2 
REMARK    3  A    between atoms: C_7  and  S_14 
REMARK       I    between atoms: C_13  and  N_10 
REMARK    4  A    between atoms: O_18  and  C_11 
REMARK    5  A    between atoms: C_17  and  C_13 
REMARK    6  A    between atoms: S_14  and  C_17 
REMARK    7  A    between atoms: C_22  and  O_18 
ROOT
ATOM      1  C   UNL d   1     -39.697  14.982  19.162  0.00  0.00     0.119 A 
ATOM      2  C   UNL d   1     -39.480  14.748  18.400  0.00  0.00     0.088 A 
ATOM      3  S   UNL d   1     -40.383  15.408  19.119  0.00  0.00    -0.068 SA
ATOM      4  C   UNL d   1     -40.055  15.043  17.876  0.00  0.00     0.013 A 
ATOM      5  C   UNL d   1     -40.617  15.453  18.320  0.00  0.00     0.031 A 
ATOM      6  C   UNL d   1     -40.030  14.922  17.052  0.00  0.00     0.001 A 
ATOM      7  C   UNL d   1     -41.295  15.846  18.056  0.00  0.00     0.006 A 
ATOM      8  C   UNL d   1     -40.565  15.186  16.484  0.00  0.00     0.000 A 
ATOM      9  C   UNL d   1     -41.572  15.921  17.278  0.00  0.00     0.001 A 
ATOM     10  C   UNL d   1     -41.247  15.629  16.588  0.00  0.00     0.000 A 
ENDROOT
BRANCH   1  11
ATOM     11  N   UNL d   1     -39.283  14.811  19.862  0.00  0.00    -0.201 NA
ATOM     12  C   UNL d   1     -39.688  14.505  20.520  0.00  0.00     0.286 C 
ATOM     13  O   UNL d   1     -39.268  14.339  21.211  0.00  0.00    -0.265 OA
BRANCH  12  14
ATOM     14  C   UNL d   1     -40.499  14.368  20.487  0.00  0.00     0.100 C 
BRANCH  14  15
ATOM     15  S   UNL d   1     -40.904  14.103  21.158  0.00  0.00    -0.054 SA
BRANCH  15  16
ATOM     16  C   UNL d   1     -41.623  13.707  21.082  0.00  0.00     0.164 A 
ATOM     17  S   UNL d   1     -42.363  13.840  21.426  0.00  0.00    -0.039 SA
ATOM     18  C   UNL d   1     -42.883  13.256  21.138  0.00  0.00     0.134 A 
ATOM     19  C   UNL d   1     -43.682  13.179  21.337  0.00  0.00     0.030 C 
ATOM     20  N   UNL d   1     -42.460  12.773  20.622  0.00  0.00    -0.140 NA
ATOM     21  N   UNL d   1     -41.683  13.045  20.583  0.00  0.00    -0.134 NA
ENDBRANCH  15  16
ENDBRANCH  14  15
ENDBRANCH  12  14
ENDBRANCH   1  11
BRANCH   2  22
ATOM     22  C   UNL d   1     -38.816  14.304  18.190  0.00  0.00     0.302 C 
ATOM     23  O   UNL d   1     -38.081  14.675  18.080  0.00  0.00    -0.259 OA
BRANCH  22  24
ATOM     24  O   UNL d   1     -38.883  13.482  18.089  0.00  0.00    -0.271 OA
BRANCH  24  25
ATOM     25  C   UNL d   1     -38.222  13.036  17.883  0.00  0.00     0.126 C 
ATOM     26  C   UNL d   1     -38.298  12.240  17.685  0.00  0.00     0.029 C 
ENDBRANCH  24  25
ENDBRANCH  22  24
ENDBRANCH   2  22
TORSDOF 7
ENDMDL
MODEL 7
REMARK VINA RESULT:      -4.2      1.580      2.672
REMARK  7 active torsions:
REMARK  status: ('A' for Active; 'I' for Inactive)
REMARK    1  A    between atoms: N_10  and  C_1 
REMARK    2  A    between atoms: C_11  and  C_2 
REMARK    3  A    between atoms: C_7  and  S_14 
REMARK       I    between atoms: C_13  and  N_10 
REMARK    4  A    between atoms: O_18  and  C_11 
REMARK    5  A    between atoms: C_17  and  C_13 
REMARK    6  A    between atoms: S_14  and  C_17 
REMARK    7  A    between atoms: C_22  and  O_18 
ROOT
ATOM      1  C   UNL d   1     -48.898  12.901  23.305  0.00  0.00     0.119 A 
ATOM      2  C   UNL d   1     -49.497  13.287  22.887  0.00  0.00     0.088 A 
ATOM      3  S   UNL d   1     -48.305  13.430  23.461  0.00  0.00    -0.068 SA
ATOM      4  C   UNL d   1     -49.259  14.078  22.786  0.00  0.00     0.013 A 
ATOM      5  C   UNL d   1     -48.520  14.170  23.141  0.00  0.00     0.031 A 
ATOM      6  C   UNL d   1     -49.719  14.647  22.387  0.00  0.00     0.001 A 
ATOM      7  C   UNL d   1     -48.053  14.850  23.191  0.00  0.00     0.006 A 
ATOM      8  C   UNL d   1     -49.542  15.441  22.254  0.00  0.00     0.000 A 
ATOM      9  C   UNL d   1     -48.218  15.606  22.891  0.00  0.00     0.001 A 
ATOM     10  C   UNL d   1     -48.875  15.862  22.479  0.00  0.00     0.000 A 
ENDROOT
BRANCH   1  11
ATOM     11  N   UNL d   1     -48.896  12.101  23.532  0.00  0.00    -0.201 NA
ATOM     12  C   UNL d   1     -48.199  11.653  23.469  0.00  0.00     0.286 C 
ATOM     13  O   UNL d   1     -48.209  10.860  23.697  0.00  0.00    -0.265 OA
BRANCH  12  14
ATOM     14  C   UNL d   1     -47.506  11.992  23.184  0.00  0.00     0.100 C 
BRANCH  14  15
ATOM     15  S   UNL d   1     -46.837  11.525  23.055  0.00  0.00    -0.054 SA
BRANCH  15  16
ATOM     16  C   UNL d   1     -46.108  11.875  22.892  0.00  0.00     0.164 A 
ATOM     17  S   UNL d   1     -45.859  12.362  22.272  0.00  0.00    -0.039 SA
ATOM     18  C   UNL d   1     -45.056  12.545  22.403  0.00  0.00     0.134 A 
ATOM     19  C   UNL d   1     -44.582  13.019  21.919  0.00  0.00     0.030 C 
ATOM     20  N   UNL d   1     -44.822  12.170  23.098  0.00  0.00    -0.140 NA
ATOM     21  N   UNL d   1     -45.465  11.755  23.404  0.00  0.00    -0.134 NA
ENDBRANCH  15  16
ENDBRANCH  14  15
ENDBRANCH  12  14
ENDBRANCH   1  11
BRANCH   2  22
ATOM     22  C   UNL d   1     -50.202  12.954  22.616  0.00  0.00     0.302 C 
ATOM     23  O   UNL d   1     -50.777  12.695  23.157  0.00  0.00    -0.259 OA
BRANCH  22  24
ATOM     24  O   UNL d   1     -50.338  12.878  21.801  0.00  0.00    -0.271 OA
BRANCH  24  25
ATOM     25  C   UNL d   1     -51.022  12.509  21.528  0.00  0.00     0.126 C 
ATOM     26  C   UNL d   1     -51.061  12.212  20.760  0.00  0.00     0.029 C 
ENDBRANCH  24  25
ENDBRANCH  22  24
ENDBRANCH   2  22
TORSDOF 7
ENDMDL
MODEL 8
REMARK VINA RESULT:      -4.2      6.388      9.800
REMARK  7 active torsions:
REMARK  status: ('A' for Active; 'I' for Inactive)
REMARK    1  A    between atoms: N_10  and  C_1 
REMARK    2  A    between atoms: C_11  and  C_2 
REMARK    3  A    between atoms: C_7  and  S_14 
REMARK       I    between atoms: C_13  and  N_10 
REMARK    4  A    between atoms: O_18  and  C_11 
REMARK    5  A    between atoms: C_17  and  C_13 
REMARK    6  A    between atoms: S_14  and  C_17 
REMARK    7  A    between atoms: C_22  and  O_18 
ROOT
ATOM      1  C   UNL d   1     -39.170  14.729  18.777  0.00  0.00     0.119 A 
ATOM      2  C   UNL d   1     -39.213  14.632  17.958  0.00  0.00     0.088 A 
ATOM      3  S   UNL d   1     -38.785  14.093  19.096  0.00  0.00    -0.068 SA
ATOM      4  C   UNL d   1     -38.841  13.910  17.773  0.00  0.00     0.013 A 
ATOM      5  C   UNL d   1     -38.575  13.574  18.478  0.00  0.00     0.031 A 
ATOM      6  C   UNL d   1     -38.772  13.616  16.997  0.00  0.00     0.001 A 
ATOM      7  C   UNL d   1     -38.173  12.860  18.589  0.00  0.00     0.006 A 
ATOM      8  C   UNL d   1     -38.419  12.914  16.750  0.00  0.00     0.000 A 
ATOM      9  C   UNL d   1     -37.941  12.310  18.012  0.00  0.00     0.001 A 
ATOM     10  C   UNL d   1     -38.051  12.338  17.203  0.00  0.00     0.000 A 
ENDROOT
BRANCH   1  11
ATOM     11  N   UNL d   1     -39.470  15.373  19.210  0.00  0.00    -0.201 NA
ATOM     12  C   UNL d   1     -40.017  15.243  19.821  0.00  0.00     0.286 C 
ATOM     13  O   UNL d   1     -40.309  15.889  20.244  0.00  0.00    -0.265 OA
BRANCH  12  14
ATOM     14  C   UNL d   1     -40.268  14.482  20.005  0.00  0.00     0.100 C 
BRANCH  14  15
ATOM     15  S   UNL d   1     -40.641  14.330  20.728  0.00  0.00    -0.054 SA
BRANCH  15  16
ATOM     16  C   UNL d   1     -41.330  13.878  20.755  0.00  0.00     0.164 A 
ATOM     17  S   UNL d   1     -41.763  13.572  21.389  0.00  0.00    -0.039 SA
ATOM     18  C   UNL d   1     -42.414  13.158  21.074  0.00  0.00     0.134 A 
ATOM     19  C   UNL d   1     -42.994  12.763  21.511  0.00  0.00     0.030 C 
ATOM     20  N   UNL d   1     -42.375  13.214  20.253  0.00  0.00    -0.140 NA
ATOM     21  N   UNL d   1     -41.710  13.656  20.050  0.00  0.00    -0.134 NA
ENDBRANCH  15  16
ENDBRANCH  14  15
ENDBRANCH  12  14
ENDBRANCH   1  11
BRANCH   2  22
ATOM     22  C   UNL d   1     -39.559  15.151  17.417  0.00  0.00     0.302 C 
ATOM     23  O   UNL d   1     -39.169  15.851  17.199  0.00  0.00    -0.259 OA
BRANCH  22  24
ATOM     24  O   UNL d   1     -40.301  14.972  17.089  0.00  0.00    -0.271 OA
BRANCH  24  25
ATOM     25  C   UNL d   1     -40.634  15.471  16.524  0.00  0.00     0.126 C 
ATOM     26  C   UNL d   1     -41.452  15.551  16.465  0.00  0.00     0.029 C 
ENDBRANCH  24  25
ENDBRANCH  22  24
ENDBRANCH   2  22
TORSDOF 7
ENDMDL
