MODEL 1
REMARK VINA RESULT:      -6.0      0.000      0.000
REMARK  4 active torsions:
REMARK  status: ('A' for Active; 'I' for Inactive)
REMARK    1  A    between atoms: N_8  and  C_1 
REMARK    2  A    between atoms: O_11  and  C_2 
REMARK       I    between atoms: C_12  and  N_8 
REMARK    3  A    between atoms: C_16  and  O_11 
REMARK    4  A    between atoms: O_22  and  C_17 
ROOT
ATOM      1  C   UNL d   1      57.807  -0.515  30.390  0.00  0.00     0.272 A 
ATOM      2  C   UNL d   1      58.236  -0.411  29.754  0.00  0.00     0.284 A 
ATOM      3  C   UNL d   1      56.947  -0.635  31.743  0.00  0.00     0.207 A 
ATOM      4  C   UNL d   1      57.525   0.030  31.346  0.00  0.00     0.220 A 
ATOM      5  O   UNL d   1      57.655  -1.080  30.151  0.00  0.00    -0.325 OA
ATOM      6  C   UNL d   1      57.397  -0.546  31.058  0.00  0.00     0.182 A 
ATOM      7  O   UNL d   1      56.759  -0.240  32.407  0.00  0.00    -0.327 OA
ATOM      8  C   UNL d   1      56.362  -0.703  32.675  0.00  0.00     0.188 A 
ATOM      9  O   UNL d   1      56.579  -1.002  32.046  0.00  0.00    -0.332 OA
ATOM     10  C   UNL d   1      57.005  -0.986  31.336  0.00  0.00     0.177 A 
ATOM     11  O   UNL d   1      57.159  -0.081  31.869  0.00  0.00    -0.290 OA
ATOM     12  C   UNL d   1      56.253  -0.262  33.246  0.00  0.00     0.061 C 
ATOM     13  C   UNL d   1      55.923  -1.197  32.986  0.00  0.00     0.061 C 
ENDROOT
BRANCH   2  14
ATOM     14  O   UNL d   1      58.425  -0.806  29.087  0.00  0.00    -0.303 OA
BRANCH  14  15
ATOM     15  C   UNL d   1      58.976  -1.433  29.121  0.00  0.00     0.097 A 
ATOM     16  C   UNL d   1      58.704  -2.209  29.126  0.00  0.00     0.026 A 
ATOM     17  C   UNL d   1      59.248  -2.838  29.159  0.00  0.00     0.026 A 
ATOM     18  C   UNL d   1      60.064  -2.676  29.188  0.00  0.00     0.094 A 
ATOM     19  C   UNL d   1      60.331  -1.889  29.182  0.00  0.00     0.026 A 
ATOM     20  C   UNL d   1      59.784  -1.262  29.149  0.00  0.00     0.026 A 
BRANCH  18  21
ATOM     21  O   UNL d   1      60.608  -3.305  29.221  0.00  0.00    -0.328 OA
ATOM     22  C   UNL d   1      60.705  -3.805  28.571  0.00  0.00     0.181 C 
ENDBRANCH  18  21
ENDBRANCH  14  15
ENDBRANCH   2  14
BRANCH   1  23
ATOM     23  N   UNL d   1      58.200  -0.071  30.113  0.00  0.00    -0.380 NA
ATOM     24  C   UNL d   1      58.591   0.370  29.835  0.00  0.00     0.324 C 
ATOM     25  O   UNL d   1      59.172   0.505  30.101  0.00  0.00    -0.251 OA
ATOM     26  C   UNL d   1      58.404   0.682  29.287  0.00  0.00     0.082 C 
ENDBRANCH   1  23
TORSDOF 4
ENDMDL
MODEL 2
REMARK VINA RESULT:      -4.7      0.872      4.089
REMARK  4 active torsions:
REMARK  status: ('A' for Active; 'I' for Inactive)
REMARK    1  A    between atoms: N_8  and  C_1 
REMARK    2  A    between atoms: O_11  and  C_2 
REMARK       I    between atoms: C_12  and  N_8 
REMARK    3  A    between atoms: C_16  and  O_11 
REMARK    4  A    between atoms: O_22  and  C_17 
ROOT
ATOM      1  C   UNL d   1      58.590  -0.963  29.582  0.00  0.00     0.272 A 
ATOM      2  C   UNL d   1      58.446  -0.244  29.828  0.00  0.00     0.284 A 
ATOM      3  C   UNL d   1      58.990  -2.429  29.056  0.00  0.00     0.207 A 
ATOM      4  C   UNL d   1      59.453  -1.593  29.196  0.00  0.00     0.220 A 
ATOM      5  O   UNL d   1      57.978  -1.083  29.688  0.00  0.00    -0.325 OA
ATOM      6  C   UNL d   1      58.814  -1.669  29.322  0.00  0.00     0.182 A 
ATOM      7  O   UNL d   1      59.604  -2.856  28.788  0.00  0.00    -0.327 OA
ATOM      8  C   UNL d   1      59.279  -3.429  28.694  0.00  0.00     0.188 A 
ATOM      9  O   UNL d   1      58.765  -2.976  28.946  0.00  0.00    -0.332 OA
ATOM     10  C   UNL d   1      58.512  -2.238  29.223  0.00  0.00     0.177 A 
ATOM     11  O   UNL d   1      59.548  -2.201  28.995  0.00  0.00    -0.290 OA
ATOM     12  C   UNL d   1      59.901  -3.731  28.461  0.00  0.00     0.061 C 
ATOM     13  C   UNL d   1      58.940  -4.068  28.584  0.00  0.00     0.061 C 
ENDROOT
BRANCH   2  14
ATOM     14  O   UNL d   1      57.829   0.186  30.097  0.00  0.00    -0.303 OA
BRANCH  14  15
ATOM     15  C   UNL d   1      57.604   0.126  30.899  0.00  0.00     0.097 A 
ATOM     16  C   UNL d   1      57.936   0.639  31.450  0.00  0.00     0.026 A 
ATOM     17  C   UNL d   1      57.716   0.585  32.251  0.00  0.00     0.026 A 
ATOM     18  C   UNL d   1      57.161   0.012  32.487  0.00  0.00     0.094 A 
ATOM     19  C   UNL d   1      56.830  -0.502  31.925  0.00  0.00     0.026 A 
ATOM     20  C   UNL d   1      57.052  -0.446  31.125  0.00  0.00     0.026 A 
BRANCH  18  21
ATOM     21  O   UNL d   1      56.941  -0.043  33.288  0.00  0.00    -0.328 OA
ATOM     22  C   UNL d   1      56.178   0.169  33.524  0.00  0.00     0.181 C 
ENDBRANCH  18  21
ENDBRANCH  14  15
ENDBRANCH   2  14
BRANCH   1  23
ATOM     23  N   UNL d   1      58.894  -0.392  29.680  0.00  0.00    -0.380 NA
ATOM     24  C   UNL d   1      59.197   0.177  29.777  0.00  0.00     0.324 C 
ATOM     25  O   UNL d   1      59.604   0.248  30.283  0.00  0.00    -0.251 OA
ATOM     26  C   UNL d   1      59.094   0.682  29.369  0.00  0.00     0.082 C 
ENDBRANCH   1  23
TORSDOF 4
ENDMDL
