MODEL 1
REMARK VINA RESULT:      83.4      0.000      0.000
REMARK  9 active torsions:
REMARK  status: ('A' for Active; 'I' for Inactive)
REMARK    1  A    between atoms: C_8  and  N_1 
REMARK    2  A    between atoms: C_6  and  C_2 
REMARK    3  A    between atoms: O_12  and  C_11 
REMARK    4  A    between atoms: C_18  and  O_12 
REMARK    5  A    between atoms: C_14  and  C_18 
REMARK    6  A    between atoms: C_16  and  C_14 
REMARK    7  A    between atoms: N_15  and  C_16 
REMARK    8  A    between atoms: C_23  and  N_15 
REMARK    9  A    between atoms: C_24  and  N_15 
ROOT
ATOM      1  N   UNL d   1     -55.024-101.055 -38.722  0.00  0.00    -0.306 N 
ATOM      2  C   UNL d   1     -55.142-101.688 -39.963  0.00  0.00     0.057 A 
ATOM      3  C   UNL d   1     -55.107-101.836 -39.099  0.00  0.00     0.067 A 
ATOM      4  C   UNL d   1     -55.009-100.458 -39.347  0.00  0.00     0.064 A 
ATOM      5  C   UNL d   1     -55.079-100.831 -40.079  0.00  0.00     0.023 A 
ATOM      6  C   UNL d   1     -54.943 -99.655 -39.311  0.00  0.00     0.020 A 
ATOM      7  C   UNL d   1     -55.081-100.392 -40.759  0.00  0.00     0.026 A 
ATOM      8  C   UNL d   1     -55.014 -99.585 -40.720  0.00  0.00     0.100 A 
ATOM      9  C   UNL d   1     -55.146-102.563 -38.726  0.00  0.00     0.019 C 
ATOM     10  C   UNL d   1     -54.944 -99.212 -39.987  0.00  0.00     0.026 A 
ENDROOT
BRANCH   8  11
ATOM     11  O   UNL d   1     -55.012 -99.093 -41.427  0.00  0.00    -0.302 OA
BRANCH  11  12
ATOM     12  C   UNL d   1     -54.731 -99.364 -42.133  0.00  0.00     0.166 C 
BRANCH  12  13
ATOM     13  C   UNL d   1     -55.235 -99.429 -42.830  0.00  0.00     0.238 C 
ATOM     14  O   UNL d   1     -55.566-100.217 -43.026  0.00  0.00    -0.283 OA
BRANCH  13  15
ATOM     15  C   UNL d   1     -55.405 -98.790 -43.296  0.00  0.00     0.125 C 
BRANCH  15  16
ATOM     16  N   UNL d   1     -56.021 -98.817 -43.895  0.00  0.00    -0.300 N 
BRANCH  16  17
ATOM     17  C   UNL d   1     -56.023 -98.826 -44.747  0.00  0.00     0.080 C 
ATOM     18  C   UNL d   1     -55.242 -98.892 -44.977  0.00  0.00     0.021 C 
ENDBRANCH  16  17
BRANCH  16  19
ATOM     19  C   UNL d   1     -56.810 -98.842 -43.701  0.00  0.00     0.080 C 
ATOM     20  C   UNL d   1     -57.427 -98.839 -44.299  0.00  0.00     0.021 C 
ENDBRANCH  16  19
ENDBRANCH  15  16
ENDBRANCH  13  15
ENDBRANCH  12  13
ENDBRANCH  11  12
ENDBRANCH   8  11
BRANCH   2  21
ATOM     21  C   UNL d   1     -55.220-102.292 -40.504  0.00  0.00     0.197 C 
ATOM     22  O   UNL d   1     -54.757-102.404 -41.256  0.00  0.00    -0.286 OA
ATOM     23  C   UNL d   1     -55.802-102.817 -40.276  0.00  0.00     0.045 C 
ENDBRANCH   2  21
BRANCH   1  24
ATOM     24  C   UNL d   1     -54.974-100.973 -37.916  0.00  0.00     0.064 A 
ATOM     25  C   UNL d   1     -55.078-101.579 -37.328  0.00  0.00     0.018 A 
ATOM     26  C   UNL d   1     -55.010-101.418 -36.496  0.00  0.00     0.002 A 
ATOM     27  C   UNL d   1     -54.837-100.652 -36.246  0.00  0.00     0.000 A 
ATOM     28  C   UNL d   1     -54.725-100.019 -36.781  0.00  0.00     0.002 A 
ATOM     29  C   UNL d   1     -54.792-100.176 -37.615  0.00  0.00     0.018 A 
ENDBRANCH   1  24
TORSDOF 9
ENDMDL
MODEL 2
REMARK VINA RESULT:      86.3      1.666      2.419
REMARK  9 active torsions:
REMARK  status: ('A' for Active; 'I' for Inactive)
REMARK    1  A    between atoms: C_8  and  N_1 
REMARK    2  A    between atoms: C_6  and  C_2 
REMARK    3  A    between atoms: O_12  and  C_11 
REMARK    4  A    between atoms: C_18  and  O_12 
REMARK    5  A    between atoms: C_14  and  C_18 
REMARK    6  A    between atoms: C_16  and  C_14 
REMARK    7  A    between atoms: N_15  and  C_16 
REMARK    8  A    between atoms: C_23  and  N_15 
REMARK    9  A    between atoms: C_24  and  N_15 
ROOT
ATOM      1  N   UNL d   1     -56.076-102.515 -39.277  0.00  0.00    -0.306 N 
ATOM      2  C   UNL d   1     -57.122-102.717 -40.184  0.00  0.00     0.057 A 
ATOM      3  C   UNL d   1     -56.941-102.604 -39.332  0.00  0.00     0.067 A 
ATOM      4  C   UNL d   1     -55.751-102.573 -40.076  0.00  0.00     0.064 A 
ATOM      5  C   UNL d   1     -56.368-102.692 -40.611  0.00  0.00     0.023 A 
ATOM      6  C   UNL d   1     -54.992-102.529 -40.345  0.00  0.00     0.020 A 
ATOM      7  C   UNL d   1     -56.211-102.764 -41.401  0.00  0.00     0.026 A 
ATOM      8  C   UNL d   1     -55.447-102.720 -41.668  0.00  0.00     0.100 A 
ATOM      9  C   UNL d   1     -57.479-102.588 -38.716  0.00  0.00     0.019 C 
ATOM     10  C   UNL d   1     -54.830-102.602 -41.133  0.00  0.00     0.026 A 
ENDROOT
BRANCH   8  11
ATOM     11  O   UNL d   1     -55.250-102.795 -42.503  0.00  0.00    -0.302 OA
BRANCH  11  12
ATOM     12  C   UNL d   1     -54.724-102.299 -42.861  0.00  0.00     0.166 C 
BRANCH  12  13
ATOM     13  C   UNL d   1     -54.917-101.476 -43.034  0.00  0.00     0.238 C 
ATOM     14  O   UNL d   1     -54.925-100.907 -42.367  0.00  0.00    -0.283 OA
BRANCH  13  15
ATOM     15  C   UNL d   1     -55.088-101.224 -43.783  0.00  0.00     0.125 C 
BRANCH  15  16
ATOM     16  N   UNL d   1     -55.350-100.421 -43.943  0.00  0.00    -0.300 N 
BRANCH  16  17
ATOM     17  C   UNL d   1     -56.097-100.016 -43.882  0.00  0.00     0.080 C 
ATOM     18  C   UNL d   1     -56.179 -99.584 -44.572  0.00  0.00     0.021 C 
ENDBRANCH  16  17
BRANCH  16  19
ATOM     19  C   UNL d   1     -54.842 -99.849 -44.216  0.00  0.00     0.080 C 
ATOM     20  C   UNL d   1     -54.789 -99.647 -45.050  0.00  0.00     0.021 C 
ENDBRANCH  16  19
ENDBRANCH  15  16
ENDBRANCH  13  15
ENDBRANCH  12  13
ENDBRANCH  11  12
ENDBRANCH   8  11
BRANCH   2  21
ATOM     21  C   UNL d   1     -57.883-102.820 -40.455  0.00  0.00     0.197 C 
ATOM     22  O   UNL d   1     -58.149-102.868 -41.303  0.00  0.00    -0.286 OA
ATOM     23  C   UNL d   1     -58.411-102.879 -39.835  0.00  0.00     0.045 C 
ENDBRANCH   2  21
BRANCH   1  24
ATOM     24  C   UNL d   1     -55.703-102.400 -38.566  0.00  0.00     0.064 A 
ATOM     25  C   UNL d   1     -55.062-102.855 -38.240  0.00  0.00     0.018 A 
ATOM     26  C   UNL d   1     -54.719-102.674 -37.483  0.00  0.00     0.002 A 
ATOM     27  C   UNL d   1     -55.013-102.039 -37.048  0.00  0.00     0.000 A 
ATOM     28  C   UNL d   1     -55.641-101.559 -37.321  0.00  0.00     0.002 A 
ATOM     29  C   UNL d   1     -55.988-101.737 -38.078  0.00  0.00     0.018 A 
ENDBRANCH   1  24
TORSDOF 9
ENDMDL
