MODEL 1
REMARK VINA RESULT:      -2.7      0.000      0.000
REMARK  1 active torsions:
REMARK  status: ('A' for Active; 'I' for Inactive)
REMARK    1  A    between atoms: C_2  and  C_3 
ROOT
ATOM      1  C   UNL d   1      32.595  22.297 -20.939  0.00  0.00     0.002 A 
ATOM      2  C   UNL d   1      32.147  22.887 -21.304  0.00  0.00     0.000 A 
ATOM      3  C   UNL d   1      32.871  22.410 -20.169  0.00  0.00     0.000 A 
ATOM      4  C   UNL d   1      31.977  23.587 -20.902  0.00  0.00     0.000 A 
ATOM      5  C   UNL d   1      32.700  23.111 -19.766  0.00  0.00     0.000 A 
ATOM      6  C   UNL d   1      32.253  23.699 -20.133  0.00  0.00     0.000 A 
ENDROOT
BRANCH   1   7
ATOM      7  C   UNL d   1      32.767  21.594 -21.339  0.00  0.00     0.021 A 
ATOM      8  C   UNL d   1      33.205  21.527 -22.033  0.00  0.00     0.099 A 
ATOM      9  N   UNL d   1      33.240  20.730 -22.236  0.00  0.00    -0.242 NA
ATOM     10  C   UNL d   1      32.822  20.302 -21.665  0.00  0.00     0.099 A 
ATOM     11  C   UNL d   1      32.529  20.837 -21.110  0.00  0.00     0.022 A 
ENDBRANCH   1   7
TORSDOF 1
ENDMDL
MODEL 2
REMARK VINA RESULT:      -2.5      1.135      2.768
REMARK  1 active torsions:
REMARK  status: ('A' for Active; 'I' for Inactive)
REMARK    1  A    between atoms: C_2  and  C_3 
ROOT
ATOM      1  C   UNL d   1      32.794  21.758 -21.287  0.00  0.00     0.002 A 
ATOM      2  C   UNL d   1      32.702  21.052 -20.869  0.00  0.00     0.000 A 
ATOM      3  C   UNL d   1      33.064  21.740 -22.067  0.00  0.00     0.000 A 
ATOM      4  C   UNL d   1      32.879  20.331 -21.230  0.00  0.00     0.000 A 
ATOM      5  C   UNL d   1      33.241  21.018 -22.428  0.00  0.00     0.000 A 
ATOM      6  C   UNL d   1      33.149  20.314 -22.009  0.00  0.00     0.000 A 
ENDROOT
BRANCH   1   7
ATOM      7  C   UNL d   1      32.617  22.482 -20.929  0.00  0.00     0.021 A 
ATOM      8  C   UNL d   1      32.895  22.743 -20.199  0.00  0.00     0.099 A 
ATOM      9  N   UNL d   1      32.582  23.491 -20.060  0.00  0.00    -0.242 NA
ATOM     10  C   UNL d   1      32.109  23.695 -20.706  0.00  0.00     0.099 A 
ATOM     11  C   UNL d   1      32.131  23.071 -21.245  0.00  0.00     0.022 A 
ENDBRANCH   1   7
TORSDOF 1
ENDMDL
MODEL 3
REMARK VINA RESULT:      -2.5      6.421      7.133
REMARK  1 active torsions:
REMARK  status: ('A' for Active; 'I' for Inactive)
REMARK    1  A    between atoms: C_2  and  C_3 
ROOT
ATOM      1  C   UNL d   1      29.977  16.240 -23.854  0.00  0.00     0.002 A 
ATOM      2  C   UNL d   1      29.553  16.823 -24.256  0.00  0.00     0.000 A 
ATOM      3  C   UNL d   1      29.587  15.743 -23.323  0.00  0.00     0.000 A 
ATOM      4  C   UNL d   1      28.741  16.908 -24.128  0.00  0.00     0.000 A 
ATOM      5  C   UNL d   1      28.775  15.828 -23.195  0.00  0.00     0.000 A 
ATOM      6  C   UNL d   1      28.352  16.410 -23.597  0.00  0.00     0.000 A 
ENDROOT
BRANCH   1   7
ATOM      7  C   UNL d   1      30.789  16.152 -23.979  0.00  0.00     0.021 A 
ATOM      8  C   UNL d   1      31.144  15.628 -24.505  0.00  0.00     0.099 A 
ATOM      9  N   UNL d   1      31.959  15.725 -24.451  0.00  0.00    -0.242 NA
ATOM     10  C   UNL d   1      32.110  16.313 -23.889  0.00  0.00     0.099 A 
ATOM     11  C   UNL d   1      31.386  16.577 -23.597  0.00  0.00     0.022 A 
ENDBRANCH   1   7
TORSDOF 1
ENDMDL
MODEL 4
REMARK VINA RESULT:      -2.4      1.969      2.965
REMARK  1 active torsions:
REMARK  status: ('A' for Active; 'I' for Inactive)
REMARK    1  A    between atoms: C_2  and  C_3 
ROOT
ATOM      1  C   UNL d   1      32.712  23.085 -18.461  0.00  0.00     0.002 A 
ATOM      2  C   UNL d   1      33.189  22.554 -18.048  0.00  0.00     0.000 A 
ATOM      3  C   UNL d   1      32.286  23.660 -18.049  0.00  0.00     0.000 A 
ATOM      4  C   UNL d   1      33.241  22.596 -17.225  0.00  0.00     0.000 A 
ATOM      5  C   UNL d   1      32.338  23.702 -17.226  0.00  0.00     0.000 A 
ATOM      6  C   UNL d   1      32.815  23.171 -16.814  0.00  0.00     0.000 A 
ENDROOT
BRANCH   1   7
ATOM      7  C   UNL d   1      32.658  23.046 -19.286  0.00  0.00     0.021 A 
ATOM      8  C   UNL d   1      32.749  23.675 -19.808  0.00  0.00     0.099 A 
ATOM      9  N   UNL d   1      32.651  23.388 -20.573  0.00  0.00    -0.242 NA
ATOM     10  C   UNL d   1      32.498  22.577 -20.524  0.00  0.00     0.099 A 
ATOM     11  C   UNL d   1      32.502  22.365 -19.727  0.00  0.00     0.022 A 
ENDBRANCH   1   7
TORSDOF 1
ENDMDL
MODEL 5
REMARK VINA RESULT:      -2.4      6.118      7.103
REMARK  1 active torsions:
REMARK  status: ('A' for Active; 'I' for Inactive)
REMARK    1  A    between atoms: C_2  and  C_3 
ROOT
ATOM      1  C   UNL d   1      30.311  16.546 -23.975  0.00  0.00     0.002 A 
ATOM      2  C   UNL d   1      30.956  16.194 -23.598  0.00  0.00     0.000 A 
ATOM      3  C   UNL d   1      30.405  17.275 -24.352  0.00  0.00     0.000 A 
ATOM      4  C   UNL d   1      31.691  16.569 -23.598  0.00  0.00     0.000 A 
ATOM      5  C   UNL d   1      31.140  17.650 -24.352  0.00  0.00     0.000 A 
ATOM      6  C   UNL d   1      31.784  17.297 -23.975  0.00  0.00     0.000 A 
ENDROOT
BRANCH   1   7
ATOM      7  C   UNL d   1      29.573  16.174 -23.977  0.00  0.00     0.021 A 
ATOM      8  C   UNL d   1      29.264  15.713 -24.585  0.00  0.00     0.099 A 
ATOM      9  N   UNL d   1      28.518  15.453 -24.355  0.00  0.00    -0.242 NA
ATOM     10  C   UNL d   1      28.364  15.755 -23.601  0.00  0.00     0.099 A 
ATOM     11  C   UNL d   1      29.016  16.201 -23.366  0.00  0.00     0.022 A 
ENDBRANCH   1   7
TORSDOF 1
ENDMDL
MODEL 6
REMARK VINA RESULT:      -2.3      4.348      5.903
REMARK  1 active torsions:
REMARK  status: ('A' for Active; 'I' for Inactive)
REMARK    1  A    between atoms: C_2  and  C_3 
ROOT
ATOM      1  C   UNL d   1      31.724  17.449 -23.995  0.00  0.00     0.002 A 
ATOM      2  C   UNL d   1      31.866  16.759 -23.564  0.00  0.00     0.000 A 
ATOM      3  C   UNL d   1      31.006  17.544 -24.391  0.00  0.00     0.000 A 
ATOM      4  C   UNL d   1      31.292  16.166 -23.530  0.00  0.00     0.000 A 
ATOM      5  C   UNL d   1      30.432  16.951 -24.357  0.00  0.00     0.000 A 
ATOM      6  C   UNL d   1      30.575  16.262 -23.927  0.00  0.00     0.000 A 
ENDROOT
BRANCH   1   7
ATOM      7  C   UNL d   1      32.296  18.045 -24.031  0.00  0.00     0.021 A 
ATOM      8  C   UNL d   1      32.668  18.319 -24.712  0.00  0.00     0.099 A 
ATOM      9  N   UNL d   1      33.195  18.911 -24.495  0.00  0.00    -0.242 NA
ATOM     10  C   UNL d   1      33.149  19.005 -23.674  0.00  0.00     0.099 A 
ATOM     11  C   UNL d   1      32.593  18.470 -23.387  0.00  0.00     0.022 A 
ENDBRANCH   1   7
TORSDOF 1
ENDMDL
