MODEL 1
REMARK VINA RESULT:      21.7      0.000      0.000
REMARK  4 active torsions:
REMARK  status: ('A' for Active; 'I' for Inactive)
REMARK    1  A    between atoms: N_7  and  S_1 
REMARK    2  A    between atoms: C_8  and  S_1 
REMARK    3  A    between atoms: C_17  and  N_2 
REMARK    4  A    between atoms: C_14  and  N_7 
ROOT
ATOM      1  N   UNL d   1      46.456 -18.715  42.170  0.00  0.00    -0.273 N 
ATOM      2  C   UNL d   1      46.495 -19.529  42.897  0.00  0.00     0.265 A 
ATOM      3  C   UNL d   1      46.272 -18.081  42.615  0.00  0.00     0.067 A 
ATOM      4  C   UNL d   1      46.199 -18.342  43.412  0.00  0.00     0.021 A 
ATOM      5  C   UNL d   1      46.317 -19.138  43.596  0.00  0.00     0.058 A 
ATOM      6  C   UNL d   1      45.888 -16.992  43.825  0.00  0.00     0.105 A 
ATOM      7  C   UNL d   1      46.009 -17.797  44.007  0.00  0.00     0.014 A 
ATOM      8  C   UNL d   1      46.149 -17.292  42.464  0.00  0.00     0.018 A 
ATOM      9  C   UNL d   1      45.954 -16.725  43.066  0.00  0.00     0.014 A 
ATOM     10  O   UNL d   1      46.647 -20.330  42.868  0.00  0.00    -0.267 OA
ATOM     11  C   UNL d   1      46.248 -19.388  44.360  0.00  0.00     0.005 A 
ATOM     12  C   UNL d   1      45.939 -18.047  44.771  0.00  0.00     0.001 A 
ATOM     13  C   UNL d   1      46.058 -18.847  44.954  0.00  0.00     0.000 A 
ENDROOT
BRANCH   6  14
ATOM     14  S   UNL d   1      45.702 -16.442  44.386  0.00  0.00     0.287 S 
ATOM     15  O   UNL d   1      46.456 -16.420  44.647  0.00  0.00    -0.198 OA
ATOM     16  O   UNL d   1      44.914 -16.456  44.124  0.00  0.00    -0.198 OA
BRANCH  14  17
ATOM     17  N   UNL d   1      45.475 -15.874  44.955  0.00  0.00    -0.139 NA
BRANCH  17  18
ATOM     18  C   UNL d   1      45.509 -15.072  44.774  0.00  0.00     0.175 A 
ATOM     19  N   UNL d   1      44.855 -14.686  44.425  0.00  0.00    -0.225 NA
ATOM     20  C   UNL d   1      44.906 -13.872  44.247  0.00  0.00     0.101 A 
ATOM     21  C   UNL d   1      45.599 -13.458  44.417  0.00  0.00     0.021 A 
ATOM     22  C   UNL d   1      46.243 -13.828  44.758  0.00  0.00     0.005 A 
ATOM     23  C   UNL d   1      46.196 -14.643  44.937  0.00  0.00     0.040 A 
ENDBRANCH  17  18
ENDBRANCH  14  17
ENDBRANCH   6  14
BRANCH   1  24
ATOM     24  C   UNL d   1      46.561 -18.624  41.361  0.00  0.00     0.083 C 
ATOM     25  C   UNL d   1      46.527 -19.300  40.866  0.00  0.00     0.021 C 
ENDBRANCH   1  24
TORSDOF 4
ENDMDL
