MODEL 1
REMARK VINA RESULT:       5.2      0.000      0.000
REMARK  3 active torsions:
REMARK  status: ('A' for Active; 'I' for Inactive)
REMARK    1  A    between atoms: S_6  and  C_2 
REMARK    2  A    between atoms: C_9  and  S_6 
REMARK    3  A    between atoms: C_7  and  C_9 
ROOT
ATOM      1  N   UNL d   1      15.069  11.854  -1.841  0.00  0.00    -0.243 NA
ATOM      2  C   UNL d   1      13.908  11.819  -2.485  0.00  0.00     0.046 A 
ATOM      3  C   UNL d   1      13.754  11.822  -1.674  0.00  0.00     0.025 A 
ATOM      4  C   UNL d   1      14.717  11.838  -2.587  0.00  0.00     0.105 A 
ATOM      5  C   UNL d   1      14.475  11.844  -1.273  0.00  0.00     0.082 A 
ATOM      6  C   UNL d   1      13.050  11.808  -1.250  0.00  0.00     0.002 A 
ATOM      7  C   UNL d   1      14.490  11.853  -0.442  0.00  0.00     0.019 A 
ATOM      8  C   UNL d   1      13.056  11.816  -0.408  0.00  0.00     0.000 A 
ATOM      9  C   UNL d   1      13.774  11.838  -0.015  0.00  0.00     0.002 A 
ENDROOT
BRANCH   2  10
ATOM     10  S   UNL d   1      13.349  11.798  -3.098  0.00  0.00    -0.101 SA
BRANCH  10  11
ATOM     11  C   UNL d   1      13.596  11.815  -3.889  0.00  0.00     0.160 C 
BRANCH  11  12
ATOM     12  C   UNL d   1      13.125  12.164  -4.472  0.00  0.00     0.197 C 
ATOM     13  O   UNL d   1      12.777  12.908  -4.326  0.00  0.00    -0.647 OA
ATOM     14  O   UNL d   1      12.992  11.791  -5.194  0.00  0.00    -0.647 OA
ENDBRANCH  11  12
ENDBRANCH  10  11
ENDBRANCH   2  10
TORSDOF 3
ENDMDL
MODEL 2
REMARK VINA RESULT:       8.1      9.602     10.162
REMARK  3 active torsions:
REMARK  status: ('A' for Active; 'I' for Inactive)
REMARK    1  A    between atoms: S_6  and  C_2 
REMARK    2  A    between atoms: C_9  and  S_6 
REMARK    3  A    between atoms: C_7  and  C_9 
ROOT
ATOM      1  N   UNL d   1      24.680  12.733  -0.867  0.00  0.00    -0.243 NA
ATOM      2  C   UNL d   1      24.027  12.507  -2.000  0.00  0.00     0.046 A 
ATOM      3  C   UNL d   1      23.473  12.681  -1.414  0.00  0.00     0.025 A 
ATOM      4  C   UNL d   1      24.768  12.539  -1.663  0.00  0.00     0.105 A 
ATOM      5  C   UNL d   1      23.877  12.822  -0.708  0.00  0.00     0.082 A 
ATOM      6  C   UNL d   1      22.653  12.729  -1.432  0.00  0.00     0.002 A 
ATOM      7  C   UNL d   1      23.458  13.012  -0.017  0.00  0.00     0.019 A 
ATOM      8  C   UNL d   1      22.218  12.921  -0.736  0.00  0.00     0.000 A 
ATOM      9  C   UNL d   1      22.625  13.060  -0.039  0.00  0.00     0.002 A 
ENDROOT
BRANCH   2  10
ATOM     10  S   UNL d   1      23.870  12.329  -2.796  0.00  0.00    -0.101 SA
BRANCH  10  11
ATOM     11  C   UNL d   1      24.494  12.189  -3.324  0.00  0.00     0.160 C 
BRANCH  11  12
ATOM     12  C   UNL d   1      24.393  12.296  -4.136  0.00  0.00     0.197 C 
ATOM     13  O   UNL d   1      24.767  12.939  -4.514  0.00  0.00    -0.647 OA
ATOM     14  O   UNL d   1      23.930  11.781  -4.582  0.00  0.00    -0.647 OA
ENDBRANCH  11  12
ENDBRANCH  10  11
ENDBRANCH   2  10
TORSDOF 3
ENDMDL
