MODEL 1
REMARK VINA RESULT:      80.3      0.000      0.000
REMARK  4 active torsions:
REMARK  status: ('A' for Active; 'I' for Inactive)
REMARK    1  A    between atoms: S_7  and  C_1 
REMARK       I    between atoms: N_5  and  C_9 
REMARK    2  A    between atoms: C_10  and  S_7 
REMARK    3  A    between atoms: C_15  and  N_8 
REMARK    4  A    between atoms: C_9  and  C_10 
ROOT
ATOM      1  N   UNL d   1      60.621  48.190  50.578  0.00  0.00    -0.269 N 
ATOM      2  N   UNL d   1      61.115  46.633  50.313  0.00  0.00    -0.301 N 
ATOM      3  C   UNL d   1      60.376  48.974  50.715  0.00  0.00     0.271 C 
ATOM      4  C   UNL d   1      60.251  47.729  49.996  0.00  0.00     0.102 A 
ATOM      5  C   UNL d   1      61.237  47.875  51.028  0.00  0.00     0.102 A 
ATOM      6  C   UNL d   1      61.481  47.097  50.894  0.00  0.00     0.100 A 
ATOM      7  C   UNL d   1      60.496  46.957  49.865  0.00  0.00     0.100 A 
ATOM      8  O   UNL d   1      60.748  49.430  51.297  0.00  0.00    -0.266 OA
ENDROOT
BRANCH   3   9
ATOM      9  C   UNL d   1      59.758  49.286  50.261  0.00  0.00     0.097 C 
BRANCH   9  10
ATOM     10  S   UNL d   1      59.137  49.676  50.641  0.00  0.00    -0.080 SA
BRANCH  10  11
ATOM     11  C   UNL d   1      58.382  49.680  50.292  0.00  0.00     0.049 A 
ATOM     12  C   UNL d   1      58.220  49.686  49.486  0.00  0.00     0.087 A 
ATOM     13  N   UNL d   1      57.402  49.689  49.386  0.00  0.00    -0.245 NA
ATOM     14  C   UNL d   1      58.786  49.687  48.887  0.00  0.00     0.021 C 
ATOM     15  C   UNL d   1      57.062  49.685  50.146  0.00  0.00     0.082 A 
ATOM     16  C   UNL d   1      57.671  49.680  50.700  0.00  0.00     0.025 A 
ATOM     17  C   UNL d   1      56.273  49.686  50.393  0.00  0.00     0.019 A 
ATOM     18  C   UNL d   1      57.491  49.676  51.501  0.00  0.00     0.002 A 
ATOM     19  C   UNL d   1      56.709  49.677  51.760  0.00  0.00     0.000 A 
ATOM     20  C   UNL d   1      56.098  49.682  51.192  0.00  0.00     0.002 A 
ENDBRANCH  10  11
ENDBRANCH   9  10
ENDBRANCH   3   9
BRANCH   2  21
ATOM     21  C   UNL d   1      61.364  45.859  50.186  0.00  0.00     0.064 A 
ATOM     22  C   UNL d   1      61.445  45.341  50.823  0.00  0.00     0.018 A 
ATOM     23  C   UNL d   1      61.698  44.557  50.689  0.00  0.00     0.002 A 
ATOM     24  C   UNL d   1      61.865  44.305  49.919  0.00  0.00     0.000 A 
ATOM     25  C   UNL d   1      61.783  44.824  49.286  0.00  0.00     0.002 A 
ATOM     26  C   UNL d   1      61.534  45.595  49.419  0.00  0.00     0.018 A 
ENDBRANCH   2  21
TORSDOF 4
ENDMDL
