MODEL 1
REMARK VINA RESULT:      -1.9      0.000      0.000
REMARK  7 active torsions:
REMARK  status: ('A' for Active; 'I' for Inactive)
REMARK    1  A    between atoms: S_2  and  N_1 
REMARK    2  A    between atoms: C_3  and  N_1 
REMARK       I    between atoms: C_4  and  N_1 
REMARK    3  A    between atoms: C_10  and  S_2 
REMARK    4  A    between atoms: C_15  and  C_4 
REMARK    5  A    between atoms: C_6  and  O_8 
REMARK    6  A    between atoms: C_18  and  C_6 
REMARK    7  A    between atoms: O_8  and  C_7 
ROOT
ATOM      1  C   UNL d   1     -39.089  14.779  19.228  0.00  0.00     0.078 A 
ATOM      2  C   UNL d   1     -38.703  14.100  18.978  0.00  0.00     0.019 A 
ATOM      3  C   UNL d   1     -38.571  14.585  17.675  0.00  0.00     0.103 A 
ATOM      4  C   UNL d   1     -38.448  14.001  18.219  0.00  0.00     0.024 A 
ATOM      5  C   UNL d   1     -39.215  15.370  18.685  0.00  0.00     0.020 A 
ATOM      6  C   UNL d   1     -38.958  15.272  17.918  0.00  0.00     0.026 A 
ATOM      7  C   UNL d   1     -38.581  13.506  19.538  0.00  0.00     0.002 A 
ATOM      8  C   UNL d   1     -38.059  13.315  17.969  0.00  0.00     0.002 A 
ATOM      9  C   UNL d   1     -38.195  12.828  19.288  0.00  0.00     0.000 A 
ATOM     10  C   UNL d   1     -37.940  12.729  18.528  0.00  0.00     0.000 A 
ENDROOT
BRANCH   1  11
ATOM     11  N   UNL d   1     -39.353  14.872  20.030  0.00  0.00    -0.198 N 
ATOM     12  C   UNL d   1     -38.835  15.231  20.591  0.00  0.00     0.274 C 
ATOM     13  O   UNL d   1     -38.092  15.482  20.358  0.00  0.00    -0.266 OA
BRANCH  11  14
ATOM     14  S   UNL d   1     -40.104  14.622  20.278  0.00  0.00     0.274 S 
ATOM     15  O   UNL d   1     -40.467  15.316  19.915  0.00  0.00    -0.200 OA
ATOM     16  O   UNL d   1     -39.752  13.961  20.623  0.00  0.00    -0.200 OA
BRANCH  14  17
ATOM     17  C   UNL d   1     -40.869  14.342  20.546  0.00  0.00     0.104 A 
ATOM     18  C   UNL d   1     -40.957  13.599  20.775  0.00  0.00     0.013 A 
ATOM     19  C   UNL d   1     -41.702  13.292  21.045  0.00  0.00     0.001 A 
ATOM     20  C   UNL d   1     -42.346  13.791  21.066  0.00  0.00     0.000 A 
ATOM     21  C   UNL d   1     -42.268  14.624  20.815  0.00  0.00     0.001 A 
ATOM     22  C   UNL d   1     -43.063  13.451  21.339  0.00  0.00     0.000 C 
ATOM     23  C   UNL d   1     -41.497  14.898  20.547  0.00  0.00     0.013 A 
ENDBRANCH  14  17
ENDBRANCH  11  14
BRANCH  12  24
ATOM     24  C   UNL d   1     -39.096  15.318  21.359  0.00  0.00     0.060 A 
ATOM     25  C   UNL d   1     -38.764  14.819  21.953  0.00  0.00     0.025 A 
ATOM     26  C   UNL d   1     -39.001  14.879  22.722  0.00  0.00     0.099 A 
ATOM     27  N   UNL d   1     -39.567  15.424  22.941  0.00  0.00    -0.242 NA
ATOM     28  C   UNL d   1     -39.901  15.922  22.363  0.00  0.00     0.099 A 
ATOM     29  C   UNL d   1     -39.676  15.872  21.601  0.00  0.00     0.025 A 
ENDBRANCH  12  24
ENDBRANCH   1  11
BRANCH   3  30
ATOM     30  O   UNL d   1     -38.306  14.492  16.873  0.00  0.00    -0.273 OA
BRANCH  30  31
ATOM     31  C   UNL d   1     -38.705  14.785  16.199  0.00  0.00     0.300 C 
ATOM     32  O   UNL d   1     -39.312  15.302  16.237  0.00  0.00    -0.259 OA
BRANCH  31  33
ATOM     33  C   UNL d   1     -38.453  14.524  15.462  0.00  0.00     0.067 A 
ATOM     34  C   UNL d   1     -38.258  15.050  14.845  0.00  0.00     0.026 A 
ATOM     35  C   UNL d   1     -38.000  14.740  14.092  0.00  0.00     0.099 A 
ATOM     36  N   UNL d   1     -37.945  13.960  13.976  0.00  0.00    -0.242 NA
ATOM     37  C   UNL d   1     -38.126  13.422  14.548  0.00  0.00     0.099 A 
ATOM     38  C   UNL d   1     -38.378  13.721  15.287  0.00  0.00     0.026 A 
ENDBRANCH  31  33
ENDBRANCH  30  31
ENDBRANCH   3  30
TORSDOF 7
ENDMDL
MODEL 2
REMARK VINA RESULT:      -1.8      5.911      9.085
REMARK  7 active torsions:
REMARK  status: ('A' for Active; 'I' for Inactive)
REMARK    1  A    between atoms: S_2  and  N_1 
REMARK    2  A    between atoms: C_3  and  N_1 
REMARK       I    between atoms: C_4  and  N_1 
REMARK    3  A    between atoms: C_10  and  S_2 
REMARK    4  A    between atoms: C_15  and  C_4 
REMARK    5  A    between atoms: C_6  and  O_8 
REMARK    6  A    between atoms: C_18  and  C_6 
REMARK    7  A    between atoms: O_8  and  C_7 
ROOT
ATOM      1  C   UNL d   1     -47.092  12.671  22.190  0.00  0.00     0.078 A 
ATOM      2  C   UNL d   1     -46.641  12.196  22.683  0.00  0.00     0.019 A 
ATOM      3  C   UNL d   1     -45.444  12.689  22.158  0.00  0.00     0.103 A 
ATOM      4  C   UNL d   1     -45.834  12.202  22.670  0.00  0.00     0.024 A 
ATOM      5  C   UNL d   1     -46.705  13.163  21.672  0.00  0.00     0.020 A 
ATOM      6  C   UNL d   1     -45.890  13.171  21.658  0.00  0.00     0.026 A 
ATOM      7  C   UNL d   1     -47.045  11.700  23.204  0.00  0.00     0.002 A 
ATOM      8  C   UNL d   1     -45.381  11.722  23.169  0.00  0.00     0.002 A 
ATOM      9  C   UNL d   1     -46.594  11.226  23.697  0.00  0.00     0.000 A 
ATOM     10  C   UNL d   1     -45.786  11.232  23.685  0.00  0.00     0.000 A 
ENDROOT
BRANCH   1  11
ATOM     11  N   UNL d   1     -47.941  12.657  22.211  0.00  0.00    -0.198 N 
ATOM     12  C   UNL d   1     -48.345  11.967  21.939  0.00  0.00     0.274 C 
ATOM     13  O   UNL d   1     -47.918  11.327  21.663  0.00  0.00    -0.266 OA
BRANCH  11  14
ATOM     14  S   UNL d   1     -48.386  13.300  22.489  0.00  0.00     0.274 S 
ATOM     15  O   UNL d   1     -48.546  12.883  23.228  0.00  0.00    -0.200 OA
ATOM     16  O   UNL d   1     -48.230  13.693  21.781  0.00  0.00    -0.200 OA
BRANCH  14  17
ATOM     17  C   UNL d   1     -48.840  13.977  22.754  0.00  0.00     0.104 A 
ATOM     18  C   UNL d   1     -49.267  13.932  23.409  0.00  0.00     0.013 A 
ATOM     19  C   UNL d   1     -49.727  14.585  23.697  0.00  0.00     0.001 A 
ATOM     20  C   UNL d   1     -49.723  15.282  23.275  0.00  0.00     0.000 A 
ATOM     21  C   UNL d   1     -49.254  15.353  22.542  0.00  0.00     0.001 A 
ATOM     22  C   UNL d   1     -50.190  15.904  23.592  0.00  0.00     0.000 C 
ATOM     23  C   UNL d   1     -48.800  14.668  22.282  0.00  0.00     0.013 A 
ENDBRANCH  14  17
ENDBRANCH  11  14
BRANCH  12  24
ATOM     24  C   UNL d   1     -49.160  11.961  21.963  0.00  0.00     0.060 A 
ATOM     25  C   UNL d   1     -49.582  12.199  21.272  0.00  0.00     0.025 A 
ATOM     26  C   UNL d   1     -50.389  12.205  21.263  0.00  0.00     0.099 A 
ATOM     27  N   UNL d   1     -50.814  11.980  21.921  0.00  0.00    -0.242 NA
ATOM     28  C   UNL d   1     -50.408  11.743  22.609  0.00  0.00     0.099 A 
ATOM     29  C   UNL d   1     -49.612  11.733  22.631  0.00  0.00     0.025 A 
ENDBRANCH  12  24
ENDBRANCH   1  11
BRANCH   3  30
ATOM     30  O   UNL d   1     -44.595  12.703  22.137  0.00  0.00    -0.273 OA
BRANCH  30  31
ATOM     31  C   UNL d   1     -44.133  12.787  21.444  0.00  0.00     0.300 C 
ATOM     32  O   UNL d   1     -44.427  12.699  20.707  0.00  0.00    -0.259 OA
BRANCH  31  33
ATOM     33  C   UNL d   1     -43.337  12.969  21.535  0.00  0.00     0.067 A 
ATOM     34  C   UNL d   1     -42.952  13.532  21.056  0.00  0.00     0.026 A 
ATOM     35  C   UNL d   1     -42.122  13.694  21.180  0.00  0.00     0.099 A 
ATOM     36  N   UNL d   1     -41.719  13.315  21.745  0.00  0.00    -0.242 NA
ATOM     37  C   UNL d   1     -42.058  12.766  22.227  0.00  0.00     0.099 A 
ATOM     38  C   UNL d   1     -42.870  12.604  22.108  0.00  0.00     0.026 A 
ENDBRANCH  31  33
ENDBRANCH  30  31
ENDBRANCH   3  30
TORSDOF 7
ENDMDL
MODEL 3
REMARK VINA RESULT:      -1.5      5.767      8.880
REMARK  7 active torsions:
REMARK  status: ('A' for Active; 'I' for Inactive)
REMARK    1  A    between atoms: S_2  and  N_1 
REMARK    2  A    between atoms: C_3  and  N_1 
REMARK       I    between atoms: C_4  and  N_1 
REMARK    3  A    between atoms: C_10  and  S_2 
REMARK    4  A    between atoms: C_15  and  C_4 
REMARK    5  A    between atoms: C_6  and  O_8 
REMARK    6  A    between atoms: C_18  and  C_6 
REMARK    7  A    between atoms: O_8  and  C_7 
ROOT
ATOM      1  C   UNL d   1     -46.959  13.589  22.426  0.00  0.00     0.078 A 
ATOM      2  C   UNL d   1     -46.720  12.908  22.815  0.00  0.00     0.019 A 
ATOM      3  C   UNL d   1     -45.447  12.959  22.244  0.00  0.00     0.103 A 
ATOM      4  C   UNL d   1     -45.981  12.596  22.728  0.00  0.00     0.024 A 
ATOM      5  C   UNL d   1     -46.425  13.959  21.937  0.00  0.00     0.020 A 
ATOM      6  C   UNL d   1     -45.678  13.645  21.848  0.00  0.00     0.026 A 
ATOM      7  C   UNL d   1     -47.271  12.543  23.309  0.00  0.00     0.002 A 
ATOM      8  C   UNL d   1     -45.742  11.909  23.122  0.00  0.00     0.002 A 
ATOM      9  C   UNL d   1     -47.032  11.862  23.698  0.00  0.00     0.000 A 
ATOM     10  C   UNL d   1     -46.292  11.550  23.611  0.00  0.00     0.000 A 
ENDROOT
BRANCH   1  11
ATOM     11  N   UNL d   1     -47.739  13.910  22.524  0.00  0.00    -0.198 N 
ATOM     12  C   UNL d   1     -47.837  14.613  22.980  0.00  0.00     0.274 C 
ATOM     13  O   UNL d   1     -47.186  14.974  23.317  0.00  0.00    -0.266 OA
BRANCH  11  14
ATOM     14  S   UNL d   1     -48.408  13.552  22.186  0.00  0.00     0.274 S 
ATOM     15  O   UNL d   1     -48.696  13.327  22.968  0.00  0.00    -0.200 OA
ATOM     16  O   UNL d   1     -48.127  13.770  21.442  0.00  0.00    -0.200 OA
BRANCH  14  17
ATOM     17  C   UNL d   1     -49.089  13.190  21.813  0.00  0.00     0.104 A 
ATOM     18  C   UNL d   1     -49.325  13.432  21.106  0.00  0.00     0.013 A 
ATOM     19  C   UNL d   1     -49.996  13.093  20.711  0.00  0.00     0.001 A 
ATOM     20  C   UNL d   1     -50.407  12.495  21.083  0.00  0.00     0.000 A 
ATOM     21  C   UNL d   1     -50.161  12.212  21.871  0.00  0.00     0.001 A 
ATOM     22  C   UNL d   1     -51.064  12.187  20.660  0.00  0.00     0.000 C 
ATOM     23  C   UNL d   1     -49.476  12.580  22.239  0.00  0.00     0.013 A 
ENDBRANCH  14  17
ENDBRANCH  11  14
BRANCH  12  24
ATOM     24  C   UNL d   1     -48.590  14.914  23.069  0.00  0.00     0.060 A 
ATOM     25  C   UNL d   1     -48.839  15.531  22.549  0.00  0.00     0.025 A 
ATOM     26  C   UNL d   1     -49.578  15.850  22.612  0.00  0.00     0.099 A 
ATOM     27  N   UNL d   1     -50.099  15.583  23.179  0.00  0.00    -0.242 NA
ATOM     28  C   UNL d   1     -49.864  14.976  23.698  0.00  0.00     0.099 A 
ATOM     29  C   UNL d   1     -49.138  14.653  23.646  0.00  0.00     0.025 A 
ENDBRANCH  12  24
ENDBRANCH   1  11
BRANCH   3  30
ATOM     30  O   UNL d   1     -44.666  12.639  22.146  0.00  0.00    -0.273 OA
BRANCH  30  31
ATOM     31  C   UNL d   1     -44.210  12.691  21.446  0.00  0.00     0.300 C 
ATOM     32  O   UNL d   1     -44.527  12.684  20.713  0.00  0.00    -0.259 OA
BRANCH  31  33
ATOM     33  C   UNL d   1     -43.394  12.751  21.525  0.00  0.00     0.067 A 
ATOM     34  C   UNL d   1     -42.970  12.330  22.106  0.00  0.00     0.026 A 
ATOM     35  C   UNL d   1     -42.122  12.420  22.156  0.00  0.00     0.099 A 
ATOM     36  N   UNL d   1     -41.738  12.897  21.657  0.00  0.00    -0.242 NA
ATOM     37  C   UNL d   1     -42.114  13.319  21.083  0.00  0.00     0.099 A 
ATOM     38  C   UNL d   1     -42.945  13.235  21.030  0.00  0.00     0.026 A 
ENDBRANCH  31  33
ENDBRANCH  30  31
ENDBRANCH   3  30
TORSDOF 7
ENDMDL
MODEL 4
REMARK VINA RESULT:      -0.4      1.120      2.598
REMARK  7 active torsions:
REMARK  status: ('A' for Active; 'I' for Inactive)
REMARK    1  A    between atoms: S_2  and  N_1 
REMARK    2  A    between atoms: C_3  and  N_1 
REMARK       I    between atoms: C_4  and  N_1 
REMARK    3  A    between atoms: C_10  and  S_2 
REMARK    4  A    between atoms: C_15  and  C_4 
REMARK    5  A    between atoms: C_6  and  O_8 
REMARK    6  A    between atoms: C_18  and  C_6 
REMARK    7  A    between atoms: O_8  and  C_7 
ROOT
ATOM      1  C   UNL d   1     -39.931  14.324  18.860  0.00  0.00     0.078 A 
ATOM      2  C   UNL d   1     -40.144  14.851  18.270  0.00  0.00     0.019 A 
ATOM      3  C   UNL d   1     -39.074  14.465  17.459  0.00  0.00     0.103 A 
ATOM      4  C   UNL d   1     -39.728  14.924  17.583  0.00  0.00     0.024 A 
ATOM      5  C   UNL d   1     -39.275  13.861  18.742  0.00  0.00     0.020 A 
ATOM      6  C   UNL d   1     -38.852  13.932  18.048  0.00  0.00     0.026 A 
ATOM      7  C   UNL d   1     -40.813  15.317  18.401  0.00  0.00     0.002 A 
ATOM      8  C   UNL d   1     -39.945  15.456  16.988  0.00  0.00     0.002 A 
ATOM      9  C   UNL d   1     -41.026  15.844  17.810  0.00  0.00     0.000 A 
ATOM     10  C   UNL d   1     -40.609  15.916  17.123  0.00  0.00     0.000 A 
ENDROOT
BRANCH   1  11
ATOM     11  N   UNL d   1     -40.377  14.256  19.580  0.00  0.00    -0.198 N 
ATOM     12  C   UNL d   1     -41.132  13.879  19.558  0.00  0.00     0.274 C 
ATOM     13  O   UNL d   1     -41.421  13.587  18.852  0.00  0.00    -0.266 OA
BRANCH  11  14
ATOM     14  S   UNL d   1     -40.094  14.549  20.303  0.00  0.00     0.274 S 
ATOM     15  O   UNL d   1     -40.801  15.035  20.395  0.00  0.00    -0.200 OA
ATOM     16  O   UNL d   1     -39.421  14.082  20.210  0.00  0.00    -0.200 OA
BRANCH  14  17
ATOM     17  C   UNL d   1     -39.780  14.836  21.047  0.00  0.00     0.104 A 
ATOM     18  C   UNL d   1     -39.729  15.606  21.181  0.00  0.00     0.013 A 
ATOM     19  C   UNL d   1     -39.422  15.921  21.908  0.00  0.00     0.001 A 
ATOM     20  C   UNL d   1     -39.173  15.402  22.484  0.00  0.00     0.000 A 
ATOM     21  C   UNL d   1     -39.221  14.540  22.355  0.00  0.00     0.001 A 
ATOM     22  C   UNL d   1     -38.877  15.752  23.188  0.00  0.00     0.000 C 
ATOM     23  C   UNL d   1     -39.538  14.259  21.605  0.00  0.00     0.013 A 
ENDBRANCH  14  17
ENDBRANCH  11  14
BRANCH  12  24
ATOM     24  C   UNL d   1     -41.554  13.817  20.253  0.00  0.00     0.060 A 
ATOM     25  C   UNL d   1     -41.522  13.088  20.678  0.00  0.00     0.025 A 
ATOM     26  C   UNL d   1     -41.928  12.996  21.369  0.00  0.00     0.099 A 
ATOM     27  N   UNL d   1     -42.378  13.604  21.672  0.00  0.00    -0.242 NA
ATOM     28  C   UNL d   1     -42.417  14.328  21.262  0.00  0.00     0.099 A 
ATOM     29  C   UNL d   1     -42.021  14.432  20.579  0.00  0.00     0.025 A 
ENDBRANCH  12  24
ENDBRANCH   1  11
BRANCH   3  30
ATOM     30  O   UNL d   1     -38.628  14.534  16.740  0.00  0.00    -0.273 OA
BRANCH  30  31
ATOM     31  C   UNL d   1     -38.402  13.892  16.252  0.00  0.00     0.300 C 
ATOM     32  O   UNL d   1     -38.328  13.143  16.518  0.00  0.00    -0.259 OA
BRANCH  31  33
ATOM     33  C   UNL d   1     -38.249  14.049  15.461  0.00  0.00     0.067 A 
ATOM     34  C   UNL d   1     -38.096  13.443  14.908  0.00  0.00     0.026 A 
ATOM     35  C   UNL d   1     -37.942  13.645  14.093  0.00  0.00     0.099 A 
ATOM     36  N   UNL d   1     -37.942  14.400  13.859  0.00  0.00    -0.242 NA
ATOM     37  C   UNL d   1     -38.085  15.011  14.364  0.00  0.00     0.099 A 
ATOM     38  C   UNL d   1     -38.237  14.818  15.163  0.00  0.00     0.026 A 
ENDBRANCH  31  33
ENDBRANCH  30  31
ENDBRANCH   3  30
TORSDOF 7
ENDMDL
MODEL 5
REMARK VINA RESULT:      -0.0      7.323      9.447
REMARK  7 active torsions:
REMARK  status: ('A' for Active; 'I' for Inactive)
REMARK    1  A    between atoms: S_2  and  N_1 
REMARK    2  A    between atoms: C_3  and  N_1 
REMARK       I    between atoms: C_4  and  N_1 
REMARK    3  A    between atoms: C_10  and  S_2 
REMARK    4  A    between atoms: C_15  and  C_4 
REMARK    5  A    between atoms: C_6  and  O_8 
REMARK    6  A    between atoms: C_18  and  C_6 
REMARK    7  A    between atoms: O_8  and  C_7 
ROOT
ATOM      1  C   UNL d   1     -47.011  13.056  23.014  0.00  0.00     0.078 A 
ATOM      2  C   UNL d   1     -46.287  13.179  22.649  0.00  0.00     0.019 A 
ATOM      3  C   UNL d   1     -45.719  12.063  23.268  0.00  0.00     0.103 A 
ATOM      4  C   UNL d   1     -45.653  12.696  22.771  0.00  0.00     0.024 A 
ATOM      5  C   UNL d   1     -47.084  12.420  23.516  0.00  0.00     0.020 A 
ATOM      6  C   UNL d   1     -46.444  11.931  23.640  0.00  0.00     0.026 A 
ATOM      7  C   UNL d   1     -46.225  13.828  22.143  0.00  0.00     0.002 A 
ATOM      8  C   UNL d   1     -44.923  12.823  22.401  0.00  0.00     0.002 A 
ATOM      9  C   UNL d   1     -45.501  13.951  21.778  0.00  0.00     0.000 A 
ATOM     10  C   UNL d   1     -44.866  13.467  21.899  0.00  0.00     0.000 A 
ENDROOT
BRANCH   1  11
ATOM     11  N   UNL d   1     -47.672  13.571  22.880  0.00  0.00    -0.198 N 
ATOM     12  C   UNL d   1     -47.627  14.371  23.144  0.00  0.00     0.274 C 
ATOM     13  O   UNL d   1     -46.953  14.638  23.522  0.00  0.00    -0.266 OA
BRANCH  11  14
ATOM     14  S   UNL d   1     -48.362  13.312  22.497  0.00  0.00     0.274 S 
ATOM     15  O   UNL d   1     -48.797  13.336  23.241  0.00  0.00    -0.200 OA
ATOM     16  O   UNL d   1     -47.940  13.290  21.788  0.00  0.00    -0.200 OA
BRANCH  14  17
ATOM     17  C   UNL d   1     -49.060  13.043  22.078  0.00  0.00     0.104 A 
ATOM     18  C   UNL d   1     -49.142  13.192  21.314  0.00  0.00     0.013 A 
ATOM     19  C   UNL d   1     -49.822  12.940  20.872  0.00  0.00     0.001 A 
ATOM     20  C   UNL d   1     -50.409  12.528  21.260  0.00  0.00     0.000 A 
ATOM     21  C   UNL d   1     -50.337  12.352  22.112  0.00  0.00     0.001 A 
ATOM     22  C   UNL d   1     -51.064  12.296  20.789  0.00  0.00     0.000 C 
ATOM     23  C   UNL d   1     -49.633  12.625  22.525  0.00  0.00     0.013 A 
ENDBRANCH  14  17
ENDBRANCH  11  14
BRANCH  12  24
ATOM     24  C   UNL d   1     -48.266  14.859  23.011  0.00  0.00     0.060 A 
ATOM     25  C   UNL d   1     -48.392  15.149  22.228  0.00  0.00     0.025 A 
ATOM     26  C   UNL d   1     -49.016  15.634  22.064  0.00  0.00     0.099 A 
ATOM     27  N   UNL d   1     -49.538  15.854  22.650  0.00  0.00    -0.242 NA
ATOM     28  C   UNL d   1     -49.424  15.575  23.426  0.00  0.00     0.099 A 
ATOM     29  C   UNL d   1     -48.812  15.096  23.601  0.00  0.00     0.025 A 
ENDBRANCH  12  24
ENDBRANCH   1  11
BRANCH   3  30
ATOM     30  O   UNL d   1     -45.057  11.548  23.403  0.00  0.00    -0.273 OA
BRANCH  30  31
ATOM     31  C   UNL d   1     -45.106  10.719  23.500  0.00  0.00     0.300 C 
ATOM     32  O   UNL d   1     -45.798  10.321  23.545  0.00  0.00    -0.259 OA
BRANCH  31  33
ATOM     33  C   UNL d   1     -44.403  10.297  23.553  0.00  0.00     0.067 A 
ATOM     34  C   UNL d   1     -43.657  10.670  23.528  0.00  0.00     0.026 A 
ATOM     35  C   UNL d   1     -42.948  10.197  23.585  0.00  0.00     0.099 A 
ATOM     36  N   UNL d   1     -42.994   9.411  23.661  0.00  0.00    -0.242 NA
ATOM     37  C   UNL d   1     -43.696   9.017  23.688  0.00  0.00     0.099 A 
ATOM     38  C   UNL d   1     -44.393   9.476  23.632  0.00  0.00     0.026 A 
ENDBRANCH  31  33
ENDBRANCH  30  31
ENDBRANCH   3  30
TORSDOF 7
ENDMDL
MODEL 6
REMARK VINA RESULT:       0.1      2.078      5.778
REMARK  7 active torsions:
REMARK  status: ('A' for Active; 'I' for Inactive)
REMARK    1  A    between atoms: S_2  and  N_1 
REMARK    2  A    between atoms: C_3  and  N_1 
REMARK       I    between atoms: C_4  and  N_1 
REMARK    3  A    between atoms: C_10  and  S_2 
REMARK    4  A    between atoms: C_15  and  C_4 
REMARK    5  A    between atoms: C_6  and  O_8 
REMARK    6  A    between atoms: C_18  and  C_6 
REMARK    7  A    between atoms: O_8  and  C_7 
ROOT
ATOM      1  C   UNL d   1     -41.237  14.055  20.073  0.00  0.00     0.078 A 
ATOM      2  C   UNL d   1     -41.548  14.612  20.587  0.00  0.00     0.019 A 
ATOM      3  C   UNL d   1     -42.490  13.711  21.087  0.00  0.00     0.103 A 
ATOM      4  C   UNL d   1     -42.161  14.448  21.085  0.00  0.00     0.024 A 
ATOM      5  C   UNL d   1     -41.564  13.311  20.071  0.00  0.00     0.020 A 
ATOM      6  C   UNL d   1     -42.183  13.143  20.574  0.00  0.00     0.026 A 
ATOM      7  C   UNL d   1     -41.208  15.364  20.580  0.00  0.00     0.002 A 
ATOM      8  C   UNL d   1     -42.474  15.013  21.603  0.00  0.00     0.002 A 
ATOM      9  C   UNL d   1     -41.519  15.922  21.094  0.00  0.00     0.000 A 
ATOM     10  C   UNL d   1     -42.133  15.757  21.593  0.00  0.00     0.000 A 
ENDROOT
BRANCH   1  11
ATOM     11  N   UNL d   1     -40.591  14.238  19.553  0.00  0.00    -0.198 N 
ATOM     12  C   UNL d   1     -39.802  14.098  19.818  0.00  0.00     0.274 C 
ATOM     13  O   UNL d   1     -39.670  13.791  20.563  0.00  0.00    -0.266 OA
BRANCH  11  14
ATOM     14  S   UNL d   1     -40.712  14.550  18.794  0.00  0.00     0.274 S 
ATOM     15  O   UNL d   1     -40.312  15.281  19.019  0.00  0.00    -0.200 OA
ATOM     16  O   UNL d   1     -41.093  13.850  18.584  0.00  0.00    -0.200 OA
BRANCH  14  17
ATOM     17  C   UNL d   1     -40.849  14.850  18.003  0.00  0.00     0.104 A 
ATOM     18  C   UNL d   1     -41.067  15.595  17.897  0.00  0.00     0.013 A 
ATOM     19  C   UNL d   1     -41.210  15.922  17.126  0.00  0.00     0.001 A 
ATOM     20  C   UNL d   1     -41.117  15.440  16.475  0.00  0.00     0.000 A 
ATOM     21  C   UNL d   1     -40.874  14.607  16.571  0.00  0.00     0.001 A 
ATOM     22  C   UNL d   1     -41.267  15.800  15.731  0.00  0.00     0.000 C 
ATOM     23  C   UNL d   1     -40.739  14.313  17.369  0.00  0.00     0.013 A 
ENDBRANCH  14  17
ENDBRANCH  11  14
BRANCH  12  24
ATOM     24  C   UNL d   1     -39.187  14.277  19.312  0.00  0.00     0.060 A 
ATOM     25  C   UNL d   1     -38.863  13.656  18.841  0.00  0.00     0.025 A 
ATOM     26  C   UNL d   1     -38.254  13.800  18.331  0.00  0.00     0.099 A 
ATOM     27  N   UNL d   1     -37.940  14.549  18.260  0.00  0.00    -0.242 NA
ATOM     28  C   UNL d   1     -38.252  15.169  18.720  0.00  0.00     0.099 A 
ATOM     29  C   UNL d   1     -38.852  15.040  19.226  0.00  0.00     0.025 A 
ENDBRANCH  12  24
ENDBRANCH   1  11
BRANCH   3  30
ATOM     30  O   UNL d   1     -43.136  13.527  21.608  0.00  0.00    -0.273 OA
BRANCH  30  31
ATOM     31  C   UNL d   1     -43.626  12.852  21.545  0.00  0.00     0.300 C 
ATOM     32  O   UNL d   1     -43.436  12.210  21.110  0.00  0.00    -0.259 OA
BRANCH  31  33
ATOM     33  C   UNL d   1     -44.338  12.856  21.956  0.00  0.00     0.067 A 
ATOM     34  C   UNL d   1     -44.556  12.243  22.476  0.00  0.00     0.026 A 
ATOM     35  C   UNL d   1     -45.305  12.283  22.885  0.00  0.00     0.099 A 
ATOM     36  N   UNL d   1     -45.791  12.896  22.773  0.00  0.00    -0.242 NA
ATOM     37  C   UNL d   1     -45.614  13.507  22.278  0.00  0.00     0.099 A 
ATOM     38  C   UNL d   1     -44.882  13.472  21.876  0.00  0.00     0.026 A 
ENDBRANCH  31  33
ENDBRANCH  30  31
ENDBRANCH   3  30
TORSDOF 7
ENDMDL
