MODEL 1
REMARK VINA RESULT:      -8.8      0.000      0.000
REMARK  5 active torsions:
REMARK  status: ('A' for Active; 'I' for Inactive)
REMARK    1  A    between atoms: N_2  and  S_1 
REMARK    2  A    between atoms: C_10  and  S_1 
REMARK    3  A    between atoms: C_4  and  N_12 
REMARK    4  A    between atoms: C_8  and  C_17 
REMARK       I    between atoms: N_11  and  C_8 
REMARK    5  A    between atoms: N_12  and  N_11 
ROOT
ATOM      1  C   UNL d   1      50.836  34.502  52.564  0.00  0.00     0.104 A 
ATOM      2  C   UNL d   1      52.347  34.222  53.153  0.00  0.00     0.059 A 
ATOM      3  C   UNL d   1      50.949  34.410  53.377  0.00  0.00     0.013 A 
ATOM      4  C   UNL d   1      51.479  34.454  52.049  0.00  0.00     0.013 A 
ATOM      5  C   UNL d   1      51.703  34.271  53.660  0.00  0.00     0.006 A 
ATOM      6  C   UNL d   1      52.235  34.313  52.348  0.00  0.00     0.006 A 
ENDROOT
BRANCH   2   7
ATOM      7  C   UNL d   1      53.102  34.083  53.444  0.00  0.00     0.297 C 
ATOM      8  N   UNL d   1      53.301  33.289  53.491  0.00  0.00    -0.104 NA
ATOM      9  O   UNL d   1      53.509  34.785  53.631  0.00  0.00    -0.264 OA
BRANCH   8  10
ATOM     10  N   UNL d   1      52.759  32.721  53.256  0.00  0.00    -0.118 NA
BRANCH  10  11
ATOM     11  C   UNL d   1      52.903  31.916  53.406  0.00  0.00     0.215 A 
ATOM     12  N   UNL d   1      52.744  31.294  52.896  0.00  0.00    -0.219 NA
ATOM     13  C   UNL d   1      52.968  30.591  53.254  0.00  0.00     0.090 A 
ATOM     14  C   UNL d   1      52.941  29.808  53.012  0.00  0.00     0.018 A 
ATOM     15  C   UNL d   1      53.273  30.785  54.003  0.00  0.00     0.050 A 
ATOM     16  C   UNL d   1      53.216  29.212  53.513  0.00  0.00     0.002 A 
ATOM     17  C   UNL d   1      52.636  29.618  52.265  0.00  0.00     0.002 C 
ATOM     18  C   UNL d   1      53.517  29.406  54.253  0.00  0.00     0.001 A 
ATOM     19  C   UNL d   1      53.551  30.196  54.511  0.00  0.00     0.008 A 
ATOM     20  S   UNL d   1      53.231  31.602  54.091  0.00  0.00    -0.045 SA
ENDBRANCH  10  11
ENDBRANCH   8  10
ENDBRANCH   2   7
BRANCH   1  21
ATOM     21  S   UNL d   1      50.084  34.642  52.264  0.00  0.00     0.271 S 
ATOM     22  O   UNL d   1      50.343  34.447  51.508  0.00  0.00    -0.200 OA
ATOM     23  O   UNL d   1      49.821  34.838  53.021  0.00  0.00    -0.200 OA
BRANCH  21  24
ATOM     24  N   UNL d   1      49.328  34.784  51.966  0.00  0.00    -0.229 N 
ATOM     25  C   UNL d   1      48.822  35.305  52.357  0.00  0.00     0.092 A 
ATOM     26  C   UNL d   1      48.066  35.446  52.058  0.00  0.00     0.018 A 
ATOM     27  C   UNL d   1      47.561  35.968  52.449  0.00  0.00     0.002 A 
ATOM     28  C   UNL d   1      47.809  35.070  51.369  0.00  0.00     0.003 A 
ATOM     29  C   UNL d   1      46.806  36.108  52.151  0.00  0.00     0.000 A 
ATOM     30  C   UNL d   1      46.555  35.728  51.461  0.00  0.00     0.000 A 
ATOM     31  C   UNL d   1      47.061  35.209  51.073  0.00  0.00     0.000 A 
ATOM     32  C   UNL d   1      48.322  34.545  50.977  0.00  0.00     0.020 A 
ATOM     33  C   UNL d   1      49.077  34.403  51.276  0.00  0.00     0.092 A 
ENDBRANCH  21  24
ENDBRANCH   1  21
TORSDOF 5
ENDMDL
MODEL 2
REMARK VINA RESULT:      -8.0      1.232      6.154
REMARK  5 active torsions:
REMARK  status: ('A' for Active; 'I' for Inactive)
REMARK    1  A    between atoms: N_2  and  S_1 
REMARK    2  A    between atoms: C_10  and  S_1 
REMARK    3  A    between atoms: C_4  and  N_12 
REMARK    4  A    between atoms: C_8  and  C_17 
REMARK       I    between atoms: N_11  and  C_8 
REMARK    5  A    between atoms: N_12  and  N_11 
ROOT
ATOM      1  C   UNL d   1      52.795  32.505  53.493  0.00  0.00     0.104 A 
ATOM      2  C   UNL d   1      52.526  34.118  53.304  0.00  0.00     0.059 A 
ATOM      3  C   UNL d   1      52.532  32.955  54.133  0.00  0.00     0.013 A 
ATOM      4  C   UNL d   1      52.922  32.863  52.760  0.00  0.00     0.013 A 
ATOM      5  C   UNL d   1      52.402  33.755  54.030  0.00  0.00     0.006 A 
ATOM      6  C   UNL d   1      52.786  33.672  52.669  0.00  0.00     0.006 A 
ENDROOT
BRANCH   2   7
ATOM      7  C   UNL d   1      52.393  34.922  53.206  0.00  0.00     0.297 C 
ATOM      8  N   UNL d   1      51.628  35.109  52.979  0.00  0.00    -0.104 NA
ATOM      9  O   UNL d   1      53.070  35.380  53.360  0.00  0.00    -0.264 OA
BRANCH   8  10
ATOM     10  N   UNL d   1      51.080  34.510  52.871  0.00  0.00    -0.118 NA
BRANCH  10  11
ATOM     11  C   UNL d   1      50.307  34.688  52.618  0.00  0.00     0.215 A 
ATOM     12  N   UNL d   1      49.751  35.123  53.035  0.00  0.00    -0.219 NA
ATOM     13  C   UNL d   1      49.063  35.171  52.592  0.00  0.00     0.090 A 
ATOM     14  C   UNL d   1      48.337  35.528  52.725  0.00  0.00     0.018 A 
ATOM     15  C   UNL d   1      49.199  34.755  51.884  0.00  0.00     0.050 A 
ATOM     16  C   UNL d   1      47.741  35.475  52.157  0.00  0.00     0.002 A 
ATOM     17  C   UNL d   1      48.205  35.942  53.432  0.00  0.00     0.002 C 
ATOM     18  C   UNL d   1      47.877  35.063  51.458  0.00  0.00     0.001 A 
ATOM     19  C   UNL d   1      48.608  34.696  51.310  0.00  0.00     0.008 A 
ATOM     20  S   UNL d   1      49.966  34.460  51.906  0.00  0.00    -0.045 SA
ENDBRANCH  10  11
ENDBRANCH   8  10
ENDBRANCH   2   7
BRANCH   1  21
ATOM     21  S   UNL d   1      52.931  31.699  53.581  0.00  0.00     0.271 S 
ATOM     22  O   UNL d   1      52.191  31.534  53.259  0.00  0.00    -0.200 OA
ATOM     23  O   UNL d   1      53.672  31.863  53.903  0.00  0.00    -0.200 OA
BRANCH  21  24
ATOM     24  N   UNL d   1      53.070  30.891  53.671  0.00  0.00    -0.229 N 
ATOM     25  C   UNL d   1      53.115  30.563  54.426  0.00  0.00     0.092 A 
ATOM     26  C   UNL d   1      53.254  29.755  54.516  0.00  0.00     0.018 A 
ATOM     27  C   UNL d   1      53.299  29.427  55.271  0.00  0.00     0.002 A 
ATOM     28  C   UNL d   1      53.349  29.268  53.854  0.00  0.00     0.003 A 
ATOM     29  C   UNL d   1      53.438  28.620  55.360  0.00  0.00     0.000 A 
ATOM     30  C   UNL d   1      53.532  28.139  54.694  0.00  0.00     0.000 A 
ATOM     31  C   UNL d   1      53.487  28.469  53.942  0.00  0.00     0.000 A 
ATOM     32  C   UNL d   1      53.304  29.603  53.094  0.00  0.00     0.020 A 
ATOM     33  C   UNL d   1      53.164  30.411  53.004  0.00  0.00     0.092 A 
ENDBRANCH  21  24
ENDBRANCH   1  21
TORSDOF 5
ENDMDL
MODEL 3
REMARK VINA RESULT:      -6.8      9.792     10.606
REMARK  5 active torsions:
REMARK  status: ('A' for Active; 'I' for Inactive)
REMARK    1  A    between atoms: N_2  and  S_1 
REMARK    2  A    between atoms: C_10  and  S_1 
REMARK    3  A    between atoms: C_4  and  N_12 
REMARK    4  A    between atoms: C_8  and  C_17 
REMARK       I    between atoms: N_11  and  C_8 
REMARK    5  A    between atoms: N_12  and  N_11 
ROOT
ATOM      1  C   UNL d   1      44.956  27.447  58.293  0.00  0.00     0.104 A 
ATOM      2  C   UNL d   1      44.943  25.802  58.338  0.00  0.00     0.059 A 
ATOM      3  C   UNL d   1      45.591  27.022  57.979  0.00  0.00     0.013 A 
ATOM      4  C   UNL d   1      44.317  27.047  58.629  0.00  0.00     0.013 A 
ATOM      5  C   UNL d   1      45.575  26.206  58.005  0.00  0.00     0.006 A 
ATOM      6  C   UNL d   1      44.314  26.222  58.650  0.00  0.00     0.006 A 
ENDROOT
BRANCH   2   7
ATOM      7  C   UNL d   1      44.933  24.981  58.361  0.00  0.00     0.297 C 
ATOM      8  N   UNL d   1      44.813  24.627  57.633  0.00  0.00    -0.104 NA
ATOM      9  O   UNL d   1      45.049  24.681  59.130  0.00  0.00    -0.264 OA
BRANCH   8  10
ATOM     10  N   UNL d   1      44.716  25.094  56.967  0.00  0.00    -0.118 NA
BRANCH  10  11
ATOM     11  C   UNL d   1      44.665  24.745  56.213  0.00  0.00     0.215 A 
ATOM     12  N   UNL d   1      44.818  23.960  56.033  0.00  0.00    -0.219 NA
ATOM     13  C   UNL d   1      44.703  23.843  55.230  0.00  0.00     0.090 A 
ATOM     14  C   UNL d   1      44.773  23.185  54.746  0.00  0.00     0.018 A 
ATOM     15  C   UNL d   1      44.474  24.575  54.907  0.00  0.00     0.050 A 
ATOM     16  C   UNL d   1      44.615  23.248  53.938  0.00  0.00     0.002 A 
ATOM     17  C   UNL d   1      45.001  22.457  55.071  0.00  0.00     0.002 C 
ATOM     18  C   UNL d   1      44.389  23.972  53.621  0.00  0.00     0.001 A 
ATOM     19  C   UNL d   1      44.315  24.648  54.100  0.00  0.00     0.008 A 
ATOM     20  S   UNL d   1      44.452  25.126  55.516  0.00  0.00    -0.045 SA
ENDBRANCH  10  11
ENDBRANCH   8  10
ENDBRANCH   2   7
BRANCH   1  21
ATOM     21  S   UNL d   1      44.957  28.268  58.274  0.00  0.00     0.271 S 
ATOM     22  O   UNL d   1      44.588  28.292  59.010  0.00  0.00    -0.200 OA
ATOM     23  O   UNL d   1      45.327  28.248  57.537  0.00  0.00    -0.200 OA
BRANCH  21  24
ATOM     24  N   UNL d   1      44.960  29.093  58.252  0.00  0.00    -0.229 N 
ATOM     25  C   UNL d   1      44.675  29.488  57.586  0.00  0.00     0.092 A 
ATOM     26  C   UNL d   1      44.677  30.312  57.565  0.00  0.00     0.018 A 
ATOM     27  C   UNL d   1      44.392  30.707  56.899  0.00  0.00     0.002 A 
ATOM     28  C   UNL d   1      44.963  30.749  58.206  0.00  0.00     0.003 A 
ATOM     29  C   UNL d   1      44.394  31.530  56.877  0.00  0.00     0.000 A 
ATOM     30  C   UNL d   1      44.682  31.961  57.522  0.00  0.00     0.000 A 
ATOM     31  C   UNL d   1      44.966  31.565  58.184  0.00  0.00     0.000 A 
ATOM     32  C   UNL d   1      45.250  30.348  58.875  0.00  0.00     0.020 A 
ATOM     33  C   UNL d   1      45.248  29.523  58.897  0.00  0.00     0.092 A 
ENDBRANCH  21  24
ENDBRANCH   1  21
TORSDOF 5
ENDMDL
MODEL 4
REMARK VINA RESULT:      -6.7     10.380     11.773
REMARK  5 active torsions:
REMARK  status: ('A' for Active; 'I' for Inactive)
REMARK    1  A    between atoms: N_2  and  S_1 
REMARK    2  A    between atoms: C_10  and  S_1 
REMARK    3  A    between atoms: C_4  and  N_12 
REMARK    4  A    between atoms: C_8  and  C_17 
REMARK       I    between atoms: N_11  and  C_8 
REMARK    5  A    between atoms: N_12  and  N_11 
ROOT
ATOM      1  C   UNL d   1      44.905  26.628  57.160  0.00  0.00     0.104 A 
ATOM      2  C   UNL d   1      45.087  28.258  57.033  0.00  0.00     0.059 A 
ATOM      3  C   UNL d   1      44.316  27.080  56.798  0.00  0.00     0.013 A 
ATOM      4  C   UNL d   1      45.583  26.993  57.458  0.00  0.00     0.013 A 
ATOM      5  C   UNL d   1      44.416  27.888  56.740  0.00  0.00     0.006 A 
ATOM      6  C   UNL d   1      45.671  27.811  57.392  0.00  0.00     0.006 A 
ENDROOT
BRANCH   2   7
ATOM      7  C   UNL d   1      45.181  29.071  56.971  0.00  0.00     0.297 C 
ATOM      8  N   UNL d   1      45.031  29.479  57.665  0.00  0.00    -0.104 NA
ATOM      9  O   UNL d   1      45.412  29.311  56.208  0.00  0.00    -0.264 OA
BRANCH   8  10
ATOM     10  N   UNL d   1      44.809  29.066  58.338  0.00  0.00    -0.118 NA
BRANCH  10  11
ATOM     11  C   UNL d   1      44.705  29.465  59.060  0.00  0.00     0.215 A 
ATOM     12  N   UNL d   1      44.736  29.128  59.807  0.00  0.00    -0.219 NA
ATOM     13  C   UNL d   1      44.606  29.710  60.369  0.00  0.00     0.090 A 
ATOM     14  C   UNL d   1      44.574  29.698  61.188  0.00  0.00     0.018 A 
ATOM     15  C   UNL d   1      44.491  30.424  59.958  0.00  0.00     0.050 A 
ATOM     16  C   UNL d   1      44.428  30.395  61.605  0.00  0.00     0.002 A 
ATOM     17  C   UNL d   1      44.688  28.984  61.595  0.00  0.00     0.002 C 
ATOM     18  C   UNL d   1      44.315  31.100  61.198  0.00  0.00     0.001 A 
ATOM     19  C   UNL d   1      44.345  31.127  60.367  0.00  0.00     0.008 A 
ATOM     20  S   UNL d   1      44.554  30.268  59.154  0.00  0.00    -0.045 SA
ENDBRANCH  10  11
ENDBRANCH   8  10
ENDBRANCH   2   7
BRANCH   1  21
ATOM     21  S   UNL d   1      44.820  25.813  57.227  0.00  0.00     0.271 S 
ATOM     22  O   UNL d   1      44.622  25.763  56.429  0.00  0.00    -0.200 OA
ATOM     23  O   UNL d   1      45.018  25.860  58.026  0.00  0.00    -0.200 OA
BRANCH  21  24
ATOM     24  N   UNL d   1      44.735  24.995  57.296  0.00  0.00    -0.229 N 
ATOM     25  C   UNL d   1      44.609  24.656  58.037  0.00  0.00     0.092 A 
ATOM     26  C   UNL d   1      44.524  23.839  58.107  0.00  0.00     0.018 A 
ATOM     27  C   UNL d   1      44.399  23.500  58.848  0.00  0.00     0.002 A 
ATOM     28  C   UNL d   1      44.564  23.353  57.439  0.00  0.00     0.003 A 
ATOM     29  C   UNL d   1      44.314  22.683  58.917  0.00  0.00     0.000 A 
ATOM     30  C   UNL d   1      44.355  22.204  58.244  0.00  0.00     0.000 A 
ATOM     31  C   UNL d   1      44.480  22.545  57.507  0.00  0.00     0.000 A 
ATOM     32  C   UNL d   1      44.690  23.699  56.693  0.00  0.00     0.020 A 
ATOM     33  C   UNL d   1      44.775  24.516  56.623  0.00  0.00     0.092 A 
ENDBRANCH  21  24
ENDBRANCH   1  21
TORSDOF 5
ENDMDL
MODEL 5
REMARK VINA RESULT:      -6.6     10.331     11.379
REMARK  5 active torsions:
REMARK  status: ('A' for Active; 'I' for Inactive)
REMARK    1  A    between atoms: N_2  and  S_1 
REMARK    2  A    between atoms: C_10  and  S_1 
REMARK    3  A    between atoms: C_4  and  N_12 
REMARK    4  A    between atoms: C_8  and  C_17 
REMARK       I    between atoms: N_11  and  C_8 
REMARK    5  A    between atoms: N_12  and  N_11 
ROOT
ATOM      1  C   UNL d   1      44.987  28.364  57.884  0.00  0.00     0.104 A 
ATOM      2  C   UNL d   1      45.149  29.930  58.365  0.00  0.00     0.059 A 
ATOM      3  C   UNL d   1      44.556  28.957  57.504  0.00  0.00     0.013 A 
ATOM      4  C   UNL d   1      45.498  28.556  58.504  0.00  0.00     0.013 A 
ATOM      5  C   UNL d   1      44.643  29.731  57.750  0.00  0.00     0.006 A 
ATOM      6  C   UNL d   1      45.576  29.342  58.742  0.00  0.00     0.006 A 
ENDROOT
BRANCH   2   7
ATOM      7  C   UNL d   1      45.233  30.710  58.607  0.00  0.00     0.297 C 
ATOM      8  N   UNL d   1      45.076  30.832  59.402  0.00  0.00    -0.104 NA
ATOM      9  O   UNL d   1      45.461  31.216  57.986  0.00  0.00    -0.264 OA
BRANCH   8  10
ATOM     10  N   UNL d   1      44.858  30.198  59.873  0.00  0.00    -0.118 NA
BRANCH  10  11
ATOM     11  C   UNL d   1      44.747  30.302  60.691  0.00  0.00     0.215 A 
ATOM     12  N   UNL d   1      44.799  29.718  61.264  0.00  0.00    -0.219 NA
ATOM     13  C   UNL d   1      44.652  30.050  61.999  0.00  0.00     0.090 A 
ATOM     14  C   UNL d   1      44.629  29.740  62.757  0.00  0.00     0.018 A 
ATOM     15  C   UNL d   1      44.505  30.860  61.876  0.00  0.00     0.050 A 
ATOM     16  C   UNL d   1      44.461  30.231  63.399  0.00  0.00     0.002 A 
ATOM     17  C   UNL d   1      44.775  28.932  62.877  0.00  0.00     0.002 C 
ATOM     18  C   UNL d   1      44.316  31.031  63.275  0.00  0.00     0.001 A 
ATOM     19  C   UNL d   1      44.336  31.359  62.511  0.00  0.00     0.008 A 
ATOM     20  S   UNL d   1      44.565  31.009  61.070  0.00  0.00    -0.045 SA
ENDBRANCH  10  11
ENDBRANCH   8  10
ENDBRANCH   2   7
BRANCH   1  21
ATOM     21  S   UNL d   1      44.910  27.580  57.649  0.00  0.00     0.271 S 
ATOM     22  O   UNL d   1      44.330  27.460  58.220  0.00  0.00    -0.200 OA
ATOM     23  O   UNL d   1      45.491  27.699  57.076  0.00  0.00    -0.200 OA
BRANCH  21  24
ATOM     24  N   UNL d   1      44.835  26.794  57.410  0.00  0.00    -0.229 N 
ATOM     25  C   UNL d   1      44.692  26.206  57.971  0.00  0.00     0.092 A 
ATOM     26  C   UNL d   1      44.617  25.420  57.733  0.00  0.00     0.018 A 
ATOM     27  C   UNL d   1      44.474  24.832  58.293  0.00  0.00     0.002 A 
ATOM     28  C   UNL d   1      44.684  25.214  56.934  0.00  0.00     0.003 A 
ATOM     29  C   UNL d   1      44.399  24.047  58.054  0.00  0.00     0.000 A 
ATOM     30  C   UNL d   1      44.467  23.849  57.255  0.00  0.00     0.000 A 
ATOM     31  C   UNL d   1      44.610  24.437  56.698  0.00  0.00     0.000 A 
ATOM     32  C   UNL d   1      44.828  25.810  56.372  0.00  0.00     0.020 A 
ATOM     33  C   UNL d   1      44.903  26.596  56.610  0.00  0.00     0.092 A 
ENDBRANCH  21  24
ENDBRANCH   1  21
TORSDOF 5
ENDMDL
MODEL 6
REMARK VINA RESULT:      -6.0      2.028      6.584
REMARK  5 active torsions:
REMARK  status: ('A' for Active; 'I' for Inactive)
REMARK    1  A    between atoms: N_2  and  S_1 
REMARK    2  A    between atoms: C_10  and  S_1 
REMARK    3  A    between atoms: C_4  and  N_12 
REMARK    4  A    between atoms: C_8  and  C_17 
REMARK       I    between atoms: N_11  and  C_8 
REMARK    5  A    between atoms: N_12  and  N_11 
ROOT
ATOM      1  C   UNL d   1      49.991  34.477  52.600  0.00  0.00     0.104 A 
ATOM      2  C   UNL d   1      48.644  35.090  51.880  0.00  0.00     0.059 A 
ATOM      3  C   UNL d   1      49.636  35.158  52.905  0.00  0.00     0.013 A 
ATOM      4  C   UNL d   1      49.671  34.106  51.935  0.00  0.00     0.013 A 
ATOM      5  C   UNL d   1      48.967  35.454  52.541  0.00  0.00     0.006 A 
ATOM      6  C   UNL d   1      48.995  34.417  51.578  0.00  0.00     0.006 A 
ENDROOT
BRANCH   2   7
ATOM      7  C   UNL d   1      47.972  35.394  51.519  0.00  0.00     0.297 C 
ATOM      8  N   UNL d   1      47.417  35.694  52.042  0.00  0.00    -0.104 NA
ATOM      9  O   UNL d   1      47.998  35.331  50.689  0.00  0.00    -0.264 OA
BRANCH   8  10
ATOM     10  N   UNL d   1      47.566  35.670  52.848  0.00  0.00    -0.118 NA
BRANCH  10  11
ATOM     11  C   UNL d   1      46.976  35.890  53.391  0.00  0.00     0.215 A 
ATOM     12  N   UNL d   1      47.097  36.136  54.164  0.00  0.00    -0.219 NA
ATOM     13  C   UNL d   1      46.372  36.299  54.508  0.00  0.00     0.090 A 
ATOM     14  C   UNL d   1      46.155  36.560  55.255  0.00  0.00     0.018 A 
ATOM     15  C   UNL d   1      45.789  36.150  53.934  0.00  0.00     0.050 A 
ATOM     16  C   UNL d   1      45.358  36.675  55.437  0.00  0.00     0.002 A 
ATOM     17  C   UNL d   1      46.739  36.708  55.826  0.00  0.00     0.002 C 
ATOM     18  C   UNL d   1      44.783  36.527  54.867  0.00  0.00     0.001 A 
ATOM     19  C   UNL d   1      44.989  36.262  54.106  0.00  0.00     0.008 A 
ATOM     20  S   UNL d   1      46.166  35.899  53.248  0.00  0.00    -0.045 SA
ENDBRANCH  10  11
ENDBRANCH   8  10
ENDBRANCH   2   7
BRANCH   1  21
ATOM     21  S   UNL d   1      50.664  34.166  52.954  0.00  0.00     0.271 S 
ATOM     22  O   UNL d   1      50.198  33.668  53.415  0.00  0.00    -0.200 OA
ATOM     23  O   UNL d   1      51.133  34.665  52.494  0.00  0.00    -0.200 OA
BRANCH  21  24
ATOM     24  N   UNL d   1      51.341  33.856  53.309  0.00  0.00    -0.229 N 
ATOM     25  C   UNL d   1      51.879  34.360  53.680  0.00  0.00     0.092 A 
ATOM     26  C   UNL d   1      52.556  34.050  54.035  0.00  0.00     0.018 A 
ATOM     27  C   UNL d   1      53.093  34.553  54.406  0.00  0.00     0.002 A 
ATOM     28  C   UNL d   1      52.702  33.236  54.022  0.00  0.00     0.003 A 
ATOM     29  C   UNL d   1      53.769  34.243  54.760  0.00  0.00     0.000 A 
ATOM     30  C   UNL d   1      53.909  33.428  54.743  0.00  0.00     0.000 A 
ATOM     31  C   UNL d   1      53.372  32.929  54.373  0.00  0.00     0.000 A 
ATOM     32  C   UNL d   1      52.158  32.731  53.647  0.00  0.00     0.020 A 
ATOM     33  C   UNL d   1      51.481  33.041  53.293  0.00  0.00     0.092 A 
ENDBRANCH  21  24
ENDBRANCH   1  21
TORSDOF 5
ENDMDL
