MODEL 1
REMARK VINA RESULT:      -4.7      0.000      0.000
REMARK  4 active torsions:
REMARK  status: ('A' for Active; 'I' for Inactive)
REMARK    1  A    between atoms: C_5  and  C_3 
REMARK    2  A    between atoms: S_8  and  C_4 
REMARK    3  A    between atoms: C_12  and  S_8 
REMARK    4  A    between atoms: C_10  and  C_12 
ROOT
ATOM      1  N   UNL d   1      56.863   0.680  32.565  0.00  0.00    -0.146 NA
ATOM      2  N   UNL d   1      57.291   0.499  31.884  0.00  0.00    -0.141 NA
ATOM      3  C   UNL d   1      56.343   0.122  32.890  0.00  0.00     0.121 A 
ATOM      4  C   UNL d   1      57.208  -0.231  31.521  0.00  0.00     0.133 A 
ATOM      5  C   UNL d   1      56.257  -0.616  32.526  0.00  0.00     0.025 A 
ATOM      6  C   UNL d   1      56.686  -0.793  31.847  0.00  0.00     0.029 A 
ENDROOT
BRANCH   4   7
ATOM      7  S   UNL d   1      57.636  -0.412  30.840  0.00  0.00    -0.064 SA
BRANCH   7   8
ATOM      8  C   UNL d   1      58.169   0.129  30.528  0.00  0.00     0.056 C 
BRANCH   8   9
ATOM      9  C   UNL d   1      58.600  -0.067  29.850  0.00  0.00     0.088 A 
ATOM     10  N   UNL d   1      59.184  -0.648  29.885  0.00  0.00    -0.243 NA
ATOM     11  C   UNL d   1      59.608  -0.837  29.205  0.00  0.00     0.099 A 
ATOM     12  C   UNL d   1      59.449  -0.450  28.499  0.00  0.00     0.021 A 
ATOM     13  C   UNL d   1      58.874   0.123  28.462  0.00  0.00     0.003 A 
ATOM     14  C   UNL d   1      58.445   0.318  29.137  0.00  0.00     0.020 A 
ENDBRANCH   8   9
ENDBRANCH   7   8
ENDBRANCH   4   7
BRANCH   3  15
ATOM     15  C   UNL d   1      55.915   0.303  33.572  0.00  0.00     0.101 A 
ATOM     16  N   UNL d   1      56.310   0.501  34.255  0.00  0.00    -0.242 NA
ATOM     17  C   UNL d   1      55.889   0.682  34.934  0.00  0.00     0.099 A 
ATOM     18  C   UNL d   1      55.057   0.662  34.922  0.00  0.00     0.021 A 
ATOM     19  C   UNL d   1      54.665   0.463  34.233  0.00  0.00     0.003 A 
ATOM     20  C   UNL d   1      55.085   0.280  33.545  0.00  0.00     0.021 A 
ENDBRANCH   3  15
TORSDOF 4
ENDMDL
MODEL 2
REMARK VINA RESULT:      -3.4      1.184      5.279
REMARK  4 active torsions:
REMARK  status: ('A' for Active; 'I' for Inactive)
REMARK    1  A    between atoms: C_5  and  C_3 
REMARK    2  A    between atoms: S_8  and  C_4 
REMARK    3  A    between atoms: C_12  and  S_8 
REMARK    4  A    between atoms: C_10  and  C_12 
ROOT
ATOM      1  N   UNL d   1      58.522  -1.000  29.912  0.00  0.00    -0.146 NA
ATOM      2  N   UNL d   1      57.864  -0.884  30.396  0.00  0.00    -0.141 NA
ATOM      3  C   UNL d   1      59.149  -0.457  29.926  0.00  0.00     0.121 A 
ATOM      4  C   UNL d   1      57.821  -0.234  30.893  0.00  0.00     0.133 A 
ATOM      5  C   UNL d   1      59.108   0.200  30.426  0.00  0.00     0.025 A 
ATOM      6  C   UNL d   1      58.450   0.313  30.908  0.00  0.00     0.029 A 
ENDROOT
BRANCH   4   7
ATOM      7  S   UNL d   1      57.163  -0.118  31.376  0.00  0.00    -0.064 SA
BRANCH   7   8
ATOM      8  C   UNL d   1      56.846  -0.743  31.803  0.00  0.00     0.056 C 
BRANCH   8   9
ATOM      9  C   UNL d   1      56.347  -0.588  32.444  0.00  0.00     0.088 A 
ATOM     10  N   UNL d   1      56.146  -1.194  32.967  0.00  0.00    -0.243 NA
ATOM     11  C   UNL d   1      55.648  -1.031  33.602  0.00  0.00     0.099 A 
ATOM     12  C   UNL d   1      55.356  -0.272  33.713  0.00  0.00     0.021 A 
ATOM     13  C   UNL d   1      55.552   0.326  33.199  0.00  0.00     0.003 A 
ATOM     14  C   UNL d   1      56.049   0.172  32.561  0.00  0.00     0.020 A 
ENDBRANCH   8   9
ENDBRANCH   7   8
ENDBRANCH   4   7
BRANCH   3  15
ATOM     15  C   UNL d   1      59.807  -0.573  29.442  0.00  0.00     0.101 A 
ATOM     16  N   UNL d   1      59.841  -1.226  28.958  0.00  0.00    -0.242 NA
ATOM     17  C   UNL d   1      60.492  -1.346  28.477  0.00  0.00     0.099 A 
ATOM     18  C   UNL d   1      61.118  -0.797  28.484  0.00  0.00     0.021 A 
ATOM     19  C   UNL d   1      61.079  -0.141  28.972  0.00  0.00     0.003 A 
ATOM     20  C   UNL d   1      60.424  -0.017  29.459  0.00  0.00     0.021 A 
ENDBRANCH   3  15
TORSDOF 4
ENDMDL
MODEL 3
REMARK VINA RESULT:      -2.7      9.887     10.740
REMARK  4 active torsions:
REMARK  status: ('A' for Active; 'I' for Inactive)
REMARK    1  A    between atoms: C_5  and  C_3 
REMARK    2  A    between atoms: S_8  and  C_4 
REMARK    3  A    between atoms: C_12  and  S_8 
REMARK    4  A    between atoms: C_10  and  C_12 
ROOT
ATOM      1  N   UNL d   1      57.849  -9.812  31.684  0.00  0.00    -0.146 NA
ATOM      2  N   UNL d   1      58.219  -9.812  32.422  0.00  0.00    -0.141 NA
ATOM      3  C   UNL d   1      58.303  -9.785  30.991  0.00  0.00     0.121 A 
ATOM      4  C   UNL d   1      59.035  -9.785  32.479  0.00  0.00     0.133 A 
ATOM      5  C   UNL d   1      59.128  -9.757  31.046  0.00  0.00     0.025 A 
ATOM      6  C   UNL d   1      59.494  -9.758  31.783  0.00  0.00     0.029 A 
ENDROOT
BRANCH   4   7
ATOM      7  S   UNL d   1      59.405  -9.785  33.216  0.00  0.00    -0.064 SA
BRANCH   7   8
ATOM      8  C   UNL d   1      59.107  -9.330  33.830  0.00  0.00     0.056 C 
BRANCH   8   9
ATOM      9  C   UNL d   1      59.557  -9.224  34.516  0.00  0.00     0.088 A 
ATOM     10  N   UNL d   1      60.125  -8.627  34.548  0.00  0.00    -0.243 NA
ATOM     11  C   UNL d   1      60.569  -8.528  35.234  0.00  0.00     0.099 A 
ATOM     12  C   UNL d   1      60.447  -9.020  35.879  0.00  0.00     0.021 A 
ATOM     13  C   UNL d   1      59.887  -9.609  35.850  0.00  0.00     0.003 A 
ATOM     14  C   UNL d   1      59.439  -9.715  35.168  0.00  0.00     0.020 A 
ENDBRANCH   8   9
ENDBRANCH   7   8
ENDBRANCH   4   7
BRANCH   3  15
ATOM     15  C   UNL d   1      57.934  -9.785  30.254  0.00  0.00     0.101 A 
ATOM     16  N   UNL d   1      58.384  -9.818  29.577  0.00  0.00    -0.242 NA
ATOM     17  C   UNL d   1      58.021  -9.818  28.843  0.00  0.00     0.099 A 
ATOM     18  C   UNL d   1      57.191  -9.784  28.792  0.00  0.00     0.021 A 
ATOM     19  C   UNL d   1      56.743  -9.751  29.476  0.00  0.00     0.003 A 
ATOM     20  C   UNL d   1      57.104  -9.750  30.218  0.00  0.00     0.021 A 
ENDBRANCH   3  15
TORSDOF 4
ENDMDL
MODEL 4
REMARK VINA RESULT:      -2.6      9.644      9.944
REMARK  4 active torsions:
REMARK  status: ('A' for Active; 'I' for Inactive)
REMARK    1  A    between atoms: C_5  and  C_3 
REMARK    2  A    between atoms: S_8  and  C_4 
REMARK    3  A    between atoms: C_12  and  S_8 
REMARK    4  A    between atoms: C_10  and  C_12 
ROOT
ATOM      1  N   UNL d   1      58.701  -9.469  33.629  0.00  0.00    -0.146 NA
ATOM      2  N   UNL d   1      58.572  -9.635  32.831  0.00  0.00    -0.141 NA
ATOM      3  C   UNL d   1      59.468  -9.309  33.901  0.00  0.00     0.121 A 
ATOM      4  C   UNL d   1      59.195  -9.644  32.300  0.00  0.00     0.133 A 
ATOM      5  C   UNL d   1      60.100  -9.317  33.367  0.00  0.00     0.025 A 
ATOM      6  C   UNL d   1      59.967  -9.483  32.572  0.00  0.00     0.029 A 
ENDROOT
BRANCH   4   7
ATOM      7  S   UNL d   1      59.066  -9.810  31.503  0.00  0.00    -0.064 SA
BRANCH   7   8
ATOM      8  C   UNL d   1      58.334  -9.662  31.161  0.00  0.00     0.056 C 
BRANCH   8   9
ATOM      9  C   UNL d   1      58.251  -9.705  30.340  0.00  0.00     0.088 A 
ATOM     10  N   UNL d   1      58.920  -9.723  29.857  0.00  0.00    -0.243 NA
ATOM     11  C   UNL d   1      58.828  -9.766  29.041  0.00  0.00     0.099 A 
ATOM     12  C   UNL d   1      58.077  -9.792  28.710  0.00  0.00     0.021 A 
ATOM     13  C   UNL d   1      57.417  -9.775  29.184  0.00  0.00     0.003 A 
ATOM     14  C   UNL d   1      57.499  -9.731  30.001  0.00  0.00     0.020 A 
ENDBRANCH   8   9
ENDBRANCH   7   8
ENDBRANCH   4   7
BRANCH   3  15
ATOM     15  C   UNL d   1      59.597  -9.143  34.698  0.00  0.00     0.101 A 
ATOM     16  N   UNL d   1      59.850  -8.402  34.920  0.00  0.00    -0.242 NA
ATOM     17  C   UNL d   1      59.980  -8.233  35.710  0.00  0.00     0.099 A 
ATOM     18  C   UNL d   1      59.853  -8.820  36.285  0.00  0.00     0.021 A 
ATOM     19  C   UNL d   1      59.598  -9.564  36.058  0.00  0.00     0.003 A 
ATOM     20  C   UNL d   1      59.466  -9.739  35.261  0.00  0.00     0.021 A 
ENDBRANCH   3  15
TORSDOF 4
ENDMDL
MODEL 5
REMARK VINA RESULT:      -2.5      9.761      9.983
REMARK  4 active torsions:
REMARK  status: ('A' for Active; 'I' for Inactive)
REMARK    1  A    between atoms: C_5  and  C_3 
REMARK    2  A    between atoms: S_8  and  C_4 
REMARK    3  A    between atoms: C_12  and  S_8 
REMARK    4  A    between atoms: C_10  and  C_12 
ROOT
ATOM      1  N   UNL d   1      60.337  -9.476  33.487  0.00  0.00    -0.146 NA
ATOM      2  N   UNL d   1      60.364  -9.619  32.675  0.00  0.00    -0.141 NA
ATOM      3  C   UNL d   1      59.607  -9.378  33.868  0.00  0.00     0.121 A 
ATOM      4  C   UNL d   1      59.673  -9.667  32.237  0.00  0.00     0.133 A 
ATOM      5  C   UNL d   1      58.908  -9.426  33.428  0.00  0.00     0.025 A 
ATOM      6  C   UNL d   1      58.939  -9.569  32.619  0.00  0.00     0.029 A 
ENDROOT
BRANCH   4   7
ATOM      7  S   UNL d   1      59.700  -9.811  31.426  0.00  0.00    -0.064 SA
BRANCH   7   8
ATOM      8  C   UNL d   1      60.416  -9.793  31.024  0.00  0.00     0.056 C 
BRANCH   8   9
ATOM      9  C   UNL d   1      60.421  -9.692  30.203  0.00  0.00     0.088 A 
ATOM     10  N   UNL d   1      61.115  -9.466  29.819  0.00  0.00    -0.243 NA
ATOM     11  C   UNL d   1      61.111  -9.368  29.002  0.00  0.00     0.099 A 
ATOM     12  C   UNL d   1      60.422  -9.495  28.574  0.00  0.00     0.021 A 
ATOM     13  C   UNL d   1      59.736  -9.717  28.951  0.00  0.00     0.003 A 
ATOM     14  C   UNL d   1      59.732  -9.818  29.768  0.00  0.00     0.020 A 
ENDBRANCH   8   9
ENDBRANCH   7   8
ENDBRANCH   4   7
BRANCH   3  15
ATOM     15  C   UNL d   1      59.581  -9.234  34.680  0.00  0.00     0.101 A 
ATOM     16  N   UNL d   1      59.303  -9.811  35.183  0.00  0.00    -0.242 NA
ATOM     17  C   UNL d   1      59.275  -9.672  35.989  0.00  0.00     0.099 A 
ATOM     18  C   UNL d   1      59.530  -8.941  36.292  0.00  0.00     0.021 A 
ATOM     19  C   UNL d   1      59.808  -8.364  35.783  0.00  0.00     0.003 A 
ATOM     20  C   UNL d   1      59.839  -8.499  34.968  0.00  0.00     0.021 A 
ENDBRANCH   3  15
TORSDOF 4
ENDMDL
