MODEL 1
REMARK VINA RESULT:      18.4      0.000      0.000
REMARK  4 active torsions:
REMARK  status: ('A' for Active; 'I' for Inactive)
REMARK    1  A    between atoms: N_6  and  C_1 
REMARK       I    between atoms: C_9  and  N_6 
REMARK    2  A    between atoms: C_12  and  C_9 
REMARK    3  A    between atoms: O_11  and  C_12 
REMARK    4  A    between atoms: C_15  and  O_11 
ROOT
ATOM      1  C   UNL d   1      45.470 -15.286  44.588  0.00  0.00     0.124 A 
ATOM      2  C   UNL d   1      44.909 -14.683  44.476  0.00  0.00     0.093 A 
ATOM      3  S   UNL d   1      46.187 -15.027  44.263  0.00  0.00    -0.067 SA
ATOM      4  C   UNL d   1      45.287 -14.060  44.084  0.00  0.00     0.018 A 
ATOM      5  C   UNL d   1      46.062 -14.276  43.958  0.00  0.00     0.032 A 
ATOM      6  C   UNL d   1      44.114 -14.712  44.720  0.00  0.00     0.103 C 
ATOM      7  N   UNL d   1      43.337 -14.733  44.954  0.00  0.00    -0.191 NA
ATOM      8  C   UNL d   1      44.929 -13.347  43.863  0.00  0.00     0.001 C 
ATOM      9  C   UNL d   1      46.637 -13.810  43.580  0.00  0.00     0.007 C 
ENDROOT
BRANCH   1  10
ATOM     10  N   UNL d   1      45.338 -16.005  44.953  0.00  0.00    -0.199 NA
ATOM     11  C   UNL d   1      45.577 -16.698  44.583  0.00  0.00     0.305 C 
ATOM     12  O   UNL d   1      45.443 -17.425  44.953  0.00  0.00    -0.263 OA
BRANCH  11  13
ATOM     13  C   UNL d   1      45.942 -16.681  43.860  0.00  0.00     0.185 C 
BRANCH  13  14
ATOM     14  O   UNL d   1      46.556 -17.183  43.685  0.00  0.00    -0.300 OA
BRANCH  14  15
ATOM     15  C   UNL d   1      46.421 -17.910  43.312  0.00  0.00     0.100 A 
ATOM     16  C   UNL d   1      46.237 -17.915  42.506  0.00  0.00     0.025 A 
ATOM     17  C   UNL d   1      46.104 -18.632  42.141  0.00  0.00     0.002 A 
ATOM     18  C   UNL d   1      46.153 -19.335  42.570  0.00  0.00     0.000 A 
ATOM     19  C   UNL d   1      46.336 -19.321  43.367  0.00  0.00     0.002 A 
ATOM     20  C   UNL d   1      46.470 -18.600  43.736  0.00  0.00     0.025 A 
ENDBRANCH  14  15
ENDBRANCH  13  14
ENDBRANCH  11  13
ENDBRANCH   1  10
TORSDOF 4
ENDMDL
MODEL 2
REMARK VINA RESULT:      19.8      1.189      1.821
REMARK  4 active torsions:
REMARK  status: ('A' for Active; 'I' for Inactive)
REMARK    1  A    between atoms: N_6  and  C_1 
REMARK       I    between atoms: C_9  and  N_6 
REMARK    2  A    between atoms: C_12  and  C_9 
REMARK    3  A    between atoms: O_11  and  C_12 
REMARK    4  A    between atoms: C_15  and  O_11 
ROOT
ATOM      1  C   UNL d   1      44.930 -13.831  44.560  0.00  0.00     0.124 A 
ATOM      2  C   UNL d   1      44.837 -13.333  43.901  0.00  0.00     0.093 A 
ATOM      3  S   UNL d   1      45.622 -13.603  44.953  0.00  0.00    -0.067 SA
ATOM      4  C   UNL d   1      45.474 -12.805  43.896  0.00  0.00     0.018 A 
ATOM      5  C   UNL d   1      45.946 -12.974  44.537  0.00  0.00     0.032 A 
ATOM      6  C   UNL d   1      44.212 -13.370  43.353  0.00  0.00     0.103 C 
ATOM      7  N   UNL d   1      43.606 -13.400  42.814  0.00  0.00    -0.191 NA
ATOM      8  C   UNL d   1      45.598 -12.211  43.332  0.00  0.00     0.001 C 
ATOM      9  C   UNL d   1      46.646 -12.574  44.739  0.00  0.00     0.007 C 
ENDROOT
BRANCH   1  10
ATOM     10  N   UNL d   1      44.427 -14.437  44.781  0.00  0.00    -0.199 NA
ATOM     11  C   UNL d   1      44.683 -15.215  44.730  0.00  0.00     0.305 C 
ATOM     12  O   UNL d   1      44.175 -15.828  44.953  0.00  0.00    -0.263 OA
BRANCH  11  13
ATOM     13  C   UNL d   1      45.427 -15.393  44.464  0.00  0.00     0.185 C 
BRANCH  13  14
ATOM     14  O   UNL d   1      45.865 -15.990  44.800  0.00  0.00    -0.300 OA
BRANCH  14  15
ATOM     15  C   UNL d   1      45.994 -16.702  44.400  0.00  0.00     0.100 A 
ATOM     16  C   UNL d   1      46.211 -17.370  44.838  0.00  0.00     0.025 A 
ATOM     17  C   UNL d   1      46.338 -18.071  44.442  0.00  0.00     0.002 A 
ATOM     18  C   UNL d   1      46.251 -18.110  43.622  0.00  0.00     0.000 A 
ATOM     19  C   UNL d   1      46.036 -17.446  43.197  0.00  0.00     0.002 A 
ATOM     20  C   UNL d   1      45.908 -16.739  43.594  0.00  0.00     0.025 A 
ENDBRANCH  14  15
ENDBRANCH  13  14
ENDBRANCH  11  13
ENDBRANCH   1  10
TORSDOF 4
ENDMDL
