MODEL 1
REMARK VINA RESULT:      -3.4      0.000      0.000
REMARK  1 active torsions:
REMARK  status: ('A' for Active; 'I' for Inactive)
REMARK    1  A    between atoms: C_2  and  C_1 
ROOT
ATOM      1  C   UNL d   1      32.885  20.167 -22.006  0.00  0.00     0.087 A 
ATOM      2  C   UNL d   1      33.123  19.572 -21.486  0.00  0.00     0.302 A 
ATOM      3  C   UNL d   1      32.762  20.003 -22.809  0.00  0.00     0.009 A 
ATOM      4  O   UNL d   1      33.240  18.811 -21.768  0.00  0.00    -0.273 OA
ATOM      5  C   UNL d   1      33.123  18.633 -22.561  0.00  0.00     0.106 A 
ATOM      6  C   UNL d   1      32.884  19.228 -23.080  0.00  0.00     0.023 A 
ATOM      7  C   UNL d   1      33.239  17.872 -22.842  0.00  0.00     0.067 A 
ATOM      8  O   UNL d   1      33.241  19.750 -20.694  0.00  0.00    -0.259 OA
ATOM      9  C   UNL d   1      32.762  19.063 -23.884  0.00  0.00     0.005 A 
ATOM     10  C   UNL d   1      33.122  17.694 -23.635  0.00  0.00     0.198 A 
ATOM     11  C   UNL d   1      32.883  18.289 -24.155  0.00  0.00     0.042 A 
ATOM     12  O   UNL d   1      33.239  16.933 -23.917  0.00  0.00    -0.286 OA
ENDROOT
BRANCH   1  13
ATOM     13  C   UNL d   1      32.763  20.932 -21.746  0.00  0.00     0.116 A 
ATOM     14  N   UNL d   1      32.243  21.220 -21.192  0.00  0.00    -0.238 NA
ATOM     15  C   UNL d   1      32.336  22.028 -21.132  0.00  0.00     0.088 A 
ATOM     16  C   UNL d   1      31.949  22.587 -20.655  0.00  0.00     0.020 A 
ATOM     17  C   UNL d   1      32.916  22.244 -21.649  0.00  0.00     0.049 A 
ATOM     18  C   UNL d   1      32.180  23.384 -20.729  0.00  0.00     0.002 A 
ATOM     19  C   UNL d   1      32.771  23.605 -21.257  0.00  0.00     0.001 A 
ATOM     20  C   UNL d   1      33.143  23.028 -21.722  0.00  0.00     0.008 A 
ATOM     21  S   UNL d   1      33.198  21.583 -22.043  0.00  0.00    -0.066 SA
ENDBRANCH   1  13
TORSDOF 1
ENDMDL
MODEL 2
REMARK VINA RESULT:      -3.3      1.876      4.723
REMARK  1 active torsions:
REMARK  status: ('A' for Active; 'I' for Inactive)
REMARK    1  A    between atoms: C_2  and  C_1 
ROOT
ATOM      1  C   UNL d   1      32.894  19.104 -23.113  0.00  0.00     0.087 A 
ATOM      2  C   UNL d   1      33.124  19.663 -23.675  0.00  0.00     0.302 A 
ATOM      3  C   UNL d   1      32.777  19.322 -22.322  0.00  0.00     0.009 A 
ATOM      4  O   UNL d   1      33.238  20.442 -23.447  0.00  0.00    -0.273 OA
ATOM      5  C   UNL d   1      33.126  20.674 -22.668  0.00  0.00     0.106 A 
ATOM      6  C   UNL d   1      32.896  20.115 -22.106  0.00  0.00     0.023 A 
ATOM      7  C   UNL d   1      33.239  21.453 -22.440  0.00  0.00     0.067 A 
ATOM      8  O   UNL d   1      33.236  19.432 -24.454  0.00  0.00    -0.259 OA
ATOM      9  C   UNL d   1      32.778  20.333 -21.315  0.00  0.00     0.005 A 
ATOM     10  C   UNL d   1      33.127  21.684 -21.660  0.00  0.00     0.198 A 
ATOM     11  C   UNL d   1      32.897  21.125 -21.099  0.00  0.00     0.042 A 
ATOM     12  O   UNL d   1      33.240  22.464 -21.433  0.00  0.00    -0.286 OA
ENDROOT
BRANCH   1  13
ATOM     13  C   UNL d   1      32.776  18.322 -23.319  0.00  0.00     0.116 A 
ATOM     14  N   UNL d   1      32.237  17.991 -23.830  0.00  0.00    -0.238 NA
ATOM     15  C   UNL d   1      32.344  17.182 -23.844  0.00  0.00     0.088 A 
ATOM     16  C   UNL d   1      31.946  16.588 -24.266  0.00  0.00     0.020 A 
ATOM     17  C   UNL d   1      32.950  17.009 -23.341  0.00  0.00     0.049 A 
ATOM     18  C   UNL d   1      32.195  15.801 -24.154  0.00  0.00     0.002 A 
ATOM     19  C   UNL d   1      32.815  15.624 -23.640  0.00  0.00     0.001 A 
ATOM     20  C   UNL d   1      33.195  16.235 -23.230  0.00  0.00     0.008 A 
ATOM     21  S   UNL d   1      33.236  17.698 -23.002  0.00  0.00    -0.066 SA
ENDBRANCH   1  13
TORSDOF 1
ENDMDL
MODEL 3
REMARK VINA RESULT:      -2.4      1.349      1.946
REMARK  1 active torsions:
REMARK  status: ('A' for Active; 'I' for Inactive)
REMARK    1  A    between atoms: C_2  and  C_1 
ROOT
ATOM      1  C   UNL d   1      33.023  19.280 -23.083  0.00  0.00     0.087 A 
ATOM      2  C   UNL d   1      33.151  19.463 -23.877  0.00  0.00     0.302 A 
ATOM      3  C   UNL d   1      32.932  18.492 -22.840  0.00  0.00     0.009 A 
ATOM      4  O   UNL d   1      33.189  18.860 -24.431  0.00  0.00    -0.273 OA
ATOM      5  C   UNL d   1      33.101  18.075 -24.205  0.00  0.00     0.106 A 
ATOM      6  C   UNL d   1      32.973  17.892 -23.411  0.00  0.00     0.023 A 
ATOM      7  C   UNL d   1      33.139  17.472 -24.759  0.00  0.00     0.067 A 
ATOM      8  O   UNL d   1      33.239  20.247 -24.103  0.00  0.00    -0.259 OA
ATOM      9  C   UNL d   1      32.882  17.105 -23.168  0.00  0.00     0.005 A 
ATOM     10  C   UNL d   1      33.051  16.687 -24.534  0.00  0.00     0.198 A 
ATOM     11  C   UNL d   1      32.923  16.504 -23.739  0.00  0.00     0.042 A 
ATOM     12  O   UNL d   1      33.089  16.084 -25.087  0.00  0.00    -0.286 OA
ENDROOT
BRANCH   1  13
ATOM     13  C   UNL d   1      32.982  19.866 -22.515  0.00  0.00     0.116 A 
ATOM     14  N   UNL d   1      32.723  20.634 -22.573  0.00  0.00    -0.238 NA
ATOM     15  C   UNL d   1      32.794  20.996 -21.845  0.00  0.00     0.088 A 
ATOM     16  C   UNL d   1      32.611  21.769 -21.602  0.00  0.00     0.020 A 
ATOM     17  C   UNL d   1      33.097  20.452 -21.333  0.00  0.00     0.049 A 
ATOM     18  C   UNL d   1      32.752  21.966 -20.805  0.00  0.00     0.002 A 
ATOM     19  C   UNL d   1      33.061  21.411 -20.281  0.00  0.00     0.001 A 
ATOM     20  C   UNL d   1      33.236  20.647 -20.549  0.00  0.00     0.008 A 
ATOM     21  S   UNL d   1      33.223  19.742 -21.722  0.00  0.00    -0.066 SA
ENDBRANCH   1  13
TORSDOF 1
ENDMDL
MODEL 4
REMARK VINA RESULT:      -2.3      1.695      4.511
REMARK  1 active torsions:
REMARK  status: ('A' for Active; 'I' for Inactive)
REMARK    1  A    between atoms: C_2  and  C_1 
ROOT
ATOM      1  C   UNL d   1      33.236  20.806 -22.095  0.00  0.00     0.087 A 
ATOM      2  C   UNL d   1      33.237  21.516 -22.513  0.00  0.00     0.302 A 
ATOM      3  C   UNL d   1      33.235  20.803 -21.266  0.00  0.00     0.009 A 
ATOM      4  O   UNL d   1      33.237  22.227 -22.105  0.00  0.00    -0.273 OA
ATOM      5  C   UNL d   1      33.237  22.241 -21.284  0.00  0.00     0.106 A 
ATOM      6  C   UNL d   1      33.236  21.530 -20.865  0.00  0.00     0.023 A 
ATOM      7  C   UNL d   1      33.238  22.952 -20.875  0.00  0.00     0.067 A 
ATOM      8  O   UNL d   1      33.237  21.503 -23.334  0.00  0.00    -0.259 OA
ATOM      9  C   UNL d   1      33.236  21.527 -20.036  0.00  0.00     0.005 A 
ATOM     10  C   UNL d   1      33.238  22.965 -20.055  0.00  0.00     0.198 A 
ATOM     11  C   UNL d   1      33.237  22.254 -19.636  0.00  0.00     0.042 A 
ATOM     12  O   UNL d   1      33.238  23.676 -19.646  0.00  0.00    -0.286 OA
ENDROOT
BRANCH   1  13
ATOM     13  C   UNL d   1      33.235  20.086 -22.482  0.00  0.00     0.116 A 
ATOM     14  N   UNL d   1      33.229  19.920 -23.278  0.00  0.00    -0.238 NA
ATOM     15  C   UNL d   1      33.231  19.111 -23.383  0.00  0.00     0.088 A 
ATOM     16  C   UNL d   1      33.227  18.652 -24.074  0.00  0.00     0.020 A 
ATOM     17  C   UNL d   1      33.237  18.772 -22.651  0.00  0.00     0.049 A 
ATOM     18  C   UNL d   1      33.230  17.823 -23.988  0.00  0.00     0.002 A 
ATOM     19  C   UNL d   1      33.237  17.477 -23.241  0.00  0.00     0.001 A 
ATOM     20  C   UNL d   1      33.241  17.958 -22.566  0.00  0.00     0.008 A 
ATOM     21  S   UNL d   1      33.240  19.355 -22.074  0.00  0.00    -0.066 SA
ENDBRANCH   1  13
TORSDOF 1
ENDMDL
MODEL 5
REMARK VINA RESULT:      -2.2      3.952      5.481
REMARK  1 active torsions:
REMARK  status: ('A' for Active; 'I' for Inactive)
REMARK    1  A    between atoms: C_2  and  C_1 
ROOT
ATOM      1  C   UNL d   1      30.190  16.806 -24.151  0.00  0.00     0.087 A 
ATOM      2  C   UNL d   1      30.130  16.044 -24.462  0.00  0.00     0.302 A 
ATOM      3  C   UNL d   1      29.550  17.153 -23.754  0.00  0.00     0.009 A 
ATOM      4  O   UNL d   1      29.429  15.627 -24.378  0.00  0.00    -0.273 OA
ATOM      5  C   UNL d   1      28.787  15.957 -23.988  0.00  0.00     0.106 A 
ATOM      6  C   UNL d   1      28.847  16.719 -23.677  0.00  0.00     0.023 A 
ATOM      7  C   UNL d   1      28.086  15.540 -23.904  0.00  0.00     0.067 A 
ATOM      8  O   UNL d   1      30.772  15.714 -24.852  0.00  0.00    -0.259 OA
ATOM      9  C   UNL d   1      28.207  17.066 -23.280  0.00  0.00     0.005 A 
ATOM     10  C   UNL d   1      27.444  15.870 -23.514  0.00  0.00     0.198 A 
ATOM     11  C   UNL d   1      27.504  16.632 -23.202  0.00  0.00     0.042 A 
ATOM     12  O   UNL d   1      26.743  15.453 -23.430  0.00  0.00    -0.286 OA
ENDROOT
BRANCH   1  13
ATOM     13  C   UNL d   1      30.879  17.239 -24.224  0.00  0.00     0.116 A 
ATOM     14  N   UNL d   1      31.188  17.627 -24.868  0.00  0.00    -0.238 NA
ATOM     15  C   UNL d   1      31.893  17.979 -24.655  0.00  0.00     0.088 A 
ATOM     16  C   UNL d   1      32.427  18.437 -25.096  0.00  0.00     0.020 A 
ATOM     17  C   UNL d   1      32.023  17.810 -23.877  0.00  0.00     0.049 A 
ATOM     18  C   UNL d   1      33.108  18.719 -24.707  0.00  0.00     0.002 A 
ATOM     19  C   UNL d   1      33.241  18.546 -23.913  0.00  0.00     0.001 A 
ATOM     20  C   UNL d   1      32.693  18.087 -23.495  0.00  0.00     0.008 A 
ATOM     21  S   UNL d   1      31.410  17.352 -23.585  0.00  0.00    -0.066 SA
ENDBRANCH   1  13
TORSDOF 1
ENDMDL
MODEL 6
REMARK VINA RESULT:      -1.7      2.571      5.131
REMARK  1 active torsions:
REMARK  status: ('A' for Active; 'I' for Inactive)
REMARK    1  A    between atoms: C_2  and  C_1 
ROOT
ATOM      1  C   UNL d   1      33.092  22.477 -20.018  0.00  0.00     0.087 A 
ATOM      2  C   UNL d   1      32.998  23.297 -20.017  0.00  0.00     0.302 A 
ATOM      3  C   UNL d   1      33.158  22.058 -19.306  0.00  0.00     0.009 A 
ATOM      4  O   UNL d   1      32.970  23.700 -19.303  0.00  0.00    -0.273 OA
ATOM      5  C   UNL d   1      33.034  23.298 -18.590  0.00  0.00     0.106 A 
ATOM      6  C   UNL d   1      33.128  22.479 -18.592  0.00  0.00     0.023 A 
ATOM      7  C   UNL d   1      33.006  23.701 -17.876  0.00  0.00     0.067 A 
ATOM      8  O   UNL d   1      32.934  23.699 -20.729  0.00  0.00    -0.259 OA
ATOM      9  C   UNL d   1      33.194  22.059 -17.880  0.00  0.00     0.005 A 
ATOM     10  C   UNL d   1      33.070  23.299 -17.163  0.00  0.00     0.198 A 
ATOM     11  C   UNL d   1      33.164  22.480 -17.165  0.00  0.00     0.042 A 
ATOM     12  O   UNL d   1      33.043  23.702 -16.450  0.00  0.00    -0.286 OA
ENDROOT
BRANCH   1  13
ATOM     13  C   UNL d   1      33.122  22.057 -20.718  0.00  0.00     0.116 A 
ATOM     14  N   UNL d   1      33.146  22.320 -21.487  0.00  0.00    -0.238 NA
ATOM     15  C   UNL d   1      33.172  21.677 -21.989  0.00  0.00     0.088 A 
ATOM     16  C   UNL d   1      33.202  21.635 -22.818  0.00  0.00     0.020 A 
ATOM     17  C   UNL d   1      33.165  21.012 -21.532  0.00  0.00     0.049 A 
ATOM     18  C   UNL d   1      33.224  20.879 -23.166  0.00  0.00     0.002 A 
ATOM     19  C   UNL d   1      33.217  20.200 -22.699  0.00  0.00     0.001 A 
ATOM     20  C   UNL d   1      33.187  20.269 -21.875  0.00  0.00     0.008 A 
ATOM     21  S   UNL d   1      33.134  21.219 -20.740  0.00  0.00    -0.066 SA
ENDBRANCH   1  13
TORSDOF 1
ENDMDL
