MODEL 1
REMARK VINA RESULT:      -5.2      0.000      0.000
REMARK  6 active torsions:
REMARK  status: ('A' for Active; 'I' for Inactive)
REMARK    1  A    between atoms: N_2  and  C_1 
REMARK    2  A    between atoms: C_8  and  C_5 
REMARK    3  A    between atoms: C_6  and  C_9 
REMARK       I    between atoms: N_13  and  C_6 
REMARK    4  A    between atoms: C_9  and  C_8 
REMARK    5  A    between atoms: C_14  and  C_11 
REMARK    6  A    between atoms: C_16  and  N_13 
ROOT
ATOM      1  C   UNL d   1      57.751   0.093  30.760  0.00  0.00     0.279 C 
ATOM      2  N   UNL d   1      57.777  -0.450  30.148  0.00  0.00    -0.208 NA
ATOM      3  O   UNL d   1      58.387   0.623  30.847  0.00  0.00    -0.265 OA
ENDROOT
BRANCH   1   4
ATOM      4  C   UNL d   1      57.121   0.113  31.269  0.00  0.00     0.063 C 
BRANCH   4   5
ATOM      5  C   UNL d   1      57.217  -0.150  32.054  0.00  0.00     0.011 C 
BRANCH   5   6
ATOM      6  C   UNL d   1      56.549  -0.194  32.571  0.00  0.00     0.031 A 
ATOM      7  S   UNL d   1      56.166   0.372  33.034  0.00  0.00    -0.064 SA
ATOM      8  C   UNL d   1      55.557   0.000  33.413  0.00  0.00     0.156 A 
ATOM      9  C   UNL d   1      55.549  -0.793  33.197  0.00  0.00     0.031 A 
ATOM     10  C   UNL d   1      56.177  -0.909  32.666  0.00  0.00     0.009 A 
BRANCH   8  11
ATOM     11  N   UNL d   1      55.007   0.353  33.948  0.00  0.00    -0.107 N 
ATOM     12  O   UNL d   1      55.182   0.367  34.765  0.00  0.00    -0.531 OA
ATOM     13  O   UNL d   1      54.301   0.682  33.675  0.00  0.00    -0.531 OA
ENDBRANCH   8  11
ENDBRANCH   5   6
ENDBRANCH   4   5
ENDBRANCH   1   4
BRANCH   2  14
ATOM     14  C   UNL d   1      58.409  -0.481  29.625  0.00  0.00     0.085 A 
ATOM     15  C   UNL d   1      58.821  -1.165  29.510  0.00  0.00     0.022 A 
ATOM     16  C   UNL d   1      59.462  -1.194  28.978  0.00  0.00     0.041 A 
ATOM     17  C   UNL d   1      59.679  -0.516  28.563  0.00  0.00     0.003 A 
ATOM     18  C   UNL d   1      59.247   0.182  28.689  0.00  0.00     0.002 A 
ATOM     19  C   UNL d   1      58.621   0.202  29.212  0.00  0.00     0.019 A 
BRANCH  16  20
ATOM     20  C   UNL d   1      59.885  -1.893  28.860  0.00  0.00     0.196 C 
ATOM     21  O   UNL d   1      59.488  -2.577  28.682  0.00  0.00    -0.287 OA
ATOM     22  C   UNL d   1      60.722  -1.911  28.922  0.00  0.00     0.045 C 
ENDBRANCH  16  20
ENDBRANCH   2  14
TORSDOF 6
ENDMDL
MODEL 2
REMARK VINA RESULT:      -4.2      1.701      5.598
REMARK  6 active torsions:
REMARK  status: ('A' for Active; 'I' for Inactive)
REMARK    1  A    between atoms: N_2  and  C_1 
REMARK    2  A    between atoms: C_8  and  C_5 
REMARK    3  A    between atoms: C_6  and  C_9 
REMARK       I    between atoms: N_13  and  C_6 
REMARK    4  A    between atoms: C_9  and  C_8 
REMARK    5  A    between atoms: C_14  and  C_11 
REMARK    6  A    between atoms: C_16  and  N_13 
ROOT
ATOM      1  C   UNL d   1      57.411  -0.306  31.350  0.00  0.00     0.279 C 
ATOM      2  N   UNL d   1      57.100   0.106  31.985  0.00  0.00    -0.208 NA
ATOM      3  O   UNL d   1      57.107  -1.063  31.181  0.00  0.00    -0.265 OA
ENDROOT
BRANCH   1   4
ATOM      4  C   UNL d   1      58.002   0.014  30.897  0.00  0.00     0.063 C 
BRANCH   4   5
ATOM      5  C   UNL d   1      57.966  -0.052  30.068  0.00  0.00     0.011 C 
BRANCH   5   6
ATOM      6  C   UNL d   1      58.672  -0.188  29.622  0.00  0.00     0.031 A 
ATOM      7  S   UNL d   1      59.419   0.164  29.644  0.00  0.00    -0.064 SA
ATOM      8  C   UNL d   1      59.871  -0.200  29.082  0.00  0.00     0.156 A 
ATOM      9  C   UNL d   1      59.422  -0.776  28.705  0.00  0.00     0.031 A 
ATOM     10  C   UNL d   1      58.666  -0.764  29.050  0.00  0.00     0.009 A 
BRANCH   8  11
ATOM     11  N   UNL d   1      60.677  -0.030  28.896  0.00  0.00    -0.107 N 
ATOM     12  O   UNL d   1      61.122  -0.583  28.455  0.00  0.00    -0.531 OA
ATOM     13  O   UNL d   1      61.031   0.673  29.145  0.00  0.00    -0.531 OA
ENDBRANCH   8  11
ENDBRANCH   5   6
ENDBRANCH   4   5
ENDBRANCH   1   4
BRANCH   2  14
ATOM     14  C   UNL d   1      56.501  -0.207  32.452  0.00  0.00     0.085 A 
ATOM     15  C   UNL d   1      56.084   0.259  32.961  0.00  0.00     0.022 A 
ATOM     16  C   UNL d   1      55.477  -0.062  33.435  0.00  0.00     0.041 A 
ATOM     17  C   UNL d   1      55.300  -0.864  33.383  0.00  0.00     0.003 A 
ATOM     18  C   UNL d   1      55.736  -1.335  32.855  0.00  0.00     0.002 A 
ATOM     19  C   UNL d   1      56.329  -1.012  32.395  0.00  0.00     0.019 A 
BRANCH  16  20
ATOM     20  C   UNL d   1      55.050   0.414  33.956  0.00  0.00     0.196 C 
ATOM     21  O   UNL d   1      54.314   0.682  33.745  0.00  0.00    -0.287 OA
ATOM     22  C   UNL d   1      55.362   0.628  34.706  0.00  0.00     0.045 C 
ENDBRANCH  16  20
ENDBRANCH   2  14
TORSDOF 6
ENDMDL
