MODEL 1
REMARK VINA RESULT:      10.2      0.000      0.000
REMARK  2 active torsions:
REMARK  status: ('A' for Active; 'I' for Inactive)
REMARK    1  A    between atoms: C_6  and  N_1 
REMARK    2  A    between atoms: C_7  and  C_6 
ROOT
ATOM      1  N   UNL d   1      46.314 -17.899  44.001  0.00  0.00    -0.268 N 
ATOM      2  C   UNL d   1      46.389 -17.899  42.938  0.00  0.00     0.265 A 
ATOM      3  C   UNL d   1      46.378 -18.681  44.179  0.00  0.00     0.067 A 
ATOM      4  C   UNL d   1      46.477 -18.681  42.770  0.00  0.00     0.058 A 
ATOM      5  C   UNL d   1      46.468 -19.093  43.469  0.00  0.00     0.021 A 
ATOM      6  O   UNL d   1      46.377 -17.335  42.326  0.00  0.00    -0.267 OA
ATOM      7  C   UNL d   1      46.548 -19.914  43.475  0.00  0.00     0.002 A 
ATOM      8  C   UNL d   1      46.368 -19.093  44.894  0.00  0.00     0.018 A 
ATOM      9  C   UNL d   1      46.567 -19.093  42.055  0.00  0.00     0.005 A 
ATOM     10  C   UNL d   1      46.448 -19.914  44.899  0.00  0.00     0.002 A 
ATOM     11  C   UNL d   1      46.647 -19.914  42.060  0.00  0.00     0.000 A 
ATOM     12  C   UNL d   1      46.637 -20.330  42.781  0.00  0.00     0.000 A 
ATOM     13  C   UNL d   1      46.538 -20.330  44.191  0.00  0.00     0.000 A 
ENDROOT
BRANCH   1  14
ATOM     14  C   UNL d   1      46.217 -17.335  44.606  0.00  0.00     0.154 C 
BRANCH  14  15
ATOM     15  C   UNL d   1      45.866 -16.608  44.413  0.00  0.00     0.230 C 
ATOM     16  O   UNL d   1      45.067 -16.527  44.536  0.00  0.00    -0.643 OA
ATOM     17  O   UNL d   1      46.299 -16.001  44.112  0.00  0.00    -0.643 OA
ENDBRANCH  14  15
ENDBRANCH   1  14
TORSDOF 2
ENDMDL
MODEL 2
REMARK VINA RESULT:      11.9      1.672      2.617
REMARK  2 active torsions:
REMARK  status: ('A' for Active; 'I' for Inactive)
REMARK    1  A    between atoms: C_6  and  N_1 
REMARK    2  A    between atoms: C_7  and  C_6 
ROOT
ATOM      1  N   UNL d   1      46.388 -18.536  42.378  0.00  0.00    -0.268 N 
ATOM      2  C   UNL d   1      46.425 -19.592  42.510  0.00  0.00     0.265 A 
ATOM      3  C   UNL d   1      46.383 -18.266  43.135  0.00  0.00     0.067 A 
ATOM      4  C   UNL d   1      46.431 -19.667  43.310  0.00  0.00     0.058 A 
ATOM      5  C   UNL d   1      46.408 -18.924  43.634  0.00  0.00     0.021 A 
ATOM      6  O   UNL d   1      46.445 -20.267  42.022  0.00  0.00    -0.267 OA
ATOM      7  C   UNL d   1      46.409 -18.821  44.453  0.00  0.00     0.002 A 
ATOM      8  C   UNL d   1      46.359 -17.508  43.458  0.00  0.00     0.018 A 
ATOM      9  C   UNL d   1      46.457 -20.330  43.810  0.00  0.00     0.005 A 
ATOM     10  C   UNL d   1      46.360 -17.405  44.276  0.00  0.00     0.002 A 
ATOM     11  C   UNL d   1      46.458 -20.228  44.629  0.00  0.00     0.000 A 
ATOM     12  C   UNL d   1      46.434 -19.462  44.954  0.00  0.00     0.000 A 
ATOM     13  C   UNL d   1      46.385 -18.061  44.779  0.00  0.00     0.000 A 
ENDROOT
BRANCH   1  14
ATOM     14  C   UNL d   1      46.366 -18.000  41.739  0.00  0.00     0.154 C 
BRANCH  14  15
ATOM     15  C   UNL d   1      46.297 -18.307  40.972  0.00  0.00     0.230 C 
ATOM     16  O   UNL d   1      45.865 -17.882  40.430  0.00  0.00    -0.643 OA
ATOM     17  O   UNL d   1      46.644 -19.002  40.765  0.00  0.00    -0.643 OA
ENDBRANCH  14  15
ENDBRANCH   1  14
TORSDOF 2
ENDMDL
MODEL 3
REMARK VINA RESULT:      12.1      1.190      2.720
REMARK  2 active torsions:
REMARK  status: ('A' for Active; 'I' for Inactive)
REMARK    1  A    between atoms: C_6  and  N_1 
REMARK    2  A    between atoms: C_7  and  C_6 
ROOT
ATOM      1  N   UNL d   1      46.529 -19.236  42.418  0.00  0.00    -0.268 N 
ATOM      2  C   UNL d   1      46.464 -18.178  42.521  0.00  0.00     0.265 A 
ATOM      3  C   UNL d   1      46.429 -19.490  43.175  0.00  0.00     0.067 A 
ATOM      4  C   UNL d   1      46.343 -18.086  43.310  0.00  0.00     0.058 A 
ATOM      5  C   UNL d   1      46.327 -18.823  43.651  0.00  0.00     0.021 A 
ATOM      6  O   UNL d   1      46.507 -17.513  42.021  0.00  0.00    -0.267 OA
ATOM      7  C   UNL d   1      46.210 -18.909  44.463  0.00  0.00     0.002 A 
ATOM      8  C   UNL d   1      46.413 -20.242  43.514  0.00  0.00     0.018 A 
ATOM      9  C   UNL d   1      46.241 -17.414  43.787  0.00  0.00     0.005 A 
ATOM     10  C   UNL d   1      46.297 -20.327  44.326  0.00  0.00     0.002 A 
ATOM     11  C   UNL d   1      46.124 -17.500  44.599  0.00  0.00     0.000 A 
ATOM     12  C   UNL d   1      46.109 -18.258  44.942  0.00  0.00     0.000 A 
ATOM     13  C   UNL d   1      46.194 -19.662  44.806  0.00  0.00     0.000 A 
ENDROOT
BRANCH   1  14
ATOM     14  C   UNL d   1      46.646 -19.784  41.801  0.00  0.00     0.154 C 
BRANCH  14  15
ATOM     15  C   UNL d   1      46.559 -19.520  41.020  0.00  0.00     0.230 C 
ATOM     16  O   UNL d   1      46.444 -20.077  40.441  0.00  0.00    -0.643 OA
ATOM     17  O   UNL d   1      46.586 -18.737  40.836  0.00  0.00    -0.643 OA
ENDBRANCH  14  15
ENDBRANCH   1  14
TORSDOF 2
ENDMDL
