MODEL 1
REMARK VINA RESULT:      -9.9      0.000      0.000
REMARK  4 active torsions:
REMARK  status: ('A' for Active; 'I' for Inactive)
REMARK    1  A    between atoms: N_6  and  C_2 
REMARK    2  A    between atoms: N_8  and  C_3 
REMARK    3  A    between atoms: C_10  and  N_8 
REMARK    4  A    between atoms: C_14  and  C_10 
ROOT
ATOM      1  N   UNL d   1      53.309  32.980  53.762  0.00  0.00    -0.041 NA
ATOM      2  C   UNL d   1      53.960  32.628  54.147  0.00  0.00     0.737 A 
ATOM      3  C   UNL d   1      52.783  32.512  53.324  0.00  0.00     0.182 A 
ATOM      4  N   UNL d   1      54.080  31.804  54.090  0.00  0.00    -0.060 NA
ATOM      5  C   UNL d   1      52.904  31.693  53.268  0.00  0.00     0.055 A 
ATOM      6  C   UNL d   1      53.547  31.340  53.647  0.00  0.00     0.103 A 
ATOM      7  C   UNL d   1      52.378  31.224  52.830  0.00  0.00     0.005 A 
ATOM      8  C   UNL d   1      53.670  30.514  53.591  0.00  0.00     0.020 A 
ATOM      9  C   UNL d   1      52.495  30.417  52.773  0.00  0.00     0.000 A 
ATOM     10  C   UNL d   1      53.145  30.059  53.156  0.00  0.00     0.002 A 
ENDROOT
BRANCH   3  11
ATOM     11  N   UNL d   1      52.109  32.873  52.925  0.00  0.00    -0.225 NA
BRANCH  11  12
ATOM     12  C   UNL d   1      51.988  33.624  52.906  0.00  0.00     0.101 C 
BRANCH  12  13
ATOM     13  C   UNL d   1      51.331  33.894  52.627  0.00  0.00     0.019 A 
ATOM     14  C   UNL d   1      50.745  33.989  53.087  0.00  0.00     0.002 A 
ATOM     15  C   UNL d   1      50.094  34.258  52.809  0.00  0.00     0.000 A 
ATOM     16  C   UNL d   1      50.035  34.429  52.073  0.00  0.00     0.000 A 
ATOM     17  C   UNL d   1      50.641  34.328  51.615  0.00  0.00     0.000 A 
ATOM     18  C   UNL d   1      51.284  34.061  51.899  0.00  0.00     0.002 A 
ENDBRANCH  12  13
ENDBRANCH  11  12
ENDBRANCH   3  11
BRANCH   2  19
ATOM     19  N   UNL d   1      54.503  33.112  54.600  0.00  0.00    -0.133 N 
ATOM     20  C   UNL d   1      54.374  33.222  55.441  0.00  0.00     0.125 A 
ATOM     21  C   UNL d   1      54.909  33.700  55.894  0.00  0.00     0.142 A 
ATOM     22  O   UNL d   1      55.574  34.070  55.514  0.00  0.00    -0.300 OA
ATOM     23  C   UNL d   1      55.703  33.960  54.673  0.00  0.00     0.142 A 
ATOM     24  C   UNL d   1      55.168  33.481  54.216  0.00  0.00     0.125 A 
ENDBRANCH   2  19
TORSDOF 4
ENDMDL
MODEL 2
REMARK VINA RESULT:      -9.5      1.526      4.174
REMARK  4 active torsions:
REMARK  status: ('A' for Active; 'I' for Inactive)
REMARK    1  A    between atoms: N_6  and  C_2 
REMARK    2  A    between atoms: N_8  and  C_3 
REMARK    3  A    between atoms: C_10  and  N_8 
REMARK    4  A    between atoms: C_14  and  C_10 
ROOT
ATOM      1  N   UNL d   1      52.542  32.806  53.417  0.00  0.00    -0.041 NA
ATOM      2  C   UNL d   1      52.333  33.614  53.415  0.00  0.00     0.737 A 
ATOM      3  C   UNL d   1      53.199  32.550  53.854  0.00  0.00     0.182 A 
ATOM      4  N   UNL d   1      52.785  34.162  53.852  0.00  0.00    -0.060 NA
ATOM      5  C   UNL d   1      53.648  33.096  54.288  0.00  0.00     0.055 A 
ATOM      6  C   UNL d   1      53.445  33.895  54.289  0.00  0.00     0.103 A 
ATOM      7  C   UNL d   1      54.306  32.840  54.725  0.00  0.00     0.005 A 
ATOM      8  C   UNL d   1      53.897  34.448  54.727  0.00  0.00     0.020 A 
ATOM      9  C   UNL d   1      54.750  33.375  55.154  0.00  0.00     0.000 A 
ATOM     10  C   UNL d   1      54.544  34.184  55.155  0.00  0.00     0.002 A 
ENDROOT
BRANCH   3  11
ATOM     11  N   UNL d   1      53.419  31.715  53.859  0.00  0.00    -0.225 NA
BRANCH  11  12
ATOM     12  C   UNL d   1      53.229  31.230  53.305  0.00  0.00     0.101 C 
BRANCH  12  13
ATOM     13  C   UNL d   1      53.164  30.486  53.459  0.00  0.00     0.019 A 
ATOM     14  C   UNL d   1      53.661  30.157  53.916  0.00  0.00     0.002 A 
ATOM     15  C   UNL d   1      53.595  29.419  54.067  0.00  0.00     0.000 A 
ATOM     16  C   UNL d   1      53.031  29.015  53.761  0.00  0.00     0.000 A 
ATOM     17  C   UNL d   1      52.530  29.362  53.297  0.00  0.00     0.000 A 
ATOM     18  C   UNL d   1      52.603  30.097  53.151  0.00  0.00     0.002 A 
ENDBRANCH  12  13
ENDBRANCH  11  12
ENDBRANCH   3  11
BRANCH   2  19
ATOM     19  N   UNL d   1      51.654  33.879  52.964  0.00  0.00    -0.133 N 
ATOM     20  C   UNL d   1      50.884  33.919  53.340  0.00  0.00     0.125 A 
ATOM     21  C   UNL d   1      50.208  34.181  52.898  0.00  0.00     0.142 A 
ATOM     22  O   UNL d   1      50.295  34.404  52.083  0.00  0.00    -0.300 OA
ATOM     23  C   UNL d   1      51.065  34.364  51.706  0.00  0.00     0.142 A 
ATOM     24  C   UNL d   1      51.745  34.101  52.148  0.00  0.00     0.125 A 
ENDBRANCH   2  19
TORSDOF 4
ENDMDL
MODEL 3
REMARK VINA RESULT:      -9.2      1.435      2.903
REMARK  4 active torsions:
REMARK  status: ('A' for Active; 'I' for Inactive)
REMARK    1  A    between atoms: N_6  and  C_2 
REMARK    2  A    between atoms: N_8  and  C_3 
REMARK    3  A    between atoms: C_10  and  N_8 
REMARK    4  A    between atoms: C_14  and  C_10 
ROOT
ATOM      1  N   UNL d   1      52.752  32.077  53.660  0.00  0.00    -0.041 NA
ATOM      2  C   UNL d   1      53.328  31.563  53.976  0.00  0.00     0.737 A 
ATOM      3  C   UNL d   1      52.819  32.896  53.777  0.00  0.00     0.182 A 
ATOM      4  N   UNL d   1      53.969  31.874  54.411  0.00  0.00    -0.060 NA
ATOM      5  C   UNL d   1      53.457  33.203  54.209  0.00  0.00     0.055 A 
ATOM      6  C   UNL d   1      54.028  32.698  54.524  0.00  0.00     0.103 A 
ATOM      7  C   UNL d   1      53.523  34.022  54.327  0.00  0.00     0.005 A 
ATOM      8  C   UNL d   1      54.672  33.007  54.961  0.00  0.00     0.020 A 
ATOM      9  C   UNL d   1      54.150  34.328  54.753  0.00  0.00     0.000 A 
ATOM     10  C   UNL d   1      54.729  33.817  55.071  0.00  0.00     0.002 A 
ENDROOT
BRANCH   3  11
ATOM     11  N   UNL d   1      52.225  33.431  53.451  0.00  0.00    -0.225 NA
BRANCH  11  12
ATOM     12  C   UNL d   1      51.559  33.195  53.170  0.00  0.00     0.101 C 
BRANCH  12  13
ATOM     13  C   UNL d   1      51.089  33.696  52.838  0.00  0.00     0.019 A 
ATOM     14  C   UNL d   1      51.228  33.927  52.137  0.00  0.00     0.002 A 
ATOM     15  C   UNL d   1      50.761  34.424  51.810  0.00  0.00     0.000 A 
ATOM     16  C   UNL d   1      50.157  34.686  52.187  0.00  0.00     0.000 A 
ATOM     17  C   UNL d   1      50.026  34.442  52.901  0.00  0.00     0.000 A 
ATOM     18  C   UNL d   1      50.496  33.948  53.220  0.00  0.00     0.002 A 
ENDBRANCH  12  13
ENDBRANCH  11  12
ENDBRANCH   3  11
BRANCH   2  19
ATOM     19  N   UNL d   1      53.260  30.717  53.855  0.00  0.00    -0.133 N 
ATOM     20  C   UNL d   1      53.296  30.188  54.529  0.00  0.00     0.125 A 
ATOM     21  C   UNL d   1      53.229  29.349  54.414  0.00  0.00     0.142 A 
ATOM     22  O   UNL d   1      53.126  29.034  53.632  0.00  0.00    -0.300 OA
ATOM     23  C   UNL d   1      53.090  29.564  52.958  0.00  0.00     0.142 A 
ATOM     24  C   UNL d   1      53.157  30.406  53.069  0.00  0.00     0.125 A 
ENDBRANCH   2  19
TORSDOF 4
ENDMDL
MODEL 4
REMARK VINA RESULT:      -8.2      1.401      3.923
REMARK  4 active torsions:
REMARK  status: ('A' for Active; 'I' for Inactive)
REMARK    1  A    between atoms: N_6  and  C_2 
REMARK    2  A    between atoms: N_8  and  C_3 
REMARK    3  A    between atoms: C_10  and  N_8 
REMARK    4  A    between atoms: C_14  and  C_10 
ROOT
ATOM      1  N   UNL d   1      52.614  33.013  53.412  0.00  0.00    -0.041 NA
ATOM      2  C   UNL d   1      51.964  32.767  52.951  0.00  0.00     0.737 A 
ATOM      3  C   UNL d   1      53.185  32.460  53.651  0.00  0.00     0.182 A 
ATOM      4  N   UNL d   1      51.889  31.966  52.731  0.00  0.00    -0.060 NA
ATOM      5  C   UNL d   1      53.109  31.664  53.432  0.00  0.00     0.055 A 
ATOM      6  C   UNL d   1      52.468  31.416  52.976  0.00  0.00     0.103 A 
ATOM      7  C   UNL d   1      53.680  31.111  53.670  0.00  0.00     0.005 A 
ATOM      8  C   UNL d   1      52.391  30.613  52.754  0.00  0.00     0.020 A 
ATOM      9  C   UNL d   1      53.609  30.325  53.456  0.00  0.00     0.000 A 
ATOM     10  C   UNL d   1      52.960  30.075  52.994  0.00  0.00     0.002 A 
ENDROOT
BRANCH   3  11
ATOM     11  N   UNL d   1      53.859  32.711  54.128  0.00  0.00    -0.225 NA
BRANCH  11  12
ATOM     12  C   UNL d   1      53.936  33.415  54.405  0.00  0.00     0.101 C 
BRANCH  12  13
ATOM     13  C   UNL d   1      54.568  33.604  54.789  0.00  0.00     0.019 A 
ATOM     14  C   UNL d   1      55.182  33.815  54.412  0.00  0.00     0.002 A 
ATOM     15  C   UNL d   1      55.807  34.002  54.795  0.00  0.00     0.000 A 
ATOM     16  C   UNL d   1      55.813  33.975  55.553  0.00  0.00     0.000 A 
ATOM     17  C   UNL d   1      55.180  33.758  55.925  0.00  0.00     0.000 A 
ATOM     18  C   UNL d   1      54.562  33.574  55.537  0.00  0.00     0.002 A 
ENDBRANCH  12  13
ENDBRANCH  11  12
ENDBRANCH   3  11
BRANCH   2  19
ATOM     19  N   UNL d   1      51.374  33.338  52.704  0.00  0.00    -0.133 N 
ATOM     20  C   UNL d   1      50.689  33.482  53.200  0.00  0.00     0.125 A 
ATOM     21  C   UNL d   1      50.101  34.046  52.961  0.00  0.00     0.142 A 
ATOM     22  O   UNL d   1      50.192  34.468  52.229  0.00  0.00    -0.300 OA
ATOM     23  C   UNL d   1      50.877  34.324  51.733  0.00  0.00     0.142 A 
ATOM     24  C   UNL d   1      51.468  33.759  51.971  0.00  0.00     0.125 A 
ENDBRANCH   2  19
TORSDOF 4
ENDMDL
MODEL 5
REMARK VINA RESULT:      -7.8      0.755      3.208
REMARK  4 active torsions:
REMARK  status: ('A' for Active; 'I' for Inactive)
REMARK    1  A    between atoms: N_6  and  C_2 
REMARK    2  A    between atoms: N_8  and  C_3 
REMARK    3  A    between atoms: C_10  and  N_8 
REMARK    4  A    between atoms: C_14  and  C_10 
ROOT
ATOM      1  N   UNL d   1      53.493  32.709  53.880  0.00  0.00    -0.041 NA
ATOM      2  C   UNL d   1      53.643  33.500  54.098  0.00  0.00     0.737 A 
ATOM      3  C   UNL d   1      52.832  32.526  53.414  0.00  0.00     0.182 A 
ATOM      4  N   UNL d   1      53.127  34.105  53.847  0.00  0.00    -0.060 NA
ATOM      5  C   UNL d   1      52.320  33.130  53.165  0.00  0.00     0.055 A 
ATOM      6  C   UNL d   1      52.464  33.913  53.378  0.00  0.00     0.103 A 
ATOM      7  C   UNL d   1      51.657  32.947  52.698  0.00  0.00     0.005 A 
ATOM      8  C   UNL d   1      51.948  34.523  53.128  0.00  0.00     0.020 A 
ATOM      9  C   UNL d   1      51.151  33.540  52.452  0.00  0.00     0.000 A 
ATOM     10  C   UNL d   1      51.297  34.333  52.668  0.00  0.00     0.002 A 
ENDROOT
BRANCH   3  11
ATOM     11  N   UNL d   1      52.673  31.709  53.186  0.00  0.00    -0.225 NA
BRANCH  11  12
ATOM     12  C   UNL d   1      53.217  31.182  53.116  0.00  0.00     0.101 C 
BRANCH  12  13
ATOM     13  C   UNL d   1      53.061  30.454  53.283  0.00  0.00     0.019 A 
ATOM     14  C   UNL d   1      52.544  30.084  52.883  0.00  0.00     0.002 A 
ATOM     15  C   UNL d   1      52.392  29.362  53.049  0.00  0.00     0.000 A 
ATOM     16  C   UNL d   1      52.758  29.015  53.615  0.00  0.00     0.000 A 
ATOM     17  C   UNL d   1      53.283  29.403  54.016  0.00  0.00     0.000 A 
ATOM     18  C   UNL d   1      53.429  30.122  53.844  0.00  0.00     0.002 A 
ENDBRANCH  12  13
ENDBRANCH  11  12
ENDBRANCH   3  11
BRANCH   2  19
ATOM     19  N   UNL d   1      54.327  33.689  54.580  0.00  0.00    -0.133 N 
ATOM     20  C   UNL d   1      54.259  33.678  55.435  0.00  0.00     0.125 A 
ATOM     21  C   UNL d   1      54.933  33.865  55.917  0.00  0.00     0.142 A 
ATOM     22  O   UNL d   1      55.675  34.062  55.552  0.00  0.00    -0.300 OA
ATOM     23  C   UNL d   1      55.742  34.072  54.696  0.00  0.00     0.142 A 
ATOM     24  C   UNL d   1      55.068  33.885  54.210  0.00  0.00     0.125 A 
ENDBRANCH   2  19
TORSDOF 4
ENDMDL
MODEL 6
REMARK VINA RESULT:      -7.0      1.522      4.187
REMARK  4 active torsions:
REMARK  status: ('A' for Active; 'I' for Inactive)
REMARK    1  A    between atoms: N_6  and  C_2 
REMARK    2  A    between atoms: N_8  and  C_3 
REMARK    3  A    between atoms: C_10  and  N_8 
REMARK    4  A    between atoms: C_14  and  C_10 
ROOT
ATOM      1  N   UNL d   1      53.069  32.081  53.480  0.00  0.00    -0.041 NA
ATOM      2  C   UNL d   1      52.459  31.668  53.089  0.00  0.00     0.737 A 
ATOM      3  C   UNL d   1      53.066  32.910  53.493  0.00  0.00     0.182 A 
ATOM      4  N   UNL d   1      51.847  32.091  52.710  0.00  0.00    -0.060 NA
ATOM      5  C   UNL d   1      52.457  33.329  53.116  0.00  0.00     0.055 A 
ATOM      6  C   UNL d   1      51.852  32.925  52.728  0.00  0.00     0.103 A 
ATOM      7  C   UNL d   1      52.454  34.159  53.129  0.00  0.00     0.005 A 
ATOM      8  C   UNL d   1      51.237  33.347  52.347  0.00  0.00     0.020 A 
ATOM      9  C   UNL d   1      51.855  34.575  52.759  0.00  0.00     0.000 A 
ATOM     10  C   UNL d   1      51.242  34.166  52.365  0.00  0.00     0.002 A 
ENDROOT
BRANCH   3  11
ATOM     11  N   UNL d   1      53.695  33.341  53.897  0.00  0.00    -0.225 NA
BRANCH  11  12
ATOM     12  C   UNL d   1      54.306  33.002  54.198  0.00  0.00     0.101 C 
BRANCH  12  13
ATOM     13  C   UNL d   1      54.764  33.394  54.666  0.00  0.00     0.019 A 
ATOM     14  C   UNL d   1      54.598  33.438  55.397  0.00  0.00     0.002 A 
ATOM     15  C   UNL d   1      55.053  33.827  55.859  0.00  0.00     0.000 A 
ATOM     16  C   UNL d   1      55.672  34.170  55.586  0.00  0.00     0.000 A 
ATOM     17  C   UNL d   1      55.831  34.117  54.839  0.00  0.00     0.000 A 
ATOM     18  C   UNL d   1      55.373  33.728  54.385  0.00  0.00     0.002 A 
ENDBRANCH  12  13
ENDBRANCH  11  12
ENDBRANCH   3  11
BRANCH   2  19
ATOM     19  N   UNL d   1      52.462  30.811  53.075  0.00  0.00    -0.133 N 
ATOM     20  C   UNL d   1      51.948  30.376  53.608  0.00  0.00     0.125 A 
ATOM     21  C   UNL d   1      51.947  29.527  53.599  0.00  0.00     0.142 A 
ATOM     22  O   UNL d   1      52.455  29.108  53.062  0.00  0.00    -0.300 OA
ATOM     23  C   UNL d   1      52.969  29.542  52.529  0.00  0.00     0.142 A 
ATOM     24  C   UNL d   1      52.972  30.394  52.536  0.00  0.00     0.125 A 
ENDBRANCH   2  19
TORSDOF 4
ENDMDL
