MODEL 1
REMARK VINA RESULT:      -8.8      0.000      0.000
REMARK  2 active torsions:
REMARK  status: ('A' for Active; 'I' for Inactive)
REMARK    1  A    between atoms: C_10  and  C_3 
REMARK    2  A    between atoms: O_20  and  C_16 
ROOT
ATOM      1  C   UNL d   1     -47.951  12.812  23.121  0.00  0.00     0.203 A 
ATOM      2  C   UNL d   1     -47.282  12.341  23.264  0.00  0.00     0.101 A 
ATOM      3  C   UNL d   1     -47.868  13.589  22.829  0.00  0.00     0.064 A 
ATOM      4  C   UNL d   1     -46.520  12.656  23.113  0.00  0.00     0.109 A 
ATOM      5  C   UNL d   1     -47.103  13.896  22.680  0.00  0.00     0.126 A 
ATOM      6  C   UNL d   1     -47.366  11.576  23.551  0.00  0.00     0.204 A 
ATOM      7  O   UNL d   1     -46.430  13.428  22.823  0.00  0.00    -0.305 OA
ATOM      8  C   UNL d   1     -45.852  12.184  23.257  0.00  0.00     0.067 A 
ATOM      9  C   UNL d   1     -46.701  11.113  23.692  0.00  0.00     0.084 A 
ATOM     10  O   UNL d   1     -48.704  12.509  23.267  0.00  0.00    -0.286 OA
ATOM     11  C   UNL d   1     -45.947  11.416  23.546  0.00  0.00     0.201 A 
ATOM     12  O   UNL d   1     -48.119  11.273  23.698  0.00  0.00    -0.286 OA
ATOM     13  O   UNL d   1     -45.282  10.952  23.687  0.00  0.00    -0.286 OA
ENDROOT
BRANCH   3  14
ATOM     14  C   UNL d   1     -48.533  14.053  22.688  0.00  0.00     0.005 A 
ATOM     15  C   UNL d   1     -48.838  14.521  23.295  0.00  0.00     0.002 A 
ATOM     16  C   UNL d   1     -49.503  14.986  23.155  0.00  0.00     0.024 A 
ATOM     17  C   UNL d   1     -49.861  14.984  22.418  0.00  0.00     0.094 A 
ATOM     18  C   UNL d   1     -49.548  14.508  21.809  0.00  0.00     0.024 A 
ATOM     19  C   UNL d   1     -48.882  14.044  21.951  0.00  0.00     0.002 A 
BRANCH  17  20
ATOM     20  O   UNL d   1     -50.526  15.448  22.277  0.00  0.00    -0.328 OA
ATOM     21  C   UNL d   1     -51.064  15.603  22.890  0.00  0.00     0.181 C 
ENDBRANCH  17  20
ENDBRANCH   3  14
TORSDOF 2
ENDMDL
MODEL 2
REMARK VINA RESULT:      -8.7      1.004      4.183
REMARK  2 active torsions:
REMARK  status: ('A' for Active; 'I' for Inactive)
REMARK    1  A    between atoms: C_10  and  C_3 
REMARK    2  A    between atoms: O_20  and  C_16 
ROOT
ATOM      1  C   UNL d   1     -48.424  13.132  22.327  0.00  0.00     0.203 A 
ATOM      2  C   UNL d   1     -49.088  13.607  22.183  0.00  0.00     0.101 A 
ATOM      3  C   UNL d   1     -47.828  13.384  22.854  0.00  0.00     0.064 A 
ATOM      4  C   UNL d   1     -49.156  14.346  22.573  0.00  0.00     0.109 A 
ATOM      5  C   UNL d   1     -47.903  14.124  23.240  0.00  0.00     0.126 A 
ATOM      6  C   UNL d   1     -49.674  13.356  21.664  0.00  0.00     0.204 A 
ATOM      7  O   UNL d   1     -48.568  14.603  23.098  0.00  0.00    -0.305 OA
ATOM      8  C   UNL d   1     -49.821  14.821  22.428  0.00  0.00     0.067 A 
ATOM      9  C   UNL d   1     -50.331  13.830  21.523  0.00  0.00     0.084 A 
ATOM     10  O   UNL d   1     -48.350  12.403  21.947  0.00  0.00    -0.286 OA
ATOM     11  C   UNL d   1     -50.405  14.559  21.904  0.00  0.00     0.201 A 
ATOM     12  O   UNL d   1     -49.600  12.628  21.284  0.00  0.00    -0.286 OA
ATOM     13  O   UNL d   1     -51.064  15.033  21.762  0.00  0.00    -0.286 OA
ENDROOT
BRANCH   3  14
ATOM     14  C   UNL d   1     -47.169  12.910  22.995  0.00  0.00     0.005 A 
ATOM     15  C   UNL d   1     -47.220  12.299  23.546  0.00  0.00     0.002 A 
ATOM     16  C   UNL d   1     -46.563  11.824  23.689  0.00  0.00     0.024 A 
ATOM     17  C   UNL d   1     -45.861  11.957  23.286  0.00  0.00     0.094 A 
ATOM     18  C   UNL d   1     -45.818  12.578  22.730  0.00  0.00     0.024 A 
ATOM     19  C   UNL d   1     -46.476  13.051  22.589  0.00  0.00     0.002 A 
BRANCH  17  20
ATOM     20  O   UNL d   1     -45.204  11.484  23.427  0.00  0.00    -0.328 OA
ATOM     21  C   UNL d   1     -45.301  10.698  23.677  0.00  0.00     0.181 C 
ENDBRANCH  17  20
ENDBRANCH   3  14
TORSDOF 2
ENDMDL
MODEL 3
REMARK VINA RESULT:      -7.6      1.607      3.724
REMARK  2 active torsions:
REMARK  status: ('A' for Active; 'I' for Inactive)
REMARK    1  A    between atoms: C_10  and  C_3 
REMARK    2  A    between atoms: O_20  and  C_16 
ROOT
ATOM      1  C   UNL d   1     -47.844  12.440  23.007  0.00  0.00     0.203 A 
ATOM      2  C   UNL d   1     -48.653  12.355  23.173  0.00  0.00     0.101 A 
ATOM      3  C   UNL d   1     -47.552  13.144  22.670  0.00  0.00     0.064 A 
ATOM      4  C   UNL d   1     -49.175  12.986  22.999  0.00  0.00     0.109 A 
ATOM      5  C   UNL d   1     -48.080  13.772  22.498  0.00  0.00     0.126 A 
ATOM      6  C   UNL d   1     -48.938  11.660  23.505  0.00  0.00     0.204 A 
ATOM      7  O   UNL d   1     -48.892  13.690  22.664  0.00  0.00    -0.305 OA
ATOM      8  C   UNL d   1     -49.984  12.901  23.165  0.00  0.00     0.067 A 
ATOM      9  C   UNL d   1     -49.741  11.579  23.669  0.00  0.00     0.084 A 
ATOM     10  O   UNL d   1     -47.324  11.822  23.176  0.00  0.00    -0.286 OA
ATOM     11  C   UNL d   1     -50.261  12.197  23.499  0.00  0.00     0.201 A 
ATOM     12  O   UNL d   1     -48.418  11.042  23.674  0.00  0.00    -0.286 OA
ATOM     13  O   UNL d   1     -51.064  12.116  23.663  0.00  0.00    -0.286 OA
ENDROOT
BRANCH   3  14
ATOM     14  C   UNL d   1     -46.749  13.226  22.506  0.00  0.00     0.005 A 
ATOM     15  C   UNL d   1     -46.423  12.824  21.863  0.00  0.00     0.002 A 
ATOM     16  C   UNL d   1     -45.621  12.904  21.698  0.00  0.00     0.024 A 
ATOM     17  C   UNL d   1     -45.147  13.380  22.169  0.00  0.00     0.094 A 
ATOM     18  C   UNL d   1     -45.484  13.782  22.817  0.00  0.00     0.024 A 
ATOM     19  C   UNL d   1     -46.287  13.701  22.981  0.00  0.00     0.002 A 
BRANCH  17  20
ATOM     20  O   UNL d   1     -44.345  13.460  22.005  0.00  0.00    -0.328 OA
ATOM     21  C   UNL d   1     -43.982  12.968  21.444  0.00  0.00     0.181 C 
ENDBRANCH  17  20
ENDBRANCH   3  14
TORSDOF 2
ENDMDL
MODEL 4
REMARK VINA RESULT:      -6.4      8.714      9.717
REMARK  2 active torsions:
REMARK  status: ('A' for Active; 'I' for Inactive)
REMARK    1  A    between atoms: C_10  and  C_3 
REMARK    2  A    between atoms: O_20  and  C_16 
ROOT
ATOM      1  C   UNL d   1     -39.837  14.371  19.263  0.00  0.00     0.203 A 
ATOM      2  C   UNL d   1     -40.194  14.728  18.605  0.00  0.00     0.101 A 
ATOM      3  C   UNL d   1     -39.781  14.778  19.989  0.00  0.00     0.064 A 
ATOM      4  C   UNL d   1     -40.499  15.505  18.676  0.00  0.00     0.109 A 
ATOM      5  C   UNL d   1     -40.089  15.555  20.052  0.00  0.00     0.126 A 
ATOM      6  C   UNL d   1     -40.248  14.324  17.891  0.00  0.00     0.204 A 
ATOM      7  O   UNL d   1     -40.447  15.917  19.394  0.00  0.00    -0.305 OA
ATOM      8  C   UNL d   1     -40.857  15.862  18.017  0.00  0.00     0.067 A 
ATOM      9  C   UNL d   1     -40.603  14.682  17.240  0.00  0.00     0.084 A 
ATOM     10  O   UNL d   1     -39.534  13.606  19.201  0.00  0.00    -0.286 OA
ATOM     11  C   UNL d   1     -40.906  15.447  17.303  0.00  0.00     0.201 A 
ATOM     12  O   UNL d   1     -39.945  13.560  17.829  0.00  0.00    -0.286 OA
ATOM     13  O   UNL d   1     -41.261  15.804  16.651  0.00  0.00    -0.286 OA
ENDROOT
BRANCH   3  14
ATOM     14  C   UNL d   1     -39.426  14.421  20.640  0.00  0.00     0.005 A 
ATOM     15  C   UNL d   1     -39.899  14.083  21.225  0.00  0.00     0.002 A 
ATOM     16  C   UNL d   1     -39.545  13.726  21.877  0.00  0.00     0.024 A 
ATOM     17  C   UNL d   1     -38.729  13.705  21.946  0.00  0.00     0.094 A 
ATOM     18  C   UNL d   1     -38.257  14.050  21.350  0.00  0.00     0.024 A 
ATOM     19  C   UNL d   1     -38.612  14.407  20.699  0.00  0.00     0.002 A 
BRANCH  17  20
ATOM     20  O   UNL d   1     -38.375  13.349  22.597  0.00  0.00    -0.328 OA
ATOM     21  C   UNL d   1     -38.706  13.436  23.353  0.00  0.00     0.181 C 
ENDBRANCH  17  20
ENDBRANCH   3  14
TORSDOF 2
ENDMDL
MODEL 5
REMARK VINA RESULT:      -6.2      8.774     10.493
REMARK  2 active torsions:
REMARK  status: ('A' for Active; 'I' for Inactive)
REMARK    1  A    between atoms: C_10  and  C_3 
REMARK    2  A    between atoms: O_20  and  C_16 
ROOT
ATOM      1  C   UNL d   1     -39.761  14.421  18.514  0.00  0.00     0.203 A 
ATOM      2  C   UNL d   1     -40.051  14.773  19.207  0.00  0.00     0.101 A 
ATOM      3  C   UNL d   1     -39.086  14.728  18.133  0.00  0.00     0.064 A 
ATOM      4  C   UNL d   1     -39.658  15.443  19.521  0.00  0.00     0.109 A 
ATOM      5  C   UNL d   1     -38.698  15.398  18.453  0.00  0.00     0.126 A 
ATOM      6  C   UNL d   1     -40.716  14.469  19.581  0.00  0.00     0.204 A 
ATOM      7  O   UNL d   1     -38.986  15.754  19.147  0.00  0.00    -0.305 OA
ATOM      8  C   UNL d   1     -39.949  15.796  20.214  0.00  0.00     0.067 A 
ATOM      9  C   UNL d   1     -41.001  14.821  20.267  0.00  0.00     0.084 A 
ATOM     10  O   UNL d   1     -40.142  13.761  18.199  0.00  0.00    -0.286 OA
ATOM     11  C   UNL d   1     -40.619  15.482  20.583  0.00  0.00     0.201 A 
ATOM     12  O   UNL d   1     -41.098  13.809  19.266  0.00  0.00    -0.286 OA
ATOM     13  O   UNL d   1     -40.905  15.834  21.270  0.00  0.00    -0.286 OA
ENDROOT
BRANCH   3  14
ATOM     14  C   UNL d   1     -38.800  14.376  17.445  0.00  0.00     0.005 A 
ATOM     15  C   UNL d   1     -38.972  14.715  16.713  0.00  0.00     0.002 A 
ATOM     16  C   UNL d   1     -38.687  14.364  16.026  0.00  0.00     0.024 A 
ATOM     17  C   UNL d   1     -38.235  13.682  16.066  0.00  0.00     0.094 A 
ATOM     18  C   UNL d   1     -38.065  13.344  16.809  0.00  0.00     0.024 A 
ATOM     19  C   UNL d   1     -38.351  13.696  17.496  0.00  0.00     0.002 A 
BRANCH  17  20
ATOM     20  O   UNL d   1     -37.950  13.331  15.379  0.00  0.00    -0.328 OA
ATOM     21  C   UNL d   1     -37.940  13.755  14.665  0.00  0.00     0.181 C 
ENDBRANCH  17  20
ENDBRANCH   3  14
TORSDOF 2
ENDMDL
