MODEL 1
REMARK VINA RESULT:      -4.4      0.000      0.000
REMARK  9 active torsions:
REMARK  status: ('A' for Active; 'I' for Inactive)
REMARK    1  A    between atoms: C_7  and  N_1 
REMARK    2  A    between atoms: C_8  and  C_3 
REMARK    3  A    between atoms: O_9  and  C_6 
REMARK    4  A    between atoms: O_19  and  C_8 
REMARK    5  A    between atoms: C_18  and  O_9 
REMARK    6  A    between atoms: C_10  and  C_18 
REMARK       I    between atoms: N_11  and  C_10 
REMARK    7  A    between atoms: C_14  and  N_11 
REMARK    8  A    between atoms: C_28  and  O_19 
REMARK    9  A    between atoms: O_23  and  C_20 
ROOT
ATOM      1  N   UNL d   1     -40.337  14.816  18.795  0.00  0.00    -0.194 N 
ATOM      2  N   UNL d   1     -40.328  15.257  19.494  0.00  0.00    -0.155 NA
ATOM      3  C   UNL d   1     -40.751  14.992  20.146  0.00  0.00     0.187 A 
ATOM      4  C   UNL d   1     -40.768  14.114  18.755  0.00  0.00     0.282 A 
ATOM      5  C   UNL d   1     -41.191  13.853  19.414  0.00  0.00     0.089 A 
ATOM      6  C   UNL d   1     -41.183  14.290  20.106  0.00  0.00     0.130 A 
ATOM      7  O   UNL d   1     -40.776  13.674  18.060  0.00  0.00    -0.265 OA
ENDROOT
BRANCH   6   8
ATOM      8  O   UNL d   1     -41.605  14.030  20.765  0.00  0.00    -0.298 OA
BRANCH   8   9
ATOM      9  C   UNL d   1     -41.932  13.276  20.777  0.00  0.00     0.185 C 
BRANCH   9  10
ATOM     10  C   UNL d   1     -42.528  13.099  21.322  0.00  0.00     0.304 C 
ATOM     11  N   UNL d   1     -43.290  12.937  21.057  0.00  0.00    -0.206 NA
ATOM     12  O   UNL d   1     -42.358  13.084  22.123  0.00  0.00    -0.263 OA
BRANCH  11  13
ATOM     13  C   UNL d   1     -43.886  12.760  21.602  0.00  0.00     0.087 A 
ATOM     14  C   UNL d   1     -44.502  13.277  21.723  0.00  0.00     0.043 A 
ATOM     15  C   UNL d   1     -45.098  13.112  22.259  0.00  0.00     0.096 A 
ATOM     16  C   UNL d   1     -45.071  12.407  22.686  0.00  0.00     0.024 A 
ATOM     17  C   UNL d   1     -44.448  11.879  22.567  0.00  0.00     0.004 A 
ATOM     18  C   UNL d   1     -43.859  12.054  22.028  0.00  0.00     0.019 A 
BRANCH  15  19
ATOM     19  O   UNL d   1     -45.712  13.643  22.369  0.00  0.00    -0.328 OA
ATOM     20  C   UNL d   1     -46.281  13.489  22.949  0.00  0.00     0.181 C 
ENDBRANCH  15  19
ENDBRANCH  11  13
ENDBRANCH   9  10
ENDBRANCH   8   9
ENDBRANCH   6   8
BRANCH   3  21
ATOM     21  C   UNL d   1     -40.743  15.429  20.838  0.00  0.00     0.322 C 
ATOM     22  O   UNL d   1     -41.378  15.922  21.024  0.00  0.00    -0.257 OA
BRANCH  21  23
ATOM     23  O   UNL d   1     -40.099  15.383  21.358  0.00  0.00    -0.270 OA
BRANCH  23  24
ATOM     24  C   UNL d   1     -40.030  15.908  21.983  0.00  0.00     0.126 C 
ATOM     25  C   UNL d   1     -39.344  15.918  22.441  0.00  0.00     0.029 C 
ENDBRANCH  23  24
ENDBRANCH  21  23
ENDBRANCH   3  21
BRANCH   1  26
ATOM     26  C   UNL d   1     -39.914  15.079  18.140  0.00  0.00     0.097 A 
ATOM     27  C   UNL d   1     -40.257  15.635  17.618  0.00  0.00     0.075 A 
ATOM     28 CL   UNL d   1     -41.012  15.914  17.763  0.00  0.00    -0.081 Cl
ATOM     29  C   UNL d   1     -39.830  15.892  16.969  0.00  0.00     0.013 A 
ATOM     30  C   UNL d   1     -39.067  15.609  16.824  0.00  0.00     0.001 A 
ATOM     31  C   UNL d   1     -38.731  15.056  17.347  0.00  0.00     0.002 A 
ATOM     32  C   UNL d   1     -39.159  14.795  18.003  0.00  0.00     0.020 A 
ENDBRANCH   1  26
TORSDOF 9
ENDMDL
MODEL 2
REMARK VINA RESULT:      -2.8      3.517      8.042
REMARK  9 active torsions:
REMARK  status: ('A' for Active; 'I' for Inactive)
REMARK    1  A    between atoms: C_7  and  N_1 
REMARK    2  A    between atoms: C_8  and  C_3 
REMARK    3  A    between atoms: O_9  and  C_6 
REMARK    4  A    between atoms: O_19  and  C_8 
REMARK    5  A    between atoms: C_18  and  O_9 
REMARK    6  A    between atoms: C_10  and  C_18 
REMARK       I    between atoms: N_11  and  C_10 
REMARK    7  A    between atoms: C_14  and  N_11 
REMARK    8  A    between atoms: C_28  and  O_19 
REMARK    9  A    between atoms: O_23  and  C_20 
ROOT
ATOM      1  N   UNL d   1     -48.924  14.502  22.966  0.00  0.00    -0.194 N 
ATOM      2  N   UNL d   1     -48.838  13.747  23.293  0.00  0.00    -0.155 NA
ATOM      3  C   UNL d   1     -48.127  13.346  23.204  0.00  0.00     0.187 A 
ATOM      4  C   UNL d   1     -48.298  14.847  22.554  0.00  0.00     0.282 A 
ATOM      5  C   UNL d   1     -47.587  14.439  22.468  0.00  0.00     0.089 A 
ATOM      6  C   UNL d   1     -47.502  13.691  22.792  0.00  0.00     0.130 A 
ATOM      7  O   UNL d   1     -48.384  15.599  22.229  0.00  0.00    -0.265 OA
ENDROOT
BRANCH   6   8
ATOM      8  O   UNL d   1     -46.790  13.283  22.706  0.00  0.00    -0.298 OA
BRANCH   8   9
ATOM      9  C   UNL d   1     -46.214  13.556  22.189  0.00  0.00     0.185 C 
BRANCH   9  10
ATOM     10  C   UNL d   1     -45.432  13.303  22.280  0.00  0.00     0.304 C 
ATOM     11  N   UNL d   1     -45.057  12.906  21.664  0.00  0.00    -0.206 NA
ATOM     12  O   UNL d   1     -45.033  13.449  22.980  0.00  0.00    -0.263 OA
BRANCH  11  13
ATOM     13  C   UNL d   1     -44.275  12.653  21.755  0.00  0.00     0.087 A 
ATOM     14  C   UNL d   1     -43.670  13.033  21.364  0.00  0.00     0.043 A 
ATOM     15  C   UNL d   1     -42.893  12.792  21.445  0.00  0.00     0.096 A 
ATOM     16  C   UNL d   1     -42.719  12.150  21.934  0.00  0.00     0.024 A 
ATOM     17  C   UNL d   1     -43.328  11.761  22.333  0.00  0.00     0.004 A 
ATOM     18  C   UNL d   1     -44.102  12.012  22.244  0.00  0.00     0.019 A 
BRANCH  15  19
ATOM     19  O   UNL d   1     -42.296  13.185  21.045  0.00  0.00    -0.328 OA
ATOM     20  C   UNL d   1     -42.359  14.000  20.922  0.00  0.00     0.181 C 
ENDBRANCH  15  19
ENDBRANCH  11  13
ENDBRANCH   9  10
ENDBRANCH   8   9
ENDBRANCH   6   8
BRANCH   3  21
ATOM     21  C   UNL d   1     -48.042  12.599  23.527  0.00  0.00     0.322 C 
ATOM     22  O   UNL d   1     -47.290  12.303  23.692  0.00  0.00    -0.257 OA
BRANCH  21  23
ATOM     23  O   UNL d   1     -48.708  12.133  23.693  0.00  0.00    -0.270 OA
BRANCH  23  24
ATOM     24  C   UNL d   1     -48.671  11.317  23.631  0.00  0.00     0.126 C 
ATOM     25  C   UNL d   1     -49.362  10.869  23.661  0.00  0.00     0.029 C 
ENDBRANCH  23  24
ENDBRANCH  21  23
ENDBRANCH   3  21
BRANCH   1  26
ATOM     26  C   UNL d   1     -49.635  14.907  23.053  0.00  0.00     0.097 A 
ATOM     27  C   UNL d   1     -50.294  14.697  22.583  0.00  0.00     0.075 A 
ATOM     28 CL   UNL d   1     -50.228  14.090  22.039  0.00  0.00    -0.081 Cl
ATOM     29  C   UNL d   1     -50.998  15.105  22.676  0.00  0.00     0.013 A 
ATOM     30  C   UNL d   1     -51.064  15.718  23.226  0.00  0.00     0.001 A 
ATOM     31  C   UNL d   1     -50.405  15.922  23.690  0.00  0.00     0.002 A 
ATOM     32  C   UNL d   1     -49.693  15.513  23.599  0.00  0.00     0.020 A 
ENDBRANCH   1  26
TORSDOF 9
ENDMDL
MODEL 3
REMARK VINA RESULT:      -2.6      2.195      6.609
REMARK  9 active torsions:
REMARK  status: ('A' for Active; 'I' for Inactive)
REMARK    1  A    between atoms: C_7  and  N_1 
REMARK    2  A    between atoms: C_8  and  C_3 
REMARK    3  A    between atoms: O_9  and  C_6 
REMARK    4  A    between atoms: O_19  and  C_8 
REMARK    5  A    between atoms: C_18  and  O_9 
REMARK    6  A    between atoms: C_10  and  C_18 
REMARK       I    between atoms: N_11  and  C_10 
REMARK    7  A    between atoms: C_14  and  N_11 
REMARK    8  A    between atoms: C_28  and  O_19 
REMARK    9  A    between atoms: O_23  and  C_20 
ROOT
ATOM      1  N   UNL d   1     -45.916  12.499  22.591  0.00  0.00    -0.194 N 
ATOM      2  N   UNL d   1     -45.346  11.989  22.907  0.00  0.00    -0.155 NA
ATOM      3  C   UNL d   1     -44.575  12.023  22.629  0.00  0.00     0.187 A 
ATOM      4  C   UNL d   1     -45.708  13.036  22.000  0.00  0.00     0.282 A 
ATOM      5  C   UNL d   1     -44.931  13.064  21.725  0.00  0.00     0.089 A 
ATOM      6  C   UNL d   1     -44.367  12.560  22.038  0.00  0.00     0.130 A 
ATOM      7  O   UNL d   1     -46.275  13.542  21.686  0.00  0.00    -0.265 OA
ENDROOT
BRANCH   6   8
ATOM      8  O   UNL d   1     -43.590  12.588  21.763  0.00  0.00    -0.298 OA
BRANCH   8   9
ATOM      9  C   UNL d   1     -43.378  13.114  21.170  0.00  0.00     0.185 C 
BRANCH   9  10
ATOM     10  C   UNL d   1     -42.578  13.230  20.993  0.00  0.00     0.304 C 
ATOM     11  N   UNL d   1     -42.214  13.940  21.193  0.00  0.00    -0.206 NA
ATOM     12  O   UNL d   1     -42.152  12.638  20.620  0.00  0.00    -0.263 OA
BRANCH  11  13
ATOM     13  C   UNL d   1     -41.414  14.056  21.017  0.00  0.00     0.087 A 
ATOM     14  C   UNL d   1     -41.193  14.434  20.331  0.00  0.00     0.043 A 
ATOM     15  C   UNL d   1     -40.406  14.554  20.145  0.00  0.00     0.096 A 
ATOM     16  C   UNL d   1     -39.824  14.285  20.665  0.00  0.00     0.024 A 
ATOM     17  C   UNL d   1     -40.042  13.901  21.362  0.00  0.00     0.004 A 
ATOM     18  C   UNL d   1     -40.833  13.787  21.537  0.00  0.00     0.019 A 
BRANCH  15  19
ATOM     19  O   UNL d   1     -40.200  14.937  19.451  0.00  0.00    -0.328 OA
ATOM     20  C   UNL d   1     -39.684  14.566  18.922  0.00  0.00     0.181 C 
ENDBRANCH  15  19
ENDBRANCH  11  13
ENDBRANCH   9  10
ENDBRANCH   8   9
ENDBRANCH   6   8
BRANCH   3  21
ATOM     21  C   UNL d   1     -44.011  11.519  22.942  0.00  0.00     0.322 C 
ATOM     22  O   UNL d   1     -43.303  11.823  23.238  0.00  0.00    -0.257 OA
BRANCH  21  23
ATOM     23  O   UNL d   1     -44.143  10.701  22.965  0.00  0.00    -0.270 OA
BRANCH  23  24
ATOM     24  C   UNL d   1     -43.708  10.223  23.468  0.00  0.00     0.126 C 
ATOM     25  C   UNL d   1     -44.003   9.488  23.698  0.00  0.00     0.029 C 
ENDBRANCH  23  24
ENDBRANCH  21  23
ENDBRANCH   3  21
BRANCH   1  26
ATOM     26  C   UNL d   1     -46.691  12.468  22.867  0.00  0.00     0.097 A 
ATOM     27  C   UNL d   1     -46.956  13.029  23.427  0.00  0.00     0.075 A 
ATOM     28 CL   UNL d   1     -46.443  13.606  23.698  0.00  0.00    -0.081 Cl
ATOM     29  C   UNL d   1     -47.728  12.992  23.698  0.00  0.00     0.013 A 
ATOM     30  C   UNL d   1     -48.245  12.409  23.424  0.00  0.00     0.001 A 
ATOM     31  C   UNL d   1     -47.975  11.853  22.867  0.00  0.00     0.002 A 
ATOM     32  C   UNL d   1     -47.198  11.888  22.592  0.00  0.00     0.020 A 
ENDBRANCH   1  26
TORSDOF 9
ENDMDL
MODEL 4
REMARK VINA RESULT:      -2.3      3.082      7.572
REMARK  9 active torsions:
REMARK  status: ('A' for Active; 'I' for Inactive)
REMARK    1  A    between atoms: C_7  and  N_1 
REMARK    2  A    between atoms: C_8  and  C_3 
REMARK    3  A    between atoms: O_9  and  C_6 
REMARK    4  A    between atoms: O_19  and  C_8 
REMARK    5  A    between atoms: C_18  and  O_9 
REMARK    6  A    between atoms: C_10  and  C_18 
REMARK       I    between atoms: N_11  and  C_10 
REMARK    7  A    between atoms: C_14  and  N_11 
REMARK    8  A    between atoms: C_28  and  O_19 
REMARK    9  A    between atoms: O_23  and  C_20 
ROOT
ATOM      1  N   UNL d   1     -48.300  12.328  22.844  0.00  0.00    -0.194 N 
ATOM      2  N   UNL d   1     -48.003  13.094  22.944  0.00  0.00    -0.155 NA
ATOM      3  C   UNL d   1     -47.195  13.227  22.875  0.00  0.00     0.187 A 
ATOM      4  C   UNL d   1     -47.787  11.705  22.676  0.00  0.00     0.282 A 
ATOM      5  C   UNL d   1     -46.977  11.845  22.609  0.00  0.00     0.089 A 
ATOM      6  C   UNL d   1     -46.682  12.603  22.708  0.00  0.00     0.130 A 
ATOM      7  O   UNL d   1     -48.082  10.943  22.577  0.00  0.00    -0.265 OA
ENDROOT
BRANCH   6   8
ATOM      8  O   UNL d   1     -45.872  12.744  22.640  0.00  0.00    -0.298 OA
BRANCH   8   9
ATOM      9  C   UNL d   1     -45.432  12.365  22.060  0.00  0.00     0.185 C 
BRANCH   9  10
ATOM     10  C   UNL d   1     -44.609  12.446  22.054  0.00  0.00     0.304 C 
ATOM     11  N   UNL d   1     -44.242  12.851  21.439  0.00  0.00    -0.206 NA
ATOM     12  O   UNL d   1     -44.162  12.123  22.660  0.00  0.00    -0.263 OA
BRANCH  11  13
ATOM     13  C   UNL d   1     -43.419  12.932  21.433  0.00  0.00     0.087 A 
ATOM     14  C   UNL d   1     -43.068  13.557  21.048  0.00  0.00     0.043 A 
ATOM     15  C   UNL d   1     -42.255  13.648  21.036  0.00  0.00     0.096 A 
ATOM     16  C   UNL d   1     -41.782  13.092  21.422  0.00  0.00     0.024 A 
ATOM     17  C   UNL d   1     -42.133  12.456  21.814  0.00  0.00     0.004 A 
ATOM     18  C   UNL d   1     -42.947  12.376  21.819  0.00  0.00     0.019 A 
BRANCH  15  19
ATOM     19  O   UNL d   1     -41.917  14.282  20.644  0.00  0.00    -0.328 OA
ATOM     20  C   UNL d   1     -41.459  14.823  21.069  0.00  0.00     0.181 C 
ENDBRANCH  15  19
ENDBRANCH  11  13
ENDBRANCH   9  10
ENDBRANCH   8   9
ENDBRANCH   6   8
BRANCH   3  21
ATOM     21  C   UNL d   1     -46.902  13.984  22.974  0.00  0.00     0.322 C 
ATOM     22  O   UNL d   1     -46.445  14.168  23.637  0.00  0.00    -0.257 OA
BRANCH  21  23
ATOM     23  O   UNL d   1     -47.057  14.574  22.412  0.00  0.00    -0.270 OA
BRANCH  23  24
ATOM     24  C   UNL d   1     -47.317  15.314  22.646  0.00  0.00     0.126 C 
ATOM     25  C   UNL d   1     -47.633  15.836  22.091  0.00  0.00     0.029 C 
ENDBRANCH  23  24
ENDBRANCH  21  23
ENDBRANCH   3  21
BRANCH   1  26
ATOM     26  C   UNL d   1     -49.108  12.192  22.912  0.00  0.00     0.097 A 
ATOM     27  C   UNL d   1     -49.608  12.311  22.252  0.00  0.00     0.075 A 
ATOM     28 CL   UNL d   1     -49.290  12.563  21.542  0.00  0.00    -0.081 Cl
ATOM     29  C   UNL d   1     -50.411  12.173  22.328  0.00  0.00     0.013 A 
ATOM     30  C   UNL d   1     -50.733  11.918  23.045  0.00  0.00     0.001 A 
ATOM     31  C   UNL d   1     -50.229  11.801  23.698  0.00  0.00     0.002 A 
ATOM     32  C   UNL d   1     -49.419  11.939  23.625  0.00  0.00     0.020 A 
ENDBRANCH   1  26
TORSDOF 9
ENDMDL
