MODEL 1
REMARK VINA RESULT:      -4.9      0.000      0.000
REMARK  4 active torsions:
REMARK  status: ('A' for Active; 'I' for Inactive)
REMARK    1  A    between atoms: N_8  and  C_3 
REMARK    2  A    between atoms: C_9  and  C_4 
REMARK    3  A    between atoms: C_15  and  N_8 
REMARK    4  A    between atoms: C_10  and  C_15 
ROOT
ATOM      1  C   UNL d   1      57.844  -1.359  30.335  0.00  0.00     0.192 A 
ATOM      2  N   UNL d   1      57.299  -1.411  30.937  0.00  0.00    -0.208 NA
ATOM      3  C   UNL d   1      58.106  -0.590  30.278  0.00  0.00     0.212 A 
ATOM      4  C   UNL d   1      57.218  -0.635  31.272  0.00  0.00     0.185 A 
ATOM      5  O   UNL d   1      57.730  -0.129  30.850  0.00  0.00    -0.269 OA
ATOM      6  C   UNL d   1      58.106  -1.982  29.842  0.00  0.00     0.124 C 
ATOM      7  N   UNL d   1      58.363  -2.608  29.354  0.00  0.00    -0.190 NA
ENDROOT
BRANCH   3   8
ATOM      8  N   UNL d   1      58.682  -0.321  29.709  0.00  0.00    -0.217 NA
BRANCH   8   9
ATOM      9  C   UNL d   1      59.116   0.357  29.851  0.00  0.00     0.126 C 
BRANCH   9  10
ATOM     10  C   UNL d   1      59.818   0.482  29.428  0.00  0.00     0.119 A 
ATOM     11  O   UNL d   1      59.990   0.552  28.628  0.00  0.00    -0.304 OA
ATOM     12  C   UNL d   1      60.797   0.674  28.550  0.00  0.00     0.123 A 
ATOM     13  C   UNL d   1      61.131   0.682  29.280  0.00  0.00     0.029 A 
ATOM     14  C   UNL d   1      60.546   0.565  29.837  0.00  0.00     0.028 A 
ENDBRANCH   9  10
ENDBRANCH   8   9
ENDBRANCH   3   8
BRANCH   4  15
ATOM     15  C   UNL d   1      56.716  -0.443  31.902  0.00  0.00     0.041 A 
ATOM     16  C   UNL d   1      56.557   0.345  32.084  0.00  0.00     0.004 A 
ATOM     17  C   UNL d   1      56.060   0.537  32.708  0.00  0.00     0.000 A 
ATOM     18  C   UNL d   1      55.715  -0.056  33.158  0.00  0.00     0.000 A 
ATOM     19  C   UNL d   1      55.876  -0.844  32.974  0.00  0.00     0.000 A 
ATOM     20  C   UNL d   1      55.203   0.159  33.801  0.00  0.00     0.000 C 
ATOM     21  C   UNL d   1      56.373  -1.036  32.350  0.00  0.00     0.004 A 
ENDBRANCH   4  15
TORSDOF 4
ENDMDL
MODEL 2
REMARK VINA RESULT:      -4.5      1.883      4.827
REMARK  4 active torsions:
REMARK  status: ('A' for Active; 'I' for Inactive)
REMARK    1  A    between atoms: N_8  and  C_3 
REMARK    2  A    between atoms: C_9  and  C_4 
REMARK    3  A    between atoms: C_15  and  N_8 
REMARK    4  A    between atoms: C_10  and  C_15 
ROOT
ATOM      1  C   UNL d   1      58.383  -0.730  29.099  0.00  0.00     0.192 A 
ATOM      2  N   UNL d   1      58.903  -1.240  28.735  0.00  0.00    -0.208 NA
ATOM      3  C   UNL d   1      58.205  -1.015  29.841  0.00  0.00     0.212 A 
ATOM      4  C   UNL d   1      59.056  -1.875  29.278  0.00  0.00     0.185 A 
ATOM      5  O   UNL d   1      58.612  -1.721  29.968  0.00  0.00    -0.269 OA
ATOM      6  C   UNL d   1      58.071  -0.022  28.780  0.00  0.00     0.124 C 
ATOM      7  N   UNL d   1      57.764   0.682  28.455  0.00  0.00    -0.190 NA
ENDROOT
BRANCH   3   8
ATOM      8  N   UNL d   1      57.677  -0.629  30.388  0.00  0.00    -0.217 NA
BRANCH   8   9
ATOM      9  C   UNL d   1      57.457  -1.002  31.081  0.00  0.00     0.126 C 
BRANCH   9  10
ATOM     10  C   UNL d   1      56.971  -0.599  31.619  0.00  0.00     0.119 A 
ATOM     11  O   UNL d   1      56.790   0.193  31.732  0.00  0.00    -0.304 OA
ATOM     12  C   UNL d   1      56.268   0.250  32.362  0.00  0.00     0.123 A 
ATOM     13  C   UNL d   1      56.120  -0.488  32.644  0.00  0.00     0.029 A 
ATOM     14  C   UNL d   1      56.543  -1.027  32.201  0.00  0.00     0.028 A 
ENDBRANCH   9  10
ENDBRANCH   8   9
ENDBRANCH   3   8
BRANCH   4  15
ATOM     15  C   UNL d   1      59.558  -2.516  29.126  0.00  0.00     0.041 A 
ATOM     16  C   UNL d   1      59.249  -3.235  28.866  0.00  0.00     0.004 A 
ATOM     17  C   UNL d   1      59.744  -3.871  28.715  0.00  0.00     0.000 A 
ATOM     18  C   UNL d   1      60.555  -3.797  28.821  0.00  0.00     0.000 A 
ATOM     19  C   UNL d   1      60.861  -3.075  29.081  0.00  0.00     0.000 A 
ATOM     20  C   UNL d   1      61.055  -4.464  28.660  0.00  0.00     0.000 C 
ATOM     21  C   UNL d   1      60.365  -2.439  29.232  0.00  0.00     0.004 A 
ENDBRANCH   4  15
TORSDOF 4
ENDMDL
MODEL 3
REMARK VINA RESULT:      -3.0      9.612      9.844
REMARK  4 active torsions:
REMARK  status: ('A' for Active; 'I' for Inactive)
REMARK    1  A    between atoms: N_8  and  C_3 
REMARK    2  A    between atoms: C_9  and  C_4 
REMARK    3  A    between atoms: C_15  and  N_8 
REMARK    4  A    between atoms: C_10  and  C_15 
ROOT
ATOM      1  C   UNL d   1      58.566  -9.682  32.254  0.00  0.00     0.192 A 
ATOM      2  N   UNL d   1      58.649  -9.586  33.059  0.00  0.00    -0.208 NA
ATOM      3  C   UNL d   1      59.305  -9.719  31.913  0.00  0.00     0.212 A 
ATOM      4  C   UNL d   1      59.481  -9.561  33.226  0.00  0.00     0.185 A 
ATOM      5  O   UNL d   1      59.881  -9.646  32.499  0.00  0.00    -0.269 OA
ATOM      6  C   UNL d   1      57.849  -9.738  31.828  0.00  0.00     0.124 C 
ATOM      7  N   UNL d   1      57.129  -9.792  31.409  0.00  0.00    -0.190 NA
ENDROOT
BRANCH   3   8
ATOM      8  N   UNL d   1      59.442  -9.818  31.077  0.00  0.00    -0.217 NA
BRANCH   8   9
ATOM      9  C   UNL d   1      60.200  -9.774  30.776  0.00  0.00     0.126 C 
BRANCH   9  10
ATOM     10  C   UNL d   1      60.310  -9.788  29.954  0.00  0.00     0.119 A 
ATOM     11  O   UNL d   1      59.793  -9.813  29.316  0.00  0.00    -0.304 OA
ATOM     12  C   UNL d   1      60.236  -9.816  28.627  0.00  0.00     0.123 A 
ATOM     13  C   UNL d   1      61.016  -9.792  28.820  0.00  0.00     0.029 A 
ATOM     14  C   UNL d   1      61.085  -9.775  29.633  0.00  0.00     0.028 A 
ENDBRANCH   9  10
ENDBRANCH   8   9
ENDBRANCH   3   8
BRANCH   4  15
ATOM     15  C   UNL d   1      59.807  -9.469  33.982  0.00  0.00     0.041 A 
ATOM     16  C   UNL d   1      59.380  -9.691  34.651  0.00  0.00     0.004 A 
ATOM     17  C   UNL d   1      59.702  -9.601  35.400  0.00  0.00     0.000 A 
ATOM     18  C   UNL d   1      60.456  -9.287  35.490  0.00  0.00     0.000 A 
ATOM     19  C   UNL d   1      60.881  -9.066  34.818  0.00  0.00     0.000 A 
ATOM     20  C   UNL d   1      60.775  -9.200  36.272  0.00  0.00     0.000 C 
ATOM     21  C   UNL d   1      60.558  -9.156  34.069  0.00  0.00     0.004 A 
ENDBRANCH   4  15
TORSDOF 4
ENDMDL
MODEL 4
REMARK VINA RESULT:      -2.8      1.737      2.403
REMARK  4 active torsions:
REMARK  status: ('A' for Active; 'I' for Inactive)
REMARK    1  A    between atoms: N_8  and  C_3 
REMARK    2  A    between atoms: C_9  and  C_4 
REMARK    3  A    between atoms: C_15  and  N_8 
REMARK    4  A    between atoms: C_10  and  C_15 
ROOT
ATOM      1  C   UNL d   1      58.175   0.665  32.520  0.00  0.00     0.192 A 
ATOM      2  N   UNL d   1      57.672   0.674  33.161  0.00  0.00    -0.208 NA
ATOM      3  C   UNL d   1      57.735   0.647  31.835  0.00  0.00     0.212 A 
ATOM      4  C   UNL d   1      56.879   0.660  32.858  0.00  0.00     0.185 A 
ATOM      5  O   UNL d   1      56.932   0.644  32.026  0.00  0.00    -0.269 OA
ATOM      6  C   UNL d   1      59.012   0.673  32.541  0.00  0.00     0.124 C 
ATOM      7  N   UNL d   1      59.845   0.681  32.570  0.00  0.00    -0.190 NA
ENDROOT
BRANCH   3   8
ATOM      8  N   UNL d   1      58.070   0.633  31.051  0.00  0.00    -0.217 NA
BRANCH   8   9
ATOM      9  C   UNL d   1      57.829   0.072  30.509  0.00  0.00     0.126 C 
BRANCH   9  10
ATOM     10  C   UNL d   1      58.178   0.059  29.758  0.00  0.00     0.119 A 
ATOM     11  O   UNL d   1      58.267   0.623  29.167  0.00  0.00    -0.304 OA
ATOM     12  C   UNL d   1      58.667   0.277  28.541  0.00  0.00     0.123 A 
ATOM     13  C   UNL d   1      58.830  -0.488  28.727  0.00  0.00     0.029 A 
ATOM     14  C   UNL d   1      58.538  -0.643  29.472  0.00  0.00     0.028 A 
ENDBRANCH   9  10
ENDBRANCH   8   9
ENDBRANCH   3   8
BRANCH   4  15
ATOM     15  C   UNL d   1      56.195   0.664  33.326  0.00  0.00     0.041 A 
ATOM     16  C   UNL d   1      56.253   0.669  34.148  0.00  0.00     0.004 A 
ATOM     17  C   UNL d   1      55.576   0.672  34.613  0.00  0.00     0.000 A 
ATOM     18  C   UNL d   1      54.834   0.671  34.262  0.00  0.00     0.000 A 
ATOM     19  C   UNL d   1      54.781   0.667  33.438  0.00  0.00     0.000 A 
ATOM     20  C   UNL d   1      54.144   0.675  34.756  0.00  0.00     0.000 C 
ATOM     21  C   UNL d   1      55.457   0.663  32.973  0.00  0.00     0.004 A 
ENDBRANCH   4  15
TORSDOF 4
ENDMDL
