MODEL 1
REMARK VINA RESULT:       7.1      0.000      0.000
REMARK  5 active torsions:
REMARK  status: ('A' for Active; 'I' for Inactive)
REMARK    1  A    between atoms: C_3  and  C_1 
REMARK    2  A    between atoms: C_2  and  C_3 
REMARK    3  A    between atoms: C_4  and  C_2 
REMARK    4  A    between atoms: C_7  and  C_4 
REMARK    5  A    between atoms: O_14  and  C_8 
ROOT
ATOM      1  C   UNL d   1      24.571  12.721  -1.680  0.00  0.00     0.042 C 
ENDROOT
BRANCH   1   2
ATOM      2  C   UNL d   1      24.314  12.531  -0.885  0.00  0.00     0.199 C 
ATOM      3  O   UNL d   1      24.768  12.005  -0.429  0.00  0.00    -0.286 OA
BRANCH   2   4
ATOM      4  C   UNL d   1      23.617  12.881  -0.594  0.00  0.00     0.078 A 
ATOM      5  C   UNL d   1      23.610  13.681  -0.409  0.00  0.00     0.199 A 
ATOM      6  O   UNL d   1      24.303  14.138  -0.515  0.00  0.00    -0.286 OA
ATOM      7  C   UNL d   1      22.936  14.032  -0.125  0.00  0.00     0.042 A 
ATOM      8  C   UNL d   1      22.239  13.560  -0.020  0.00  0.00     0.003 A 
ATOM      9  C   UNL d   1      22.252  12.788  -0.200  0.00  0.00     0.000 A 
ATOM     10  C   UNL d   1      22.934  12.434  -0.488  0.00  0.00     0.006 A 
ENDBRANCH   2   4
ENDBRANCH   1   2
BRANCH   1  11
ATOM     11  C   UNL d   1      24.648  12.099  -2.247  0.00  0.00     0.003 C 
BRANCH  11  12
ATOM     12  C   UNL d   1      24.676  12.320  -3.024  0.00  0.00     0.000 A 
ATOM     13  C   UNL d   1      24.653  11.780  -3.626  0.00  0.00     0.002 A 
ATOM     14  C   UNL d   1      24.683  12.038  -4.409  0.00  0.00     0.024 A 
ATOM     15  C   UNL d   1      24.737  12.838  -4.600  0.00  0.00     0.094 A 
ATOM     16  C   UNL d   1      24.761  13.388  -3.982  0.00  0.00     0.024 A 
ATOM     17  C   UNL d   1      24.731  13.139  -3.192  0.00  0.00     0.002 A 
BRANCH  15  18
ATOM     18  O   UNL d   1      24.767  13.089  -5.392  0.00  0.00    -0.328 OA
ATOM     19  C   UNL d   1      24.763  12.545  -6.015  0.00  0.00     0.181 C 
ENDBRANCH  15  18
ENDBRANCH  11  12
ENDBRANCH   1  11
TORSDOF 5
ENDMDL
