MODEL 1
REMARK VINA RESULT:      -4.8      0.000      0.000
REMARK  5 active torsions:
REMARK  status: ('A' for Active; 'I' for Inactive)
REMARK    1  A    between atoms: S_10  and  C_4 
REMARK    2  A    between atoms: C_15  and  S_10 
REMARK    3  A    between atoms: C_11  and  C_15 
REMARK       I    between atoms: N_12  and  C_11 
REMARK    4  A    between atoms: C_16  and  N_12 
REMARK    5  A    between atoms: C_17  and  C_16 
ROOT
ATOM      1  C   UNL d   1      59.366  -1.456  29.197  0.00  0.00     0.141 A 
ATOM      2  C   UNL d   1      60.159  -1.661  29.103  0.00  0.00     0.110 A 
ATOM      3  O   UNL d   1      58.908  -2.124  29.033  0.00  0.00    -0.303 OA
ATOM      4  C   UNL d   1      59.161  -0.689  29.421  0.00  0.00     0.137 A 
ATOM      5  N   UNL d   1      59.751  -0.127  29.550  0.00  0.00    -0.218 NA
ATOM      6  C   UNL d   1      60.193  -2.456  28.880  0.00  0.00     0.043 A 
ATOM      7  N   UNL d   1      60.749  -1.099  29.232  0.00  0.00    -0.225 NA
ATOM      8  C   UNL d   1      59.419  -2.741  28.837  0.00  0.00     0.102 A 
ATOM      9  C   UNL d   1      60.544  -0.331  29.456  0.00  0.00     0.163 A 
ATOM     10  C   UNL d   1      60.827  -2.955  28.711  0.00  0.00     0.004 A 
ATOM     11  C   UNL d   1      59.282  -3.526  28.624  0.00  0.00     0.025 A 
ATOM     12  C   UNL d   1      61.133   0.231  29.585  0.00  0.00     0.042 C 
ATOM     13  C   UNL d   1      60.689  -3.741  28.499  0.00  0.00     0.000 A 
ATOM     14  C   UNL d   1      59.916  -4.026  28.455  0.00  0.00     0.002 A 
ENDROOT
BRANCH   4  15
ATOM     15  S   UNL d   1      58.369  -0.484  29.515  0.00  0.00    -0.060 SA
BRANCH  15  16
ATOM     16  C   UNL d   1      58.090  -0.241  30.255  0.00  0.00     0.099 C 
BRANCH  16  17
ATOM     17  C   UNL d   1      57.390   0.190  30.311  0.00  0.00     0.286 C 
ATOM     18  N   UNL d   1      56.922   0.130  30.988  0.00  0.00    -0.204 NA
ATOM     19  O   UNL d   1      57.157   0.681  29.690  0.00  0.00    -0.265 OA
BRANCH  18  20
ATOM     20  C   UNL d   1      57.154  -0.361  31.608  0.00  0.00     0.127 C 
BRANCH  20  21
ATOM     21  C   UNL d   1      56.646  -0.494  32.244  0.00  0.00     0.119 A 
ATOM     22  O   UNL d   1      56.165  -1.157  32.349  0.00  0.00    -0.304 OA
ATOM     23  C   UNL d   1      55.751  -1.061  33.055  0.00  0.00     0.123 A 
ATOM     24  C   UNL d   1      55.974  -0.340  33.387  0.00  0.00     0.029 A 
ATOM     25  C   UNL d   1      56.528   0.011  32.885  0.00  0.00     0.028 A 
ENDBRANCH  20  21
ENDBRANCH  18  20
ENDBRANCH  16  17
ENDBRANCH  15  16
ENDBRANCH   4  15
TORSDOF 5
ENDMDL
MODEL 2
REMARK VINA RESULT:      -3.6      1.424      5.218
REMARK  5 active torsions:
REMARK  status: ('A' for Active; 'I' for Inactive)
REMARK    1  A    between atoms: S_10  and  C_4 
REMARK    2  A    between atoms: C_15  and  S_10 
REMARK    3  A    between atoms: C_11  and  C_15 
REMARK       I    between atoms: N_12  and  C_11 
REMARK    4  A    between atoms: C_16  and  N_12 
REMARK    5  A    between atoms: C_17  and  C_16 
ROOT
ATOM      1  C   UNL d   1      57.025   0.655  32.320  0.00  0.00     0.141 A 
ATOM      2  C   UNL d   1      57.147   0.662  33.136  0.00  0.00     0.110 A 
ATOM      3  O   UNL d   1      56.211   0.646  32.183  0.00  0.00    -0.303 OA
ATOM      4  C   UNL d   1      57.671   0.657  31.807  0.00  0.00     0.137 A 
ATOM      5  N   UNL d   1      58.438   0.666  32.111  0.00  0.00    -0.218 NA
ATOM      6  C   UNL d   1      56.407   0.658  33.504  0.00  0.00     0.043 A 
ATOM      7  N   UNL d   1      57.913   0.671  33.440  0.00  0.00    -0.225 NA
ATOM      8  C   UNL d   1      55.829   0.648  32.914  0.00  0.00     0.102 A 
ATOM      9  C   UNL d   1      58.560   0.673  32.927  0.00  0.00     0.163 A 
ATOM     10  C   UNL d   1      56.185   0.662  34.298  0.00  0.00     0.004 A 
ATOM     11  C   UNL d   1      55.030   0.643  33.120  0.00  0.00     0.025 A 
ATOM     12  C   UNL d   1      59.326   0.682  33.230  0.00  0.00     0.042 C 
ATOM     13  C   UNL d   1      55.385   0.656  34.504  0.00  0.00     0.000 A 
ATOM     14  C   UNL d   1      54.809   0.647  33.915  0.00  0.00     0.002 A 
ENDROOT
BRANCH   4  15
ATOM     15  S   UNL d   1      57.551   0.649  30.992  0.00  0.00    -0.060 SA
BRANCH  15  16
ATOM     16  C   UNL d   1      58.043   0.195  30.507  0.00  0.00     0.099 C 
BRANCH  16  17
ATOM     17  C   UNL d   1      57.847   0.079  29.714  0.00  0.00     0.286 C 
ATOM     18  N   UNL d   1      58.164  -0.561  29.301  0.00  0.00    -0.204 NA
ATOM     19  O   UNL d   1      57.335   0.604  29.334  0.00  0.00    -0.265 OA
BRANCH  18  20
ATOM     20  C   UNL d   1      58.675  -1.085  29.679  0.00  0.00     0.127 C 
BRANCH  20  21
ATOM     21  C   UNL d   1      58.970  -1.740  29.275  0.00  0.00     0.119 A 
ATOM     22  O   UNL d   1      58.592  -2.469  29.192  0.00  0.00    -0.304 OA
ATOM     23  C   UNL d   1      59.083  -2.961  28.749  0.00  0.00     0.123 A 
ATOM     24  C   UNL d   1      59.764  -2.538  28.557  0.00  0.00     0.029 A 
ATOM     25  C   UNL d   1      59.695  -1.782  28.883  0.00  0.00     0.028 A 
ENDBRANCH  20  21
ENDBRANCH  18  20
ENDBRANCH  16  17
ENDBRANCH  15  16
ENDBRANCH   4  15
TORSDOF 5
ENDMDL
