MODEL 1
REMARK VINA RESULT:      45.8      0.000      0.000
REMARK  6 active torsions:
REMARK  status: ('A' for Active; 'I' for Inactive)
REMARK    1  A    between atoms: O_4  and  C_1 
REMARK    2  A    between atoms: C_9  and  C_2 
REMARK    3  A    between atoms: C_5  and  O_4 
REMARK    4  A    between atoms: C_11  and  C_5 
REMARK    5  A    between atoms: N_10  and  C_9 
REMARK    6  A    between atoms: O_19  and  C_17 
ROOT
ATOM      1  C   UNL d   1      13.399  13.580  -3.510  0.00  0.00     0.122 A 
ATOM      2  C   UNL d   1      13.371  14.399  -3.606  0.00  0.00     0.043 A 
ATOM      3  C   UNL d   1      13.227  13.086  -4.148  0.00  0.00     0.105 A 
ATOM      4  C   UNL d   1      13.029  13.409  -4.880  0.00  0.00     0.030 A 
ATOM      5  C   UNL d   1      13.004  14.224  -4.966  0.00  0.00     0.059 A 
ATOM      6  C   UNL d   1      13.173  14.722  -4.338  0.00  0.00     0.015 A 
ATOM      7  N   UNL d   1      13.255  12.274  -4.049  0.00  0.00    -0.242 NA
ATOM      8 CL   UNL d   1      12.801  14.529  -5.717  0.00  0.00    -0.082 Cl
ATOM      9  C   UNL d   1      12.861  12.918  -5.505  0.00  0.00     0.004 A 
ATOM     10  C   UNL d   1      13.084  11.780  -4.687  0.00  0.00     0.099 A 
ATOM     11  C   UNL d   1      12.886  12.103  -5.418  0.00  0.00     0.021 A 
ENDROOT
BRANCH   1  12
ATOM     12  O   UNL d   1      13.577  13.277  -2.852  0.00  0.00    -0.271 OA
BRANCH  12  13
ATOM     13  C   UNL d   1      14.017  12.504  -2.478  0.00  0.00     0.300 C 
ATOM     14  O   UNL d   1      14.386  11.871  -3.164  0.00  0.00    -0.259 OA
BRANCH  13  15
ATOM     15  C   UNL d   1      14.073  12.395  -1.664  0.00  0.00     0.066 A 
ATOM     16  C   UNL d   1      14.665  12.789  -1.233  0.00  0.00     0.029 A 
ATOM     17  C   UNL d   1      14.718  12.676  -0.408  0.00  0.00     0.094 A 
ATOM     18  C   UNL d   1      14.183  12.171  -0.014  0.00  0.00     0.024 A 
ATOM     19  C   UNL d   1      13.594  11.779  -0.448  0.00  0.00     0.002 A 
ATOM     20  C   UNL d   1      13.541  11.893  -1.272  0.00  0.00     0.005 A 
BRANCH  17  21
ATOM     21  O   UNL d   1      15.342  13.111  -0.056  0.00  0.00    -0.328 OA
ATOM     22  C   UNL d   1      15.153  13.887  -0.333  0.00  0.00     0.181 C 
ENDBRANCH  17  21
ENDBRANCH  13  15
ENDBRANCH  12  13
ENDBRANCH   1  12
BRANCH   2  23
ATOM     23  C   UNL d   1      13.525  15.089  -3.034  0.00  0.00     0.082 C 
BRANCH  23  24
ATOM     24  N   UNL d   1      14.150  15.602  -3.177  0.00  0.00    -0.299 N 
ATOM     25  C   UNL d   1      14.281  15.893  -3.925  0.00  0.00     0.107 A 
ATOM     26  C   UNL d   1      14.904  16.404  -4.072  0.00  0.00     0.142 A 
ATOM     27  O   UNL d   1      15.404  16.625  -3.448  0.00  0.00    -0.300 OA
ATOM     28  C   UNL d   1      15.277  16.336  -2.695  0.00  0.00     0.142 A 
ATOM     29  C   UNL d   1      14.643  15.821  -2.565  0.00  0.00     0.107 A 
ENDBRANCH  23  24
ENDBRANCH   2  23
TORSDOF 6
ENDMDL
MODEL 2
REMARK VINA RESULT:      47.8      1.717      3.761
REMARK  6 active torsions:
REMARK  status: ('A' for Active; 'I' for Inactive)
REMARK    1  A    between atoms: O_4  and  C_1 
REMARK    2  A    between atoms: C_9  and  C_2 
REMARK    3  A    between atoms: C_5  and  O_4 
REMARK    4  A    between atoms: C_11  and  C_5 
REMARK    5  A    between atoms: N_10  and  C_9 
REMARK    6  A    between atoms: O_19  and  C_17 
ROOT
ATOM      1  C   UNL d   1      14.219  13.632  -1.793  0.00  0.00     0.122 A 
ATOM      2  C   UNL d   1      14.519  14.400  -1.776  0.00  0.00     0.043 A 
ATOM      3  C   UNL d   1      14.453  13.086  -1.220  0.00  0.00     0.105 A 
ATOM      4  C   UNL d   1      14.986  13.308  -0.632  0.00  0.00     0.030 A 
ATOM      5  C   UNL d   1      15.279  14.074  -0.622  0.00  0.00     0.059 A 
ATOM      6  C   UNL d   1      15.052  14.622  -1.188  0.00  0.00     0.015 A 
ATOM      7  N   UNL d   1      14.154  12.326  -1.241  0.00  0.00    -0.242 NA
ATOM      8 CL   UNL d   1      15.818  14.276  -0.016  0.00  0.00    -0.082 Cl
ATOM      9  C   UNL d   1      15.213  12.767  -0.070  0.00  0.00     0.004 A 
ATOM     10  C   UNL d   1      14.387  11.780  -0.668  0.00  0.00     0.099 A 
ATOM     11  C   UNL d   1      14.920  12.002  -0.080  0.00  0.00     0.021 A 
ENDROOT
BRANCH   1  12
ATOM     12  O   UNL d   1      13.736  13.421  -2.322  0.00  0.00    -0.271 OA
BRANCH  12  13
ATOM     13  C   UNL d   1      13.468  13.641  -3.222  0.00  0.00     0.300 C 
ATOM     14  O   UNL d   1      13.367  14.626  -3.390  0.00  0.00    -0.259 OA
BRANCH  13  15
ATOM     15  C   UNL d   1      13.339  13.056  -3.786  0.00  0.00     0.066 A 
ATOM     16  C   UNL d   1      13.646  13.145  -4.554  0.00  0.00     0.029 A 
ATOM     17  C   UNL d   1      13.513  12.551  -5.123  0.00  0.00     0.094 A 
ATOM     18  C   UNL d   1      13.075  11.867  -4.927  0.00  0.00     0.024 A 
ATOM     19  C   UNL d   1      12.770  11.781  -4.160  0.00  0.00     0.002 A 
ATOM     20  C   UNL d   1      12.903  12.376  -3.591  0.00  0.00     0.005 A 
BRANCH  17  21
ATOM     21  O   UNL d   1      13.858  12.723  -5.867  0.00  0.00    -0.328 OA
ATOM     22  C   UNL d   1      13.970  11.939  -6.161  0.00  0.00     0.181 C 
ENDBRANCH  17  21
ENDBRANCH  13  15
ENDBRANCH  12  13
ENDBRANCH   1  12
BRANCH   2  23
ATOM     23  C   UNL d   1      14.383  15.125  -2.309  0.00  0.00     0.082 C 
BRANCH  23  24
ATOM     24  N   UNL d   1      14.725  15.844  -2.110  0.00  0.00    -0.299 N 
ATOM     25  C   UNL d   1      14.687  16.122  -1.346  0.00  0.00     0.107 A 
ATOM     26  C   UNL d   1      15.028  16.839  -1.144  0.00  0.00     0.142 A 
ATOM     27  O   UNL d   1      15.416  17.282  -1.728  0.00  0.00    -0.300 OA
ATOM     28  C   UNL d   1      15.459  17.008  -2.495  0.00  0.00     0.142 A 
ATOM     29  C   UNL d   1      15.108  16.283  -2.682  0.00  0.00     0.107 A 
ENDBRANCH  23  24
ENDBRANCH   2  23
TORSDOF 6
ENDMDL
