MODEL 1
REMARK VINA RESULT:       2.7      0.000      0.000
REMARK  5 active torsions:
REMARK  status: ('A' for Active; 'I' for Inactive)
REMARK    1  A    between atoms: C_7  and  C_1 
REMARK    2  A    between atoms: C_8  and  C_2 
REMARK    3  A    between atoms: O_22  and  C_8 
REMARK    4  A    between atoms: C_24  and  C_14 
REMARK    5  A    between atoms: C_27  and  O_22 
ROOT
ATOM      1  C   UNL d   1      30.880  17.643 -23.740  0.00  0.00     0.067 A 
ATOM      2  C   UNL d   1      31.109  16.851 -23.738  0.00  0.00     0.166 A 
ATOM      3  C   UNL d   1      30.074  17.839 -23.726  0.00  0.00     0.200 A 
ATOM      4  C   UNL d   1      29.504  17.245 -23.711  0.00  0.00     0.062 A 
ATOM      5  O   UNL d   1      30.533  16.254 -23.722  0.00  0.00    -0.301 OA
ATOM      6  C   UNL d   1      29.733  16.452 -23.708  0.00  0.00     0.106 A 
ATOM      7  C   UNL d   1      28.705  17.442 -23.697  0.00  0.00     0.008 A 
ATOM      8  C   UNL d   1      29.164  15.857 -23.693  0.00  0.00     0.067 A 
ATOM      9  C   UNL d   1      28.365  16.056 -23.679  0.00  0.00     0.198 A 
ATOM     10  C   UNL d   1      28.135  16.848 -23.681  0.00  0.00     0.039 A 
ATOM     11  O   UNL d   1      29.844  18.631 -23.728  0.00  0.00    -0.286 OA
ATOM     12  O   UNL d   1      27.784  15.457 -23.663  0.00  0.00    -0.286 OA
ENDROOT
BRANCH   1  13
ATOM     13  C   UNL d   1      31.450  18.237 -23.756  0.00  0.00     0.007 A 
ATOM     14  C   UNL d   1      31.507  18.740 -24.410  0.00  0.00     0.027 A 
ATOM     15  C   UNL d   1      32.076  19.334 -24.425  0.00  0.00     0.123 A 
ATOM     16  O   UNL d   1      32.129  19.833 -25.080  0.00  0.00    -0.301 OA
ATOM     17  C   UNL d   1      32.592  19.428 -23.788  0.00  0.00     0.123 A 
ATOM     18  C   UNL d   1      32.712  20.438 -25.092  0.00  0.00     0.149 A 
ATOM     19  C   UNL d   1      33.231  20.538 -24.458  0.00  0.00     0.149 A 
ATOM     20  O   UNL d   1      33.172  20.032 -23.802  0.00  0.00    -0.301 OA
ATOM     21  C   UNL d   1      32.535  18.925 -23.133  0.00  0.00     0.027 A 
ATOM     22  C   UNL d   1      31.965  18.332 -23.118  0.00  0.00     0.002 A 
ENDBRANCH   1  13
BRANCH   2  23
ATOM     23  C   UNL d   1      31.913  16.654 -23.751  0.00  0.00     0.323 C 
ATOM     24  O   UNL d   1      32.351  16.664 -23.053  0.00  0.00    -0.257 OA
BRANCH  23  25
ATOM     25  O   UNL d   1      32.274  16.447 -24.463  0.00  0.00    -0.270 OA
BRANCH  25  26
ATOM     26  C   UNL d   1      32.936  15.958 -24.458  0.00  0.00     0.126 C 
ATOM     27  C   UNL d   1      33.077  15.455 -25.095  0.00  0.00     0.029 C 
ENDBRANCH  25  26
ENDBRANCH  23  25
ENDBRANCH   2  23
BRANCH  10  28
ATOM     28  C   UNL d   1      27.332  17.044 -23.668  0.00  0.00     0.003 C 
ATOM     29  C   UNL d   1      27.073  17.716 -23.265  0.00  0.00     0.000 C 
ENDBRANCH  10  28
TORSDOF 5
ENDMDL
MODEL 2
REMARK VINA RESULT:       3.7      3.642      6.309
REMARK  5 active torsions:
REMARK  status: ('A' for Active; 'I' for Inactive)
REMARK    1  A    between atoms: C_7  and  C_1 
REMARK    2  A    between atoms: C_8  and  C_2 
REMARK    3  A    between atoms: O_22  and  C_8 
REMARK    4  A    between atoms: C_24  and  C_14 
REMARK    5  A    between atoms: C_27  and  O_22 
ROOT
ATOM      1  C   UNL d   1      32.930  21.218 -21.444  0.00  0.00     0.067 A 
ATOM      2  C   UNL d   1      32.768  21.983 -21.704  0.00  0.00     0.166 A 
ATOM      3  C   UNL d   1      33.058  21.075 -20.637  0.00  0.00     0.200 A 
ATOM      4  C   UNL d   1      33.022  21.696 -20.096  0.00  0.00     0.062 A 
ATOM      5  O   UNL d   1      32.733  22.607 -21.158  0.00  0.00    -0.301 OA
ATOM      6  C   UNL d   1      32.860  22.461 -20.357  0.00  0.00     0.106 A 
ATOM      7  C   UNL d   1      33.149  21.551 -19.296  0.00  0.00     0.008 A 
ATOM      8  C   UNL d   1      32.824  23.082 -19.817  0.00  0.00     0.067 A 
ATOM      9  C   UNL d   1      32.951  22.937 -19.016  0.00  0.00     0.198 A 
ATOM     10  C   UNL d   1      33.113  22.171 -18.756  0.00  0.00     0.039 A 
ATOM     11  O   UNL d   1      33.220  20.310 -20.376  0.00  0.00    -0.286 OA
ATOM     12  O   UNL d   1      32.916  23.562 -18.465  0.00  0.00    -0.286 OA
ENDROOT
BRANCH   1  13
ATOM     13  C   UNL d   1      32.966  20.597 -21.984  0.00  0.00     0.007 A 
ATOM     14  C   UNL d   1      32.768  19.830 -21.748  0.00  0.00     0.027 A 
ATOM     15  C   UNL d   1      32.804  19.211 -22.289  0.00  0.00     0.123 A 
ATOM     16  O   UNL d   1      32.605  18.446 -22.048  0.00  0.00    -0.301 OA
ATOM     17  C   UNL d   1      33.037  19.354 -23.067  0.00  0.00     0.123 A 
ATOM     18  C   UNL d   1      32.643  17.817 -22.603  0.00  0.00     0.149 A 
ATOM     19  C   UNL d   1      32.875  17.952 -23.383  0.00  0.00     0.149 A 
ATOM     20  O   UNL d   1      33.073  18.724 -23.619  0.00  0.00    -0.301 OA
ATOM     21  C   UNL d   1      33.234  20.122 -23.304  0.00  0.00     0.027 A 
ATOM     22  C   UNL d   1      33.199  20.741 -22.763  0.00  0.00     0.002 A 
ENDBRANCH   1  13
BRANCH   2  23
ATOM     23  C   UNL d   1      32.641  22.128 -22.509  0.00  0.00     0.323 C 
ATOM     24  O   UNL d   1      31.919  21.925 -22.855  0.00  0.00    -0.257 OA
BRANCH  23  25
ATOM     25  O   UNL d   1      33.234  22.473 -22.964  0.00  0.00    -0.270 OA
BRANCH  25  26
ATOM     26  C   UNL d   1      33.147  23.247 -23.231  0.00  0.00     0.126 C 
ATOM     27  C   UNL d   1      33.241  23.418 -24.031  0.00  0.00     0.029 C 
ENDBRANCH  25  26
ENDBRANCH  23  25
ENDBRANCH   2  23
BRANCH  10  28
ATOM     28  C   UNL d   1      33.240  22.028 -17.951  0.00  0.00     0.003 C 
ATOM     29  C   UNL d   1      32.661  22.220 -17.396  0.00  0.00     0.000 C 
ENDBRANCH  10  28
TORSDOF 5
ENDMDL
MODEL 3
REMARK VINA RESULT:       4.1      4.105      6.288
REMARK  5 active torsions:
REMARK  status: ('A' for Active; 'I' for Inactive)
REMARK    1  A    between atoms: C_7  and  C_1 
REMARK    2  A    between atoms: C_8  and  C_2 
REMARK    3  A    between atoms: O_22  and  C_8 
REMARK    4  A    between atoms: C_24  and  C_14 
REMARK    5  A    between atoms: C_27  and  O_22 
ROOT
ATOM      1  C   UNL d   1      32.789  22.091 -21.372  0.00  0.00     0.067 A 
ATOM      2  C   UNL d   1      32.757  21.316 -21.092  0.00  0.00     0.166 A 
ATOM      3  C   UNL d   1      32.846  22.721 -20.836  0.00  0.00     0.200 A 
ATOM      4  C   UNL d   1      32.870  22.575 -20.026  0.00  0.00     0.062 A 
ATOM      5  O   UNL d   1      32.781  21.171 -20.275  0.00  0.00    -0.301 OA
ATOM      6  C   UNL d   1      32.838  21.800 -19.745  0.00  0.00     0.106 A 
ATOM      7  C   UNL d   1      32.926  23.202 -19.497  0.00  0.00     0.008 A 
ATOM      8  C   UNL d   1      32.862  21.652 -18.936  0.00  0.00     0.067 A 
ATOM      9  C   UNL d   1      32.918  22.281 -18.406  0.00  0.00     0.198 A 
ATOM     10  C   UNL d   1      32.951  23.056 -18.687  0.00  0.00     0.039 A 
ATOM     11  O   UNL d   1      32.878  23.496 -21.116  0.00  0.00    -0.286 OA
ATOM     12  O   UNL d   1      32.943  22.137 -17.585  0.00  0.00    -0.286 OA
ENDROOT
BRANCH   1  13
ATOM     13  C   UNL d   1      32.764  22.237 -22.182  0.00  0.00     0.007 A 
ATOM     14  C   UNL d   1      32.265  22.824 -22.483  0.00  0.00     0.027 A 
ATOM     15  C   UNL d   1      32.241  22.970 -23.292  0.00  0.00     0.123 A 
ATOM     16  O   UNL d   1      31.740  23.556 -23.587  0.00  0.00    -0.301 OA
ATOM     17  C   UNL d   1      32.715  22.531 -23.805  0.00  0.00     0.123 A 
ATOM     18  C   UNL d   1      31.719  23.702 -24.414  0.00  0.00     0.149 A 
ATOM     19  C   UNL d   1      32.190  23.268 -24.934  0.00  0.00     0.149 A 
ATOM     20  O   UNL d   1      32.692  22.679 -24.630  0.00  0.00    -0.301 OA
ATOM     21  C   UNL d   1      33.215  21.945 -23.505  0.00  0.00     0.027 A 
ATOM     22  C   UNL d   1      33.239  21.799 -22.695  0.00  0.00     0.002 A 
ENDBRANCH   1  13
BRANCH   2  23
ATOM     23  C   UNL d   1      32.700  20.686 -21.625  0.00  0.00     0.323 C 
ATOM     24  O   UNL d   1      32.112  20.688 -22.204  0.00  0.00    -0.257 OA
BRANCH  23  25
ATOM     25  O   UNL d   1      33.231  20.057 -21.578  0.00  0.00    -0.270 OA
BRANCH  25  26
ATOM     26  C   UNL d   1      32.999  19.306 -21.822  0.00  0.00     0.126 C 
ATOM     27  C   UNL d   1      33.214  19.034 -22.569  0.00  0.00     0.029 C 
ENDBRANCH  25  26
ENDBRANCH  23  25
ENDBRANCH   2  23
BRANCH  10  28
ATOM     28  C   UNL d   1      33.007  23.685 -18.153  0.00  0.00     0.003 C 
ATOM     29  C   UNL d   1      32.674  23.626 -17.400  0.00  0.00     0.000 C 
ENDBRANCH  10  28
TORSDOF 5
ENDMDL
