MODEL 1
REMARK VINA RESULT:      -3.5      0.000      0.000
REMARK  4 active torsions:
REMARK  status: ('A' for Active; 'I' for Inactive)
REMARK    1  A    between atoms: S_10  and  C_5 
REMARK       I    between atoms: N_7  and  C_8 
REMARK    2  A    between atoms: C_8  and  C_11 
REMARK    3  A    between atoms: C_11  and  S_10 
REMARK    4  A    between atoms: C_19  and  C_12 
ROOT
ATOM      1  S   UNL d   1      33.194  19.091 -22.564  0.00  0.00    -0.054 SA
ENDROOT
BRANCH   1   2
ATOM      2  C   UNL d   1      33.047  19.861 -22.267  0.00  0.00     0.163 A 
ATOM      3  S   UNL d   1      33.241  20.585 -22.646  0.00  0.00    -0.021 SA
ATOM      4  C   UNL d   1      32.997  21.210 -22.156  0.00  0.00     0.200 A 
ATOM      5  N   UNL d   1      33.119  21.871 -22.396  0.00  0.00    -0.182 NA
ATOM      6  N   UNL d   1      32.646  20.886 -21.462  0.00  0.00    -0.204 N 
ATOM      7  C   UNL d   1      32.924  22.555 -22.001  0.00  0.00     0.281 A 
ATOM      8  O   UNL d   1      33.231  23.041 -22.608  0.00  0.00    -0.265 OA
ATOM      9  C   UNL d   1      32.536  22.627 -21.229  0.00  0.00     0.064 A 
ATOM     10  C   UNL d   1      32.274  21.984 -20.713  0.00  0.00     0.026 A 
ATOM     11  C   UNL d   1      32.349  21.168 -20.869  0.00  0.00     0.103 A 
ATOM     12  N   UNL d   1      32.677  20.048 -21.530  0.00  0.00    -0.150 NA
ENDBRANCH   1   2
BRANCH   1  13
ATOM     13  C   UNL d   1      32.628  18.708 -23.017  0.00  0.00     0.099 C 
BRANCH  13  14
ATOM     14  C   UNL d   1      32.684  17.895 -23.144  0.00  0.00     0.271 C 
ATOM     15  N   UNL d   1      32.198  17.525 -23.680  0.00  0.00    -0.273 N 
ATOM     16  C   UNL d   1      32.255  16.723 -23.803  0.00  0.00     0.067 A 
ATOM     17  C   UNL d   1      31.643  17.958 -24.102  0.00  0.00     0.083 A 
ATOM     18  C   UNL d   1      31.754  16.353 -24.352  0.00  0.00     0.018 A 
ATOM     19  C   UNL d   1      31.209  16.796 -24.763  0.00  0.00     0.003 A 
ATOM     20  C   UNL d   1      31.155  17.600 -24.636  0.00  0.00     0.019 A 
ATOM     21  O   UNL d   1      33.239  17.457 -22.723  0.00  0.00    -0.266 OA
BRANCH  16  22
ATOM     22  C   UNL d   1      32.807  16.285 -23.385  0.00  0.00     0.018 C 
ATOM     23  C   UNL d   1      32.857  15.465 -23.514  0.00  0.00     0.002 C 
ENDBRANCH  16  22
ENDBRANCH  13  14
ENDBRANCH   1  13
TORSDOF 4
ENDMDL
MODEL 2
REMARK VINA RESULT:      -3.0      1.379      5.220
REMARK  4 active torsions:
REMARK  status: ('A' for Active; 'I' for Inactive)
REMARK    1  A    between atoms: S_10  and  C_5 
REMARK       I    between atoms: N_7  and  C_8 
REMARK    2  A    between atoms: C_8  and  C_11 
REMARK    3  A    between atoms: C_11  and  S_10 
REMARK    4  A    between atoms: C_19  and  C_12 
ROOT
ATOM      1  S   UNL d   1      33.239  20.065 -21.774  0.00  0.00    -0.054 SA
ENDROOT
BRANCH   1   2
ATOM      2  C   UNL d   1      33.222  19.558 -22.440  0.00  0.00     0.163 A 
ATOM      3  S   UNL d   1      33.213  18.719 -22.425  0.00  0.00    -0.021 SA
ATOM      4  C   UNL d   1      33.196  18.443 -23.209  0.00  0.00     0.200 A 
ATOM      5  N   UNL d   1      33.187  17.736 -23.300  0.00  0.00    -0.182 NA
ATOM      6  N   UNL d   1      33.195  19.108 -23.727  0.00  0.00    -0.204 N 
ATOM      7  C   UNL d   1      33.171  17.356 -24.019  0.00  0.00     0.281 A 
ATOM      8  O   UNL d   1      33.168  16.599 -23.666  0.00  0.00    -0.265 OA
ATOM      9  C   UNL d   1      33.162  17.718 -24.807  0.00  0.00     0.064 A 
ATOM     10  C   UNL d   1      33.168  18.562 -24.995  0.00  0.00     0.026 A 
ATOM     11  C   UNL d   1      33.184  19.188 -24.443  0.00  0.00     0.103 A 
ATOM     12  N   UNL d   1      33.211  19.800 -23.250  0.00  0.00    -0.150 NA
ENDBRANCH   1   2
BRANCH   1  13
ATOM     13  C   UNL d   1      33.068  20.862 -21.856  0.00  0.00     0.099 C 
BRANCH  13  14
ATOM     14  C   UNL d   1      33.045  21.349 -21.191  0.00  0.00     0.271 C 
ATOM     15  N   UNL d   1      32.830  22.131 -21.256  0.00  0.00    -0.273 N 
ATOM     16  C   UNL d   1      32.807  22.608 -20.598  0.00  0.00     0.067 A 
ATOM     17  C   UNL d   1      32.633  22.445 -21.989  0.00  0.00     0.083 A 
ATOM     18  C   UNL d   1      32.587  23.405 -20.674  0.00  0.00     0.018 A 
ATOM     19  C   UNL d   1      32.395  23.702 -21.408  0.00  0.00     0.003 A 
ATOM     20  C   UNL d   1      32.419  23.220 -22.064  0.00  0.00     0.019 A 
ATOM     21  O   UNL d   1      33.241  21.038 -20.454  0.00  0.00    -0.266 OA
BRANCH  16  22
ATOM     22  C   UNL d   1      33.002  22.301 -19.865  0.00  0.00     0.018 C 
ATOM     23  C   UNL d   1      33.027  22.807 -19.205  0.00  0.00     0.002 C 
ENDBRANCH  16  22
ENDBRANCH  13  14
ENDBRANCH   1  13
TORSDOF 4
ENDMDL
MODEL 3
REMARK VINA RESULT:      -2.5      1.210      5.137
REMARK  4 active torsions:
REMARK  status: ('A' for Active; 'I' for Inactive)
REMARK    1  A    between atoms: S_10  and  C_5 
REMARK       I    between atoms: N_7  and  C_8 
REMARK    2  A    between atoms: C_8  and  C_11 
REMARK    3  A    between atoms: C_11  and  S_10 
REMARK    4  A    between atoms: C_19  and  C_12 
ROOT
ATOM      1  S   UNL d   1      33.141  19.174 -23.390  0.00  0.00    -0.054 SA
ENDROOT
BRANCH   1   2
ATOM      2  C   UNL d   1      32.811  18.415 -23.520  0.00  0.00     0.163 A 
ATOM      3  S   UNL d   1      32.063  18.251 -23.865  0.00  0.00    -0.021 SA
ATOM      4  C   UNL d   1      31.960  17.427 -23.887  0.00  0.00     0.200 A 
ATOM      5  N   UNL d   1      31.348  17.188 -24.166  0.00  0.00    -0.182 NA
ATOM      6  N   UNL d   1      32.644  17.062 -23.556  0.00  0.00    -0.204 N 
ATOM      7  C   UNL d   1      31.141  16.404 -24.238  0.00  0.00     0.281 A 
ATOM      8  O   UNL d   1      30.405  16.589 -24.587  0.00  0.00    -0.265 OA
ATOM      9  C   UNL d   1      31.605  15.712 -24.000  0.00  0.00     0.064 A 
ATOM     10  C   UNL d   1      32.389  15.707 -23.634  0.00  0.00     0.026 A 
ATOM     11  C   UNL d   1      32.845  16.380 -23.441  0.00  0.00     0.103 A 
ATOM     12  N   UNL d   1      33.172  17.675 -23.329  0.00  0.00    -0.150 NA
ENDBRANCH   1   2
BRANCH   1  13
ATOM     13  C   UNL d   1      33.044  19.548 -22.668  0.00  0.00     0.099 C 
BRANCH  13  14
ATOM     14  C   UNL d   1      33.082  20.371 -22.621  0.00  0.00     0.271 C 
ATOM     15  N   UNL d   1      33.134  20.744 -21.901  0.00  0.00    -0.273 N 
ATOM     16  C   UNL d   1      33.171  21.556 -21.859  0.00  0.00     0.067 A 
ATOM     17  C   UNL d   1      33.151  20.304 -21.209  0.00  0.00     0.083 A 
ATOM     18  C   UNL d   1      33.225  21.928 -21.119  0.00  0.00     0.018 A 
ATOM     19  C   UNL d   1      33.240  21.478 -20.441  0.00  0.00     0.003 A 
ATOM     20  C   UNL d   1      33.203  20.665 -20.488  0.00  0.00     0.019 A 
ATOM     21  O   UNL d   1      33.065  20.816 -23.314  0.00  0.00    -0.266 OA
BRANCH  16  22
ATOM     22  C   UNL d   1      33.155  22.000 -22.547  0.00  0.00     0.018 C 
ATOM     23  C   UNL d   1      33.222  22.828 -22.497  0.00  0.00     0.002 C 
ENDBRANCH  16  22
ENDBRANCH  13  14
ENDBRANCH   1  13
TORSDOF 4
ENDMDL
