MODEL 1
REMARK VINA RESULT:      -7.2      0.000      0.000
REMARK  10 active torsions:
REMARK  status: ('A' for Active; 'I' for Inactive)
REMARK    1  A    between atoms: C_14  and  N_1 
REMARK    2  A    between atoms: N_9  and  C_2 
REMARK    3  A    between atoms: C_6  and  C_5 
REMARK    4  A    between atoms: C_7  and  C_6 
REMARK       I    between atoms: N_8  and  C_7 
REMARK    5  A    between atoms: C_10  and  N_8 
REMARK    6  A    between atoms: C_16  and  N_9 
REMARK    7  A    between atoms: O_15  and  C_13 
REMARK    8  A    between atoms: C_19  and  O_15 
REMARK    9  A    between atoms: C_21  and  C_19 
REMARK   10  A    between atoms: C_22  and  C_21 
ROOT
ATOM      1  C   UNL d   1      51.290  34.394  52.809  0.00  0.00     0.280 C 
ATOM      2  N   UNL d   1      50.479  34.473  52.928  0.00  0.00    -0.206 NA
ATOM      3  O   UNL d   1      51.591  34.348  52.045  0.00  0.00    -0.265 OA
ENDROOT
BRANCH   1   4
ATOM      4  C   UNL d   1      51.794  34.364  53.461  0.00  0.00     0.074 C 
BRANCH   4   5
ATOM      5  C   UNL d   1      52.391  33.800  53.503  0.00  0.00     0.093 A 
ATOM      6  C   UNL d   1      53.162  33.929  53.761  0.00  0.00     0.272 A 
ATOM      7  N   UNL d   1      53.569  33.216  53.712  0.00  0.00    -0.252 N 
ATOM      8  O   UNL d   1      53.472  34.643  54.021  0.00  0.00    -0.266 OA
ATOM      9  C   UNL d   1      53.051  32.647  53.424  0.00  0.00     0.182 A 
ATOM     10  S   UNL d   1      52.316  33.004  53.293  0.00  0.00    -0.045 SA
BRANCH   7  11
ATOM     11  C   UNL d   1      54.357  33.089  53.913  0.00  0.00     0.085 C 
ATOM     12  C   UNL d   1      54.603  33.213  54.695  0.00  0.00     0.021 C 
ENDBRANCH   7  11
BRANCH   9  13
ATOM     13  N   UNL d   1      53.227  31.850  53.288  0.00  0.00    -0.221 NA
BRANCH  13  14
ATOM     14  C   UNL d   1      52.663  31.359  52.952  0.00  0.00     0.101 C 
ATOM     15  C   UNL d   1      52.796  30.550  52.901  0.00  0.00     0.022 C 
ENDBRANCH  13  14
ENDBRANCH   9  13
ENDBRANCH   4   5
ENDBRANCH   1   4
BRANCH   2  16
ATOM     16  C   UNL d   1      49.969  34.504  52.285  0.00  0.00     0.107 A 
ATOM     17  C   UNL d   1      49.247  34.914  52.345  0.00  0.00     0.118 A 
ATOM     18  C   UNL d   1      48.736  34.944  51.697  0.00  0.00     0.026 A 
ATOM     19  C   UNL d   1      48.947  34.565  50.994  0.00  0.00     0.002 A 
ATOM     20  C   UNL d   1      49.662  34.159  50.935  0.00  0.00     0.002 A 
ATOM     21  C   UNL d   1      50.172  34.128  51.578  0.00  0.00     0.021 A 
BRANCH  17  22
ATOM     22  O   UNL d   1      49.043  35.288  53.047  0.00  0.00    -0.304 OA
BRANCH  22  23
ATOM     23  C   UNL d   1      48.329  35.693  53.102  0.00  0.00     0.123 C 
BRANCH  23  24
ATOM     24  C   UNL d   1      48.105  36.041  53.807  0.00  0.00     0.027 C 
BRANCH  24  25
ATOM     25  C   UNL d   1      47.471  36.579  53.831  0.00  0.00     0.002 C 
ATOM     26  C   UNL d   1      47.077  36.708  54.544  0.00  0.00     0.000 C 
ENDBRANCH  24  25
ENDBRANCH  23  24
ENDBRANCH  22  23
ENDBRANCH  17  22
ENDBRANCH   2  16
TORSDOF 10
ENDMDL
MODEL 2
REMARK VINA RESULT:      -6.6      1.449      5.514
REMARK  10 active torsions:
REMARK  status: ('A' for Active; 'I' for Inactive)
REMARK    1  A    between atoms: C_14  and  N_1 
REMARK    2  A    between atoms: N_9  and  C_2 
REMARK    3  A    between atoms: C_6  and  C_5 
REMARK    4  A    between atoms: C_7  and  C_6 
REMARK       I    between atoms: N_8  and  C_7 
REMARK    5  A    between atoms: C_10  and  N_8 
REMARK    6  A    between atoms: C_16  and  N_9 
REMARK    7  A    between atoms: O_15  and  C_13 
REMARK    8  A    between atoms: C_19  and  O_15 
REMARK    9  A    between atoms: C_21  and  C_19 
REMARK   10  A    between atoms: C_22  and  C_21 
ROOT
ATOM      1  C   UNL d   1      50.625  34.335  52.756  0.00  0.00     0.280 C 
ATOM      2  N   UNL d   1      51.298  33.881  52.619  0.00  0.00    -0.206 NA
ATOM      3  O   UNL d   1      50.639  34.934  53.318  0.00  0.00    -0.265 OA
ENDROOT
BRANCH   1   4
ATOM      4  C   UNL d   1      49.940  34.181  52.324  0.00  0.00     0.074 C 
BRANCH   4   5
ATOM      5  C   UNL d   1      49.314  34.715  52.327  0.00  0.00     0.093 A 
ATOM      6  C   UNL d   1      48.829  34.897  51.687  0.00  0.00     0.272 A 
ATOM      7  N   UNL d   1      48.279  35.455  51.935  0.00  0.00    -0.252 N 
ATOM      8  O   UNL d   1      48.884  34.578  50.931  0.00  0.00    -0.266 OA
ATOM      9  C   UNL d   1      48.422  35.618  52.728  0.00  0.00     0.182 A 
ATOM     10  S   UNL d   1      49.066  35.161  52.977  0.00  0.00    -0.045 SA
BRANCH   7  11
ATOM     11  C   UNL d   1      47.686  35.794  51.476  0.00  0.00     0.085 C 
ATOM     12  C   UNL d   1      47.070  35.319  51.188  0.00  0.00     0.021 C 
ENDBRANCH   7  11
BRANCH   9  13
ATOM     13  N   UNL d   1      48.000  36.149  53.201  0.00  0.00    -0.221 NA
BRANCH  13  14
ATOM     14  C   UNL d   1      48.092  36.131  54.015  0.00  0.00     0.101 C 
ATOM     15  C   UNL d   1      47.744  36.708  54.484  0.00  0.00     0.022 C 
ENDBRANCH  13  14
ENDBRANCH   9  13
ENDBRANCH   4   5
ENDBRANCH   1   4
BRANCH   2  16
ATOM     16  C   UNL d   1      51.986  34.027  53.045  0.00  0.00     0.107 A 
ATOM     17  C   UNL d   1      52.482  33.396  53.265  0.00  0.00     0.118 A 
ATOM     18  C   UNL d   1      53.173  33.544  53.693  0.00  0.00     0.026 A 
ATOM     19  C   UNL d   1      53.365  34.321  53.898  0.00  0.00     0.002 A 
ATOM     20  C   UNL d   1      52.874  34.946  53.680  0.00  0.00     0.002 A 
ATOM     21  C   UNL d   1      52.186  34.800  53.254  0.00  0.00     0.021 A 
BRANCH  17  22
ATOM     22  O   UNL d   1      52.284  32.625  53.058  0.00  0.00    -0.304 OA
BRANCH  22  23
ATOM     23  C   UNL d   1      52.831  32.020  53.167  0.00  0.00     0.123 C 
BRANCH  23  24
ATOM     24  C   UNL d   1      52.634  31.248  52.984  0.00  0.00     0.027 C 
BRANCH  24  25
ATOM     25  C   UNL d   1      53.190  30.636  53.075  0.00  0.00     0.002 C 
ATOM     26  C   UNL d   1      52.925  29.860  53.168  0.00  0.00     0.000 C 
ENDBRANCH  24  25
ENDBRANCH  23  24
ENDBRANCH  22  23
ENDBRANCH  17  22
ENDBRANCH   2  16
TORSDOF 10
ENDMDL
MODEL 3
REMARK VINA RESULT:      -6.4      1.950      4.046
REMARK  10 active torsions:
REMARK  status: ('A' for Active; 'I' for Inactive)
REMARK    1  A    between atoms: C_14  and  N_1 
REMARK    2  A    between atoms: N_9  and  C_2 
REMARK    3  A    between atoms: C_6  and  C_5 
REMARK    4  A    between atoms: C_7  and  C_6 
REMARK       I    between atoms: N_8  and  C_7 
REMARK    5  A    between atoms: C_10  and  N_8 
REMARK    6  A    between atoms: C_16  and  N_9 
REMARK    7  A    between atoms: O_15  and  C_13 
REMARK    8  A    between atoms: C_19  and  O_15 
REMARK    9  A    between atoms: C_21  and  C_19 
REMARK   10  A    between atoms: C_22  and  C_21 
ROOT
ATOM      1  C   UNL d   1      53.934  32.322  53.845  0.00  0.00     0.280 C 
ATOM      2  N   UNL d   1      53.711  33.048  53.528  0.00  0.00    -0.206 NA
ATOM      3  O   UNL d   1      54.058  32.248  54.654  0.00  0.00    -0.265 OA
ENDROOT
BRANCH   1   4
ATOM      4  C   UNL d   1      54.031  31.675  53.344  0.00  0.00     0.074 C 
BRANCH   4   5
ATOM      5  C   UNL d   1      53.588  30.990  53.453  0.00  0.00     0.093 A 
ATOM      6  C   UNL d   1      52.959  30.741  52.985  0.00  0.00     0.272 A 
ATOM      7  N   UNL d   1      52.678  30.032  53.292  0.00  0.00    -0.252 N 
ATOM      8  O   UNL d   1      52.662  31.130  52.325  0.00  0.00    -0.266 OA
ATOM      9  C   UNL d   1      53.132  29.843  53.951  0.00  0.00     0.182 A 
ATOM     10  S   UNL d   1      53.700  30.436  54.056  0.00  0.00    -0.045 SA
BRANCH   7  11
ATOM     11  C   UNL d   1      52.052  29.586  52.998  0.00  0.00     0.085 C 
ATOM     12  C   UNL d   1      51.278  29.758  53.239  0.00  0.00     0.021 C 
ENDBRANCH   7  11
BRANCH   9  13
ATOM     13  N   UNL d   1      53.042  29.175  54.430  0.00  0.00    -0.221 NA
BRANCH  13  14
ATOM     14  C   UNL d   1      53.664  28.924  54.901  0.00  0.00     0.101 C 
ATOM     15  C   UNL d   1      53.570  28.283  55.405  0.00  0.00     0.022 C 
ENDBRANCH  13  14
ENDBRANCH   9  13
ENDBRANCH   4   5
ENDBRANCH   1   4
BRANCH   2  16
ATOM     16  C   UNL d   1      53.611  33.700  54.018  0.00  0.00     0.107 A 
ATOM     17  C   UNL d   1      53.010  34.253  53.860  0.00  0.00     0.118 A 
ATOM     18  C   UNL d   1      52.912  34.907  54.355  0.00  0.00     0.026 A 
ATOM     19  C   UNL d   1      53.414  35.006  55.003  0.00  0.00     0.002 A 
ATOM     20  C   UNL d   1      54.009  34.458  55.160  0.00  0.00     0.002 A 
ATOM     21  C   UNL d   1      54.109  33.806  54.669  0.00  0.00     0.021 A 
BRANCH  17  22
ATOM     22  O   UNL d   1      52.514  34.149  53.213  0.00  0.00    -0.304 OA
BRANCH  22  23
ATOM     23  C   UNL d   1      51.756  34.468  53.224  0.00  0.00     0.123 C 
BRANCH  23  24
ATOM     24  C   UNL d   1      51.243  34.333  52.603  0.00  0.00     0.027 C 
BRANCH  24  25
ATOM     25  C   UNL d   1      50.420  34.319  52.728  0.00  0.00     0.002 C 
ATOM     26  C   UNL d   1      49.912  34.410  52.085  0.00  0.00     0.000 C 
ENDBRANCH  24  25
ENDBRANCH  23  24
ENDBRANCH  22  23
ENDBRANCH  17  22
ENDBRANCH   2  16
TORSDOF 10
ENDMDL
MODEL 4
REMARK VINA RESULT:      -6.3      1.203      5.308
REMARK  10 active torsions:
REMARK  status: ('A' for Active; 'I' for Inactive)
REMARK    1  A    between atoms: C_14  and  N_1 
REMARK    2  A    between atoms: N_9  and  C_2 
REMARK    3  A    between atoms: C_6  and  C_5 
REMARK    4  A    between atoms: C_7  and  C_6 
REMARK       I    between atoms: N_8  and  C_7 
REMARK    5  A    between atoms: C_10  and  N_8 
REMARK    6  A    between atoms: C_16  and  N_9 
REMARK    7  A    between atoms: O_15  and  C_13 
REMARK    8  A    between atoms: C_19  and  O_15 
REMARK    9  A    between atoms: C_21  and  C_19 
REMARK   10  A    between atoms: C_22  and  C_21 
ROOT
ATOM      1  C   UNL d   1      52.580  34.404  53.357  0.00  0.00     0.280 C 
ATOM      2  N   UNL d   1      53.148  33.809  53.322  0.00  0.00    -0.206 NA
ATOM      3  O   UNL d   1      52.389  34.751  54.077  0.00  0.00    -0.265 OA
ENDROOT
BRANCH   1   4
ATOM      4  C   UNL d   1      52.206  34.645  52.662  0.00  0.00     0.074 C 
BRANCH   4   5
ATOM      5  C   UNL d   1      51.391  34.573  52.579  0.00  0.00     0.093 A 
ATOM      6  C   UNL d   1      50.997  34.231  51.942  0.00  0.00     0.272 A 
ATOM      7  N   UNL d   1      50.189  34.277  52.087  0.00  0.00    -0.252 N 
ATOM      8  O   UNL d   1      51.348  33.900  51.277  0.00  0.00    -0.266 OA
ATOM      9  C   UNL d   1      50.082  34.648  52.813  0.00  0.00     0.182 A 
ATOM     10  S   UNL d   1      50.827  34.835  53.124  0.00  0.00    -0.045 SA
BRANCH   7  11
ATOM     11  C   UNL d   1      49.588  34.003  51.597  0.00  0.00     0.085 C 
ATOM     12  C   UNL d   1      49.492  34.336  50.843  0.00  0.00     0.021 C 
ENDBRANCH   7  11
BRANCH   9  13
ATOM     13  N   UNL d   1      49.357  34.810  53.176  0.00  0.00    -0.221 NA
BRANCH  13  14
ATOM     14  C   UNL d   1      49.238  35.532  53.545  0.00  0.00     0.101 C 
ATOM     15  C   UNL d   1      48.484  35.760  53.778  0.00  0.00     0.022 C 
ENDBRANCH  13  14
ENDBRANCH   9  13
ENDBRANCH   4   5
ENDBRANCH   1   4
BRANCH   2  16
ATOM     16  C   UNL d   1      53.526  33.561  54.008  0.00  0.00     0.107 A 
ATOM     17  C   UNL d   1      53.652  32.750  54.146  0.00  0.00     0.118 A 
ATOM     18  C   UNL d   1      54.033  32.503  54.836  0.00  0.00     0.026 A 
ATOM     19  C   UNL d   1      54.285  33.066  55.385  0.00  0.00     0.002 A 
ATOM     20  C   UNL d   1      54.161  33.869  55.249  0.00  0.00     0.002 A 
ATOM     21  C   UNL d   1      53.782  34.117  54.563  0.00  0.00     0.021 A 
BRANCH  17  22
ATOM     22  O   UNL d   1      53.398  32.195  53.595  0.00  0.00    -0.304 OA
BRANCH  22  23
ATOM     23  C   UNL d   1      53.531  31.394  53.731  0.00  0.00     0.123 C 
BRANCH  23  24
ATOM     24  C   UNL d   1      53.202  30.832  53.238  0.00  0.00     0.027 C 
BRANCH  24  25
ATOM     25  C   UNL d   1      53.324  30.021  53.379  0.00  0.00     0.002 C 
ATOM     26  C   UNL d   1      52.685  29.502  53.333  0.00  0.00     0.000 C 
ENDBRANCH  24  25
ENDBRANCH  23  24
ENDBRANCH  22  23
ENDBRANCH  17  22
ENDBRANCH   2  16
TORSDOF 10
ENDMDL
MODEL 5
REMARK VINA RESULT:      -5.9      1.251      5.245
REMARK  10 active torsions:
REMARK  status: ('A' for Active; 'I' for Inactive)
REMARK    1  A    between atoms: C_14  and  N_1 
REMARK    2  A    between atoms: N_9  and  C_2 
REMARK    3  A    between atoms: C_6  and  C_5 
REMARK    4  A    between atoms: C_7  and  C_6 
REMARK       I    between atoms: N_8  and  C_7 
REMARK    5  A    between atoms: C_10  and  N_8 
REMARK    6  A    between atoms: C_16  and  N_9 
REMARK    7  A    between atoms: O_15  and  C_13 
REMARK    8  A    between atoms: C_19  and  O_15 
REMARK    9  A    between atoms: C_21  and  C_19 
REMARK   10  A    between atoms: C_22  and  C_21 
ROOT
ATOM      1  C   UNL d   1      51.738  33.327  52.793  0.00  0.00     0.280 C 
ATOM      2  N   UNL d   1      52.481  32.999  52.661  0.00  0.00    -0.206 NA
ATOM      3  O   UNL d   1      51.168  32.903  53.206  0.00  0.00    -0.265 OA
ENDROOT
BRANCH   1   4
ATOM      4  C   UNL d   1      51.573  34.083  52.508  0.00  0.00     0.074 C 
BRANCH   4   5
ATOM      5  C   UNL d   1      50.796  34.323  52.381  0.00  0.00     0.093 A 
ATOM      6  C   UNL d   1      50.422  34.390  51.651  0.00  0.00     0.272 A 
ATOM      7  N   UNL d   1      49.652  34.646  51.782  0.00  0.00    -0.252 N 
ATOM      8  O   UNL d   1      50.758  34.229  50.918  0.00  0.00    -0.266 OA
ATOM      9  C   UNL d   1      49.549  34.738  52.592  0.00  0.00     0.182 A 
ATOM     10  S   UNL d   1      50.258  34.538  52.970  0.00  0.00    -0.045 SA
BRANCH   7  11
ATOM     11  C   UNL d   1      49.081  34.788  51.207  0.00  0.00     0.085 C 
ATOM     12  C   UNL d   1      48.882  34.187  50.672  0.00  0.00     0.021 C 
ENDBRANCH   7  11
BRANCH   9  13
ATOM     13  N   UNL d   1      48.858  34.987  52.971  0.00  0.00    -0.221 NA
BRANCH  13  14
ATOM     14  C   UNL d   1      48.893  35.579  53.537  0.00  0.00     0.101 C 
ATOM     15  C   UNL d   1      48.204  35.928  53.815  0.00  0.00     0.022 C 
ENDBRANCH  13  14
ENDBRANCH   9  13
ENDBRANCH   4   5
ENDBRANCH   1   4
BRANCH   2  16
ATOM     16  C   UNL d   1      52.655  32.247  52.941  0.00  0.00     0.107 A 
ATOM     17  C   UNL d   1      53.330  32.123  53.412  0.00  0.00     0.118 A 
ATOM     18  C   UNL d   1      53.503  31.365  53.693  0.00  0.00     0.026 A 
ATOM     19  C   UNL d   1      53.003  30.737  53.502  0.00  0.00     0.002 A 
ATOM     20  C   UNL d   1      52.335  30.859  53.035  0.00  0.00     0.002 A 
ATOM     21  C   UNL d   1      52.160  31.612  52.755  0.00  0.00     0.021 A 
BRANCH  17  22
ATOM     22  O   UNL d   1      53.823  32.753  53.598  0.00  0.00    -0.304 OA
BRANCH  22  23
ATOM     23  C   UNL d   1      54.376  32.674  54.203  0.00  0.00     0.123 C 
BRANCH  23  24
ATOM     24  C   UNL d   1      54.889  33.287  54.375  0.00  0.00     0.027 C 
BRANCH  24  25
ATOM     25  C   UNL d   1      54.892  33.636  55.130  0.00  0.00     0.002 C 
ATOM     26  C   UNL d   1      55.541  34.088  55.363  0.00  0.00     0.000 C 
ENDBRANCH  24  25
ENDBRANCH  23  24
ENDBRANCH  22  23
ENDBRANCH  17  22
ENDBRANCH   2  16
TORSDOF 10
ENDMDL
MODEL 6
REMARK VINA RESULT:      -4.5      2.513      5.964
REMARK  10 active torsions:
REMARK  status: ('A' for Active; 'I' for Inactive)
REMARK    1  A    between atoms: C_14  and  N_1 
REMARK    2  A    between atoms: N_9  and  C_2 
REMARK    3  A    between atoms: C_6  and  C_5 
REMARK    4  A    between atoms: C_7  and  C_6 
REMARK       I    between atoms: N_8  and  C_7 
REMARK    5  A    between atoms: C_10  and  N_8 
REMARK    6  A    between atoms: C_16  and  N_9 
REMARK    7  A    between atoms: O_15  and  C_13 
REMARK    8  A    between atoms: C_19  and  O_15 
REMARK    9  A    between atoms: C_21  and  C_19 
REMARK   10  A    between atoms: C_22  and  C_21 
ROOT
ATOM      1  C   UNL d   1      48.230  35.870  52.791  0.00  0.00     0.280 C 
ATOM      2  N   UNL d   1      48.794  35.272  52.830  0.00  0.00    -0.206 NA
ATOM      3  O   UNL d   1      47.906  36.084  52.067  0.00  0.00    -0.265 OA
ENDROOT
BRANCH   1   4
ATOM      4  C   UNL d   1      47.995  36.249  53.485  0.00  0.00     0.074 C 
BRANCH   4   5
ATOM      5  C   UNL d   1      47.197  36.357  53.654  0.00  0.00     0.093 A 
ATOM      6  C   UNL d   1      46.866  36.427  54.404  0.00  0.00     0.272 A 
ATOM      7  N   UNL d   1      46.054  36.527  54.315  0.00  0.00    -0.252 N 
ATOM      8  O   UNL d   1      47.272  36.402  55.117  0.00  0.00    -0.266 OA
ATOM      9  C   UNL d   1      45.884  36.519  53.511  0.00  0.00     0.182 A 
ATOM     10  S   UNL d   1      46.591  36.413  53.094  0.00  0.00    -0.045 SA
BRANCH   7  11
ATOM     11  C   UNL d   1      45.505  36.619  54.921  0.00  0.00     0.085 C 
ATOM     12  C   UNL d   1      45.250  35.954  55.346  0.00  0.00     0.021 C 
ENDBRANCH   7  11
BRANCH   9  13
ATOM     13  N   UNL d   1      45.135  36.601  53.171  0.00  0.00    -0.221 NA
BRANCH  13  14
ATOM     14  C   UNL d   1      45.049  36.550  52.357  0.00  0.00     0.101 C 
ATOM     15  C   UNL d   1      44.324  36.709  52.006  0.00  0.00     0.022 C 
ENDBRANCH  13  14
ENDBRANCH   9  13
ENDBRANCH   4   5
ENDBRANCH   1   4
BRANCH   2  16
ATOM     16  C   UNL d   1      49.035  34.887  52.145  0.00  0.00     0.107 A 
ATOM     17  C   UNL d   1      49.779  34.515  52.115  0.00  0.00     0.118 A 
ATOM     18  C   UNL d   1      50.019  34.129  51.425  0.00  0.00     0.026 A 
ATOM     19  C   UNL d   1      49.517  34.117  50.770  0.00  0.00     0.002 A 
ATOM     20  C   UNL d   1      48.780  34.487  50.800  0.00  0.00     0.002 A 
ATOM     21  C   UNL d   1      48.539  34.871  51.485  0.00  0.00     0.021 A 
BRANCH  17  22
ATOM     22  O   UNL d   1      50.274  34.530  52.771  0.00  0.00    -0.304 OA
BRANCH  22  23
ATOM     23  C   UNL d   1      51.080  34.391  52.678  0.00  0.00     0.123 C 
BRANCH  23  24
ATOM     24  C   UNL d   1      51.569  34.351  53.331  0.00  0.00     0.027 C 
BRANCH  24  25
ATOM     25  C   UNL d   1      52.373  34.558  53.272  0.00  0.00     0.002 C 
ATOM     26  C   UNL d   1      52.876  34.410  53.908  0.00  0.00     0.000 C 
ENDBRANCH  24  25
ENDBRANCH  23  24
ENDBRANCH  22  23
ENDBRANCH  17  22
ENDBRANCH   2  16
TORSDOF 10
ENDMDL
MODEL 7
REMARK VINA RESULT:      -4.3      1.581      2.897
REMARK  10 active torsions:
REMARK  status: ('A' for Active; 'I' for Inactive)
REMARK    1  A    between atoms: C_14  and  N_1 
REMARK    2  A    between atoms: N_9  and  C_2 
REMARK    3  A    between atoms: C_6  and  C_5 
REMARK    4  A    between atoms: C_7  and  C_6 
REMARK       I    between atoms: N_8  and  C_7 
REMARK    5  A    between atoms: C_10  and  N_8 
REMARK    6  A    between atoms: C_16  and  N_9 
REMARK    7  A    between atoms: O_15  and  C_13 
REMARK    8  A    between atoms: C_19  and  O_15 
REMARK    9  A    between atoms: C_21  and  C_19 
REMARK   10  A    between atoms: C_22  and  C_21 
ROOT
ATOM      1  C   UNL d   1      49.633  34.899  52.916  0.00  0.00     0.280 C 
ATOM      2  N   UNL d   1      48.830  34.964  52.747  0.00  0.00    -0.206 NA
ATOM      3  O   UNL d   1      49.985  35.414  53.451  0.00  0.00    -0.265 OA
ENDROOT
BRANCH   1   4
ATOM      4  C   UNL d   1      50.078  34.313  52.544  0.00  0.00     0.074 C 
BRANCH   4   5
ATOM      5  C   UNL d   1      50.807  34.084  52.849  0.00  0.00     0.093 A 
ATOM      6  C   UNL d   1      51.044  33.312  53.011  0.00  0.00     0.272 A 
ATOM      7  N   UNL d   1      51.810  33.338  53.307  0.00  0.00    -0.252 N 
ATOM      8  O   UNL d   1      50.594  32.634  52.897  0.00  0.00    -0.266 OA
ATOM      9  C   UNL d   1      52.048  34.124  53.328  0.00  0.00     0.182 A 
ATOM     10  S   UNL d   1      51.428  34.593  53.044  0.00  0.00    -0.045 SA
BRANCH   7  11
ATOM     11  C   UNL d   1      52.265  32.694  53.542  0.00  0.00     0.085 C 
ATOM     12  C   UNL d   1      52.582  32.186  52.968  0.00  0.00     0.021 C 
ENDBRANCH   7  11
BRANCH   9  13
ATOM     13  N   UNL d   1      52.781  34.405  53.587  0.00  0.00    -0.221 NA
BRANCH  13  14
ATOM     14  C   UNL d   1      52.863  35.192  53.803  0.00  0.00     0.101 C 
ATOM     15  C   UNL d   1      53.465  35.422  54.313  0.00  0.00     0.022 C 
ENDBRANCH  13  14
ENDBRANCH   9  13
ENDBRANCH   4   5
ENDBRANCH   1   4
BRANCH   2  16
ATOM     16  C   UNL d   1      48.378  35.545  53.113  0.00  0.00     0.107 A 
ATOM     17  C   UNL d   1      47.712  35.861  52.726  0.00  0.00     0.118 A 
ATOM     18  C   UNL d   1      47.259  36.444  53.095  0.00  0.00     0.026 A 
ATOM     19  C   UNL d   1      47.473  36.709  53.848  0.00  0.00     0.002 A 
ATOM     20  C   UNL d   1      48.132  36.397  54.231  0.00  0.00     0.002 A 
ATOM     21  C   UNL d   1      48.584  35.816  53.865  0.00  0.00     0.021 A 
BRANCH  17  22
ATOM     22  O   UNL d   1      47.506  35.592  51.977  0.00  0.00    -0.304 OA
BRANCH  22  23
ATOM     23  C   UNL d   1      46.736  35.696  51.703  0.00  0.00     0.123 C 
BRANCH  23  24
ATOM     24  C   UNL d   1      46.564  35.598  50.911  0.00  0.00     0.027 C 
BRANCH  24  25
ATOM     25  C   UNL d   1      45.818  35.318  50.672  0.00  0.00     0.002 C 
ATOM     26  C   UNL d   1      45.149  35.780  50.810  0.00  0.00     0.000 C 
ENDBRANCH  24  25
ENDBRANCH  23  24
ENDBRANCH  22  23
ENDBRANCH  17  22
ENDBRANCH   2  16
TORSDOF 10
ENDMDL
