MODEL 1
REMARK VINA RESULT:       8.2      0.000      0.000
REMARK  2 active torsions:
REMARK  status: ('A' for Active; 'I' for Inactive)
REMARK    1  A    between atoms: C_6  and  N_1 
REMARK    2  A    between atoms: C_7  and  C_6 
ROOT
ATOM      1  N   UNL d   1      45.193 -13.478  44.213  0.00  0.00    -0.236 N 
ATOM      2  C   UNL d   1      44.582 -13.958  44.449  0.00  0.00     0.267 A 
ATOM      3  C   UNL d   1      45.879 -13.907  44.211  0.00  0.00     0.267 A 
ATOM      4  C   UNL d   1      44.890 -14.700  44.597  0.00  0.00     0.061 A 
ATOM      5  C   UNL d   1      45.700 -14.668  44.449  0.00  0.00     0.061 A 
ATOM      6  O   UNL d   1      43.775 -13.742  44.529  0.00  0.00    -0.267 OA
ATOM      7  O   UNL d   1      46.647 -13.628  44.003  0.00  0.00    -0.267 OA
ATOM      8  C   UNL d   1      46.159 -15.345  44.553  0.00  0.00     0.005 A 
ATOM      9  C   UNL d   1      44.551 -15.409  44.848  0.00  0.00     0.005 A 
ATOM     10  C   UNL d   1      45.011 -16.090  44.954  0.00  0.00     0.000 A 
ATOM     11  C   UNL d   1      45.821 -16.058  44.805  0.00  0.00     0.000 A 
ENDROOT
BRANCH   1  12
ATOM     12  C   UNL d   1      45.100 -12.675  44.011  0.00  0.00     0.134 C 
ATOM     13  C   UNL d   1      45.125 -12.083  44.565  0.00  0.00     0.026 C 
BRANCH  12  14
ATOM     14  C   UNL d   1      44.976 -12.484  43.207  0.00  0.00     0.228 C 
ATOM     15  O   UNL d   1      44.278 -12.085  42.979  0.00  0.00    -0.643 OA
ATOM     16  O   UNL d   1      45.542 -12.689  42.635  0.00  0.00    -0.643 OA
ENDBRANCH  12  14
ENDBRANCH   1  12
TORSDOF 2
ENDMDL
