MODEL 1
REMARK VINA RESULT:      -8.2      0.000      0.000
REMARK  3 active torsions:
REMARK  status: ('A' for Active; 'I' for Inactive)
REMARK    1  A    between atoms: C_8  and  C_1 
REMARK    2  A    between atoms: N_5  and  C_2 
REMARK       I    between atoms: C_7  and  N_5 
REMARK    3  A    between atoms: C_10  and  C_7 
ROOT
ATOM      1  C   UNL d   1      53.188  32.995  53.699  0.00  0.00     0.212 A 
ATOM      2  C   UNL d   1      51.974  33.154  53.166  0.00  0.00     0.297 A 
ATOM      3  O   UNL d   1      52.486  33.431  53.750  0.00  0.00    -0.253 OA
ATOM      4  N   UNL d   1      53.102  32.456  53.088  0.00  0.00    -0.119 NA
ATOM      5  N   UNL d   1      52.353  32.554  52.759  0.00  0.00    -0.101 NA
ENDROOT
BRANCH   2   6
ATOM      6  N   UNL d   1      51.213  33.439  53.024  0.00  0.00    -0.165 NA
ATOM      7  C   UNL d   1      51.099  34.087  52.541  0.00  0.00     0.282 C 
ATOM      8  O   UNL d   1      51.743  34.466  52.187  0.00  0.00    -0.265 OA
BRANCH   7   9
ATOM      9  C   UNL d   1      50.334  34.372  52.400  0.00  0.00     0.060 A 
ATOM     10  C   UNL d   1      49.970  34.256  51.668  0.00  0.00     0.034 A 
ATOM     11  C   UNL d   1      49.211  34.542  51.534  0.00  0.00     0.140 A 
ATOM     12  F   UNL d   1      48.839  34.424  50.792  0.00  0.00    -0.204 F 
ATOM     13  C   UNL d   1      48.807  34.947  52.129  0.00  0.00     0.030 A 
ATOM     14  C   UNL d   1      49.170  35.062  52.857  0.00  0.00     0.003 A 
ATOM     15  C   UNL d   1      49.927  34.779  52.996  0.00  0.00     0.005 A 
ENDBRANCH   7   9
ENDBRANCH   2   6
BRANCH   1  16
ATOM     16  C   UNL d   1      53.852  33.093  54.184  0.00  0.00     0.072 A 
ATOM     17  S   UNL d   1      53.857  33.087  55.005  0.00  0.00    -0.083 SA
ATOM     18  C   UNL d   1      54.633  33.205  55.256  0.00  0.00     0.035 A 
ATOM     19  C   UNL d   1      55.112  33.284  54.584  0.00  0.00     0.008 A 
ATOM     20  C   UNL d   1      54.624  33.214  53.919  0.00  0.00     0.011 A 
ENDBRANCH   1  16
TORSDOF 3
ENDMDL
MODEL 2
REMARK VINA RESULT:      -7.9      2.421      4.645
REMARK  3 active torsions:
REMARK  status: ('A' for Active; 'I' for Inactive)
REMARK    1  A    between atoms: C_8  and  C_1 
REMARK    2  A    between atoms: N_5  and  C_2 
REMARK       I    between atoms: C_7  and  N_5 
REMARK    3  A    between atoms: C_10  and  C_7 
ROOT
ATOM      1  C   UNL d   1      50.833  34.177  52.866  0.00  0.00     0.212 A 
ATOM      2  C   UNL d   1      51.756  33.295  53.263  0.00  0.00     0.297 A 
ATOM      3  O   UNL d   1      50.959  33.383  53.068  0.00  0.00    -0.253 OA
ATOM      4  N   UNL d   1      51.550  34.568  52.938  0.00  0.00    -0.119 NA
ATOM      5  N   UNL d   1      52.119  34.024  53.182  0.00  0.00    -0.101 NA
ENDROOT
BRANCH   2   6
ATOM      6  N   UNL d   1      52.114  32.590  53.496  0.00  0.00    -0.165 NA
ATOM      7  C   UNL d   1      52.546  32.151  52.961  0.00  0.00     0.282 C 
ATOM      8  O   UNL d   1      52.630  32.405  52.178  0.00  0.00    -0.265 OA
BRANCH   7   9
ATOM      9  C   UNL d   1      52.905  31.443  53.197  0.00  0.00     0.060 A 
ATOM     10  C   UNL d   1      52.589  30.714  52.970  0.00  0.00     0.034 A 
ATOM     11  C   UNL d   1      52.951  30.015  53.208  0.00  0.00     0.140 A 
ATOM     12  F   UNL d   1      52.631  29.274  52.979  0.00  0.00    -0.204 F 
ATOM     13  C   UNL d   1      53.632  30.035  53.673  0.00  0.00     0.030 A 
ATOM     14  C   UNL d   1      53.945  30.761  53.898  0.00  0.00     0.003 A 
ATOM     15  C   UNL d   1      53.589  31.461  53.664  0.00  0.00     0.005 A 
ENDBRANCH   7   9
ENDBRANCH   2   6
BRANCH   1  16
ATOM     16  C   UNL d   1      50.109  34.506  52.634  0.00  0.00     0.072 A 
ATOM     17  S   UNL d   1      49.610  34.956  53.106  0.00  0.00    -0.083 SA
ATOM     18  C   UNL d   1      48.956  35.168  52.652  0.00  0.00     0.035 A 
ATOM     19  C   UNL d   1      49.052  34.846  51.894  0.00  0.00     0.008 A 
ATOM     20  C   UNL d   1      49.770  34.436  51.886  0.00  0.00     0.011 A 
ENDBRANCH   1  16
TORSDOF 3
ENDMDL
MODEL 3
REMARK VINA RESULT:      -7.8      2.256      4.720
REMARK  3 active torsions:
REMARK  status: ('A' for Active; 'I' for Inactive)
REMARK    1  A    between atoms: C_8  and  C_1 
REMARK    2  A    between atoms: N_5  and  C_2 
REMARK       I    between atoms: C_7  and  N_5 
REMARK    3  A    between atoms: C_10  and  C_7 
ROOT
ATOM      1  C   UNL d   1      50.159  34.528  52.525  0.00  0.00     0.212 A 
ATOM      2  C   UNL d   1      51.316  33.935  52.833  0.00  0.00     0.297 A 
ATOM      3  O   UNL d   1      50.635  34.273  53.153  0.00  0.00    -0.253 OA
ATOM      4  N   UNL d   1      50.549  34.347  51.827  0.00  0.00    -0.119 NA
ATOM      5  N   UNL d   1      51.263  33.981  52.017  0.00  0.00    -0.101 NA
ENDROOT
BRANCH   2   6
ATOM      6  N   UNL d   1      51.937  33.611  53.268  0.00  0.00    -0.165 NA
ATOM      7  C   UNL d   1      52.624  34.035  53.383  0.00  0.00     0.282 C 
ATOM      8  O   UNL d   1      52.708  34.794  53.067  0.00  0.00    -0.265 OA
BRANCH   7   9
ATOM      9  C   UNL d   1      53.247  33.708  53.820  0.00  0.00     0.060 A 
ATOM     10  C   UNL d   1      53.748  33.145  53.483  0.00  0.00     0.034 A 
ATOM     11  C   UNL d   1      54.365  32.824  53.922  0.00  0.00     0.140 A 
ATOM     12  F   UNL d   1      54.874  32.252  53.581  0.00  0.00    -0.204 F 
ATOM     13  C   UNL d   1      54.488  33.061  54.702  0.00  0.00     0.030 A 
ATOM     14  C   UNL d   1      53.989  33.622  55.037  0.00  0.00     0.003 A 
ATOM     15  C   UNL d   1      53.373  33.945  54.604  0.00  0.00     0.005 A 
ENDBRANCH   7   9
ENDBRANCH   2   6
BRANCH   1  16
ATOM     16  C   UNL d   1      49.422  34.900  52.599  0.00  0.00     0.072 A 
ATOM     17  S   UNL d   1      48.821  34.897  52.040  0.00  0.00    -0.083 SA
ATOM     18  C   UNL d   1      48.191  35.333  52.343  0.00  0.00     0.035 A 
ATOM     19  C   UNL d   1      48.405  35.608  53.095  0.00  0.00     0.008 A 
ATOM     20  C   UNL d   1      49.171  35.337  53.252  0.00  0.00     0.011 A 
ENDBRANCH   1  16
TORSDOF 3
ENDMDL
MODEL 4
REMARK VINA RESULT:      -7.7      3.207      4.514
REMARK  3 active torsions:
REMARK  status: ('A' for Active; 'I' for Inactive)
REMARK    1  A    between atoms: C_8  and  C_1 
REMARK    2  A    between atoms: N_5  and  C_2 
REMARK       I    between atoms: C_7  and  N_5 
REMARK    3  A    between atoms: C_10  and  C_7 
ROOT
ATOM      1  C   UNL d   1      53.697  33.700  54.099  0.00  0.00     0.212 A 
ATOM      2  C   UNL d   1      53.839  32.372  54.044  0.00  0.00     0.297 A 
ATOM      3  O   UNL d   1      53.325  32.979  54.264  0.00  0.00    -0.253 OA
ATOM      4  N   UNL d   1      54.433  33.532  53.780  0.00  0.00    -0.119 NA
ATOM      5  N   UNL d   1      54.521  32.713  53.746  0.00  0.00    -0.101 NA
ENDROOT
BRANCH   2   6
ATOM      6  N   UNL d   1      53.683  31.566  54.115  0.00  0.00    -0.165 NA
ATOM      7  C   UNL d   1      53.324  31.160  53.504  0.00  0.00     0.282 C 
ATOM      8  O   UNL d   1      53.112  31.551  52.807  0.00  0.00    -0.265 OA
BRANCH   7   9
ATOM      9  C   UNL d   1      53.168  30.350  53.577  0.00  0.00     0.060 A 
ATOM     10  C   UNL d   1      53.464  29.920  54.217  0.00  0.00     0.034 A 
ATOM     11  C   UNL d   1      53.306  29.116  54.285  0.00  0.00     0.140 A 
ATOM     12  F   UNL d   1      53.605  28.678  54.934  0.00  0.00    -0.204 F 
ATOM     13  C   UNL d   1      52.851  28.732  53.713  0.00  0.00     0.030 A 
ATOM     14  C   UNL d   1      52.557  29.161  53.076  0.00  0.00     0.003 A 
ATOM     15  C   UNL d   1      52.712  29.963  53.005  0.00  0.00     0.005 A 
ENDBRANCH   7   9
ENDBRANCH   2   6
BRANCH   1  16
ATOM     16  C   UNL d   1      53.375  34.451  54.235  0.00  0.00     0.072 A 
ATOM     17  S   UNL d   1      53.414  34.873  54.938  0.00  0.00    -0.083 SA
ATOM     18  C   UNL d   1      53.022  35.589  54.826  0.00  0.00     0.035 A 
ATOM     19  C   UNL d   1      52.739  35.609  54.047  0.00  0.00     0.008 A 
ATOM     20  C   UNL d   1      52.960  34.900  53.682  0.00  0.00     0.011 A 
ENDBRANCH   1  16
TORSDOF 3
ENDMDL
MODEL 5
REMARK VINA RESULT:      -7.4      2.817      3.428
REMARK  3 active torsions:
REMARK  status: ('A' for Active; 'I' for Inactive)
REMARK    1  A    between atoms: C_8  and  C_1 
REMARK    2  A    between atoms: N_5  and  C_2 
REMARK       I    between atoms: C_7  and  N_5 
REMARK    3  A    between atoms: C_10  and  C_7 
ROOT
ATOM      1  C   UNL d   1      53.161  30.128  53.638  0.00  0.00     0.212 A 
ATOM      2  C   UNL d   1      53.054  31.372  53.162  0.00  0.00     0.297 A 
ATOM      3  O   UNL d   1      53.245  30.929  53.831  0.00  0.00    -0.253 OA
ATOM      4  N   UNL d   1      52.920  30.085  52.856  0.00  0.00    -0.119 NA
ATOM      5  N   UNL d   1      52.854  30.852  52.562  0.00  0.00    -0.101 NA
ENDROOT
BRANCH   2   6
ATOM      6  N   UNL d   1      53.066  32.195  53.116  0.00  0.00    -0.165 NA
ATOM      7  C   UNL d   1      52.378  32.623  53.212  0.00  0.00     0.282 C 
ATOM      8  O   UNL d   1      51.660  32.238  53.356  0.00  0.00    -0.265 OA
BRANCH   7   9
ATOM      9  C   UNL d   1      52.391  33.450  53.166  0.00  0.00     0.060 A 
ATOM     10  C   UNL d   1      52.865  33.893  53.677  0.00  0.00     0.034 A 
ATOM     11  C   UNL d   1      52.874  34.713  53.626  0.00  0.00     0.140 A 
ATOM     12  F   UNL d   1      53.355  35.164  54.144  0.00  0.00    -0.204 F 
ATOM     13  C   UNL d   1      52.410  35.101  53.064  0.00  0.00     0.030 A 
ATOM     14  C   UNL d   1      51.939  34.659  52.556  0.00  0.00     0.003 A 
ATOM     15  C   UNL d   1      51.926  33.841  52.603  0.00  0.00     0.005 A 
ENDBRANCH   7   9
ENDBRANCH   2   6
BRANCH   1  16
ATOM     16  C   UNL d   1      53.297  29.492  54.150  0.00  0.00     0.072 A 
ATOM     17  S   UNL d   1      53.011  29.417  54.916  0.00  0.00    -0.083 SA
ATOM     18  C   UNL d   1      53.282  28.701  55.220  0.00  0.00     0.035 A 
ATOM     19  C   UNL d   1      53.739  28.330  54.637  0.00  0.00     0.008 A 
ATOM     20  C   UNL d   1      53.747  28.823  53.973  0.00  0.00     0.011 A 
ENDBRANCH   1  16
TORSDOF 3
ENDMDL
MODEL 6
REMARK VINA RESULT:      -6.1      9.946     10.603
REMARK  3 active torsions:
REMARK  status: ('A' for Active; 'I' for Inactive)
REMARK    1  A    between atoms: C_8  and  C_1 
REMARK    2  A    between atoms: N_5  and  C_2 
REMARK       I    between atoms: C_7  and  N_5 
REMARK    3  A    between atoms: C_10  and  C_7 
ROOT
ATOM      1  C   UNL d   1      44.618  30.270  61.207  0.00  0.00     0.212 A 
ATOM      2  C   UNL d   1      44.529  30.418  59.882  0.00  0.00     0.297 A 
ATOM      3  O   UNL d   1      44.432  29.880  60.501  0.00  0.00    -0.253 OA
ATOM      4  N   UNL d   1      44.827  31.040  61.019  0.00  0.00    -0.119 NA
ATOM      5  N   UNL d   1      44.772  31.131  60.202  0.00  0.00    -0.101 NA
ENDROOT
BRANCH   2   6
ATOM      6  N   UNL d   1      44.402  30.254  59.084  0.00  0.00    -0.165 NA
ATOM      7  C   UNL d   1      45.033  30.110  58.588  0.00  0.00     0.282 C 
ATOM      8  O   UNL d   1      45.808  30.125  58.877  0.00  0.00    -0.265 OA
BRANCH   7   9
ATOM      9  C   UNL d   1      44.903  29.946  57.786  0.00  0.00     0.060 A 
ATOM     10  C   UNL d   1      44.730  30.553  57.255  0.00  0.00     0.034 A 
ATOM     11  C   UNL d   1      44.602  30.384  56.460  0.00  0.00     0.140 A 
ATOM     12  F   UNL d   1      44.426  31.000  55.919  0.00  0.00    -0.204 F 
ATOM     13  C   UNL d   1      44.646  29.607  56.188  0.00  0.00     0.030 A 
ATOM     14  C   UNL d   1      44.819  29.002  56.717  0.00  0.00     0.003 A 
ATOM     15  C   UNL d   1      44.947  29.166  57.510  0.00  0.00     0.005 A 
ENDBRANCH   7   9
ENDBRANCH   2   6
BRANCH   1  16
ATOM     16  C   UNL d   1      44.593  29.934  61.964  0.00  0.00     0.072 A 
ATOM     17  S   UNL d   1      44.379  30.318  62.657  0.00  0.00    -0.083 SA
ATOM     18  C   UNL d   1      44.434  29.775  63.275  0.00  0.00     0.035 A 
ATOM     19  C   UNL d   1      44.684  29.051  62.961  0.00  0.00     0.008 A 
ATOM     20  C   UNL d   1      44.783  29.152  62.146  0.00  0.00     0.011 A 
ENDBRANCH   1  16
TORSDOF 3
ENDMDL
MODEL 7
REMARK VINA RESULT:      -5.5     10.409     10.986
REMARK  3 active torsions:
REMARK  status: ('A' for Active; 'I' for Inactive)
REMARK    1  A    between atoms: C_8  and  C_1 
REMARK    2  A    between atoms: N_5  and  C_2 
REMARK       I    between atoms: C_7  and  N_5 
REMARK    3  A    between atoms: C_10  and  C_7 
ROOT
ATOM      1  C   UNL d   1      44.727  29.767  59.469  0.00  0.00     0.212 A 
ATOM      2  C   UNL d   1      44.643  28.809  58.541  0.00  0.00     0.297 A 
ATOM      3  O   UNL d   1      44.433  29.008  59.314  0.00  0.00    -0.253 OA
ATOM      4  N   UNL d   1      45.114  30.027  58.794  0.00  0.00    -0.119 NA
ATOM      5  N   UNL d   1      45.062  29.436  58.222  0.00  0.00    -0.101 NA
ENDROOT
BRANCH   2   6
ATOM      6  N   UNL d   1      44.459  28.099  58.165  0.00  0.00    -0.165 NA
ATOM      7  C   UNL d   1      45.047  27.561  57.990  0.00  0.00     0.282 C 
ATOM      8  O   UNL d   1      45.834  27.719  58.186  0.00  0.00    -0.265 OA
BRANCH   7   9
ATOM      9  C   UNL d   1      44.860  26.848  57.612  0.00  0.00     0.060 A 
ATOM     10  C   UNL d   1      44.888  26.787  56.789  0.00  0.00     0.034 A 
ATOM     11  C   UNL d   1      44.702  26.076  56.420  0.00  0.00     0.140 A 
ATOM     12  F   UNL d   1      44.730  26.013  55.584  0.00  0.00    -0.204 F 
ATOM     13  C   UNL d   1      44.485  25.418  56.868  0.00  0.00     0.030 A 
ATOM     14  C   UNL d   1      44.457  25.480  57.687  0.00  0.00     0.003 A 
ATOM     15  C   UNL d   1      44.642  26.186  58.060  0.00  0.00     0.005 A 
ENDBRANCH   7   9
ENDBRANCH   2   6
BRANCH   1  16
ATOM     16  C   UNL d   1      44.641  30.180  60.182  0.00  0.00     0.072 A 
ATOM     17  S   UNL d   1      44.314  30.928  60.270  0.00  0.00    -0.083 SA
ATOM     18  C   UNL d   1      44.340  31.123  61.070  0.00  0.00     0.035 A 
ATOM     19  C   UNL d   1      44.686  30.491  61.479  0.00  0.00     0.008 A 
ATOM     20  C   UNL d   1      44.873  29.906  60.924  0.00  0.00     0.011 A 
ENDBRANCH   1  16
TORSDOF 3
ENDMDL
MODEL 8
REMARK VINA RESULT:      -5.4     10.046     10.883
REMARK  3 active torsions:
REMARK  status: ('A' for Active; 'I' for Inactive)
REMARK    1  A    between atoms: C_8  and  C_1 
REMARK    2  A    between atoms: N_5  and  C_2 
REMARK       I    between atoms: C_7  and  N_5 
REMARK    3  A    between atoms: C_10  and  C_7 
ROOT
ATOM      1  C   UNL d   1      44.897  29.861  57.927  0.00  0.00     0.212 A 
ATOM      2  C   UNL d   1      44.844  28.552  58.186  0.00  0.00     0.297 A 
ATOM      3  O   UNL d   1      44.499  29.158  57.746  0.00  0.00    -0.253 OA
ATOM      4  N   UNL d   1      45.481  29.682  58.474  0.00  0.00    -0.119 NA
ATOM      5  N   UNL d   1      45.448  28.875  58.634  0.00  0.00    -0.101 NA
ENDROOT
BRANCH   2   6
ATOM      6  N   UNL d   1      44.613  27.760  58.170  0.00  0.00    -0.165 NA
ATOM      7  C   UNL d   1      45.095  27.198  57.827  0.00  0.00     0.282 C 
ATOM      8  O   UNL d   1      45.820  27.412  57.491  0.00  0.00    -0.265 OA
BRANCH   7   9
ATOM      9  C   UNL d   1      44.862  26.403  57.811  0.00  0.00     0.060 A 
ATOM     10  C   UNL d   1      44.825  25.961  58.508  0.00  0.00     0.034 A 
ATOM     11  C   UNL d   1      44.593  25.173  58.486  0.00  0.00     0.140 A 
ATOM     12  F   UNL d   1      44.556  24.723  59.193  0.00  0.00    -0.204 F 
ATOM     13  C   UNL d   1      44.395  24.817  57.769  0.00  0.00     0.030 A 
ATOM     14  C   UNL d   1      44.432  25.257  57.076  0.00  0.00     0.003 A 
ATOM     15  C   UNL d   1      44.662  26.043  57.093  0.00  0.00     0.005 A 
ENDBRANCH   7   9
ENDBRANCH   2   6
BRANCH   1  16
ATOM     16  C   UNL d   1      44.728  30.607  57.608  0.00  0.00     0.072 A 
ATOM     17  S   UNL d   1      44.640  31.305  58.030  0.00  0.00    -0.083 SA
ATOM     18  C   UNL d   1      44.476  31.908  57.492  0.00  0.00     0.035 A 
ATOM     19  C   UNL d   1      44.463  31.579  56.732  0.00  0.00     0.008 A 
ATOM     20  C   UNL d   1      44.620  30.770  56.806  0.00  0.00     0.011 A 
ENDBRANCH   1  16
TORSDOF 3
ENDMDL
MODEL 9
REMARK VINA RESULT:      -5.4     10.886     11.417
REMARK  3 active torsions:
REMARK  status: ('A' for Active; 'I' for Inactive)
REMARK    1  A    between atoms: C_8  and  C_1 
REMARK    2  A    between atoms: N_5  and  C_2 
REMARK       I    between atoms: C_7  and  N_5 
REMARK    3  A    between atoms: C_10  and  C_7 
ROOT
ATOM      1  C   UNL d   1      44.704  24.543  56.178  0.00  0.00     0.212 A 
ATOM      2  C   UNL d   1      44.547  25.856  56.367  0.00  0.00     0.297 A 
ATOM      3  O   UNL d   1      44.700  25.142  56.750  0.00  0.00    -0.253 OA
ATOM      4  N   UNL d   1      44.555  24.893  55.451  0.00  0.00    -0.119 NA
ATOM      5  N   UNL d   1      44.458  25.703  55.568  0.00  0.00    -0.101 NA
ENDROOT
BRANCH   2   6
ATOM      6  N   UNL d   1      44.495  26.593  56.735  0.00  0.00    -0.165 NA
ATOM      7  C   UNL d   1      45.162  27.056  56.824  0.00  0.00     0.282 C 
ATOM      8  O   UNL d   1      45.896  26.795  56.548  0.00  0.00    -0.265 OA
BRANCH   7   9
ATOM      9  C   UNL d   1      45.108  27.795  57.194  0.00  0.00     0.060 A 
ATOM     10  C   UNL d   1      45.196  27.864  58.012  0.00  0.00     0.034 A 
ATOM     11  C   UNL d   1      45.142  28.601  58.374  0.00  0.00     0.140 A 
ATOM     12  F   UNL d   1      45.231  28.672  59.204  0.00  0.00    -0.204 F 
ATOM     13  C   UNL d   1      45.000  29.277  57.922  0.00  0.00     0.030 A 
ATOM     14  C   UNL d   1      44.912  29.207  57.108  0.00  0.00     0.003 A 
ATOM     15  C   UNL d   1      44.965  28.475  56.743  0.00  0.00     0.005 A 
ENDBRANCH   7   9
ENDBRANCH   2   6
BRANCH   1  16
ATOM     16  C   UNL d   1      44.836  23.738  56.323  0.00  0.00     0.072 A 
ATOM     17  S   UNL d   1      45.158  23.198  55.795  0.00  0.00    -0.083 SA
ATOM     18  C   UNL d   1      45.188  22.465  56.170  0.00  0.00     0.035 A 
ATOM     19  C   UNL d   1      44.883  22.553  56.935  0.00  0.00     0.008 A 
ATOM     20  C   UNL d   1      44.665  23.346  57.028  0.00  0.00     0.011 A 
ENDBRANCH   1  16
TORSDOF 3
ENDMDL
