MODEL 1
REMARK VINA RESULT:      -4.7      0.000      0.000
REMARK  5 active torsions:
REMARK  status: ('A' for Active; 'I' for Inactive)
REMARK    1  A    between atoms: N_2  and  S_1 
REMARK    2  A    between atoms: C_6  and  S_1 
REMARK    3  A    between atoms: C_3  and  N_2 
REMARK    4  A    between atoms: N_4  and  C_5 
REMARK    5  A    between atoms: C_9  and  N_4 
ROOT
ATOM      1  C   UNL d   1     -41.529-122.223 -51.770  0.00  0.00     0.110 A 
ATOM      2  C   UNL d   1     -41.471-122.391 -50.965  0.00  0.00     0.083 A 
ATOM      3  C   UNL d   1     -41.381-121.450 -52.023  0.00  0.00     0.021 A 
ATOM      4  C   UNL d   1     -41.270-121.805 -50.426  0.00  0.00     0.019 A 
ATOM      5  C   UNL d   1     -41.180-120.864 -51.484  0.00  0.00     0.002 A 
ATOM      6  C   UNL d   1     -41.123-121.037 -50.680  0.00  0.00     0.002 A 
ENDROOT
BRANCH   1   7
ATOM      7  N   UNL d   1     -41.730-122.810 -52.309  0.00  0.00    -0.157 NA
BRANCH   7   8
ATOM      8  S   UNL d   1     -41.831-122.624 -53.104  0.00  0.00     0.285 S 
ATOM      9  O   UNL d   1     -42.553-122.231 -52.918  0.00  0.00    -0.198 OA
ATOM     10  O   UNL d   1     -41.123-123.010 -53.285  0.00  0.00    -0.198 OA
BRANCH   8  11
ATOM     11  C   UNL d   1     -41.937-122.433 -53.919  0.00  0.00     0.105 A 
ATOM     12  C   UNL d   1     -42.581-121.949 -54.157  0.00  0.00     0.014 A 
ATOM     13  C   UNL d   1     -42.677-121.767 -54.952  0.00  0.00     0.012 A 
ATOM     14  C   UNL d   1     -42.155-122.049 -55.514  0.00  0.00     0.058 A 
ATOM     15  C   UNL d   1     -41.510-122.534 -55.276  0.00  0.00     0.012 A 
ATOM     16 CL   UNL d   1     -42.259-121.863 -56.300  0.00  0.00    -0.082 Cl
ATOM     17  C   UNL d   1     -41.399-122.726 -54.479  0.00  0.00     0.014 A 
ENDBRANCH   8  11
ENDBRANCH   7   8
ENDBRANCH   1   7
BRANCH   2  18
ATOM     18  N   UNL d   1     -41.624-123.188 -50.708  0.00  0.00    -0.303 N 
ATOM     19  C   UNL d   1     -41.295-123.780 -51.140  0.00  0.00     0.100 C 
BRANCH  18  20
ATOM     20  C   UNL d   1     -42.089-123.338 -50.048  0.00  0.00     0.064 A 
ATOM     21  C   UNL d   1     -41.746-123.659 -49.388  0.00  0.00     0.018 A 
ATOM     22  C   UNL d   1     -42.195-123.817 -48.713  0.00  0.00     0.002 A 
ATOM     23  C   UNL d   1     -43.006-123.646 -48.706  0.00  0.00     0.000 A 
ATOM     24  C   UNL d   1     -43.354-123.319 -49.378  0.00  0.00     0.002 A 
ATOM     25  C   UNL d   1     -42.900-123.162 -50.054  0.00  0.00     0.018 A 
ENDBRANCH  18  20
ENDBRANCH   2  18
TORSDOF 5
ENDMDL
MODEL 2
REMARK VINA RESULT:      -4.1      2.191      4.603
REMARK  5 active torsions:
REMARK  status: ('A' for Active; 'I' for Inactive)
REMARK    1  A    between atoms: N_2  and  S_1 
REMARK    2  A    between atoms: C_6  and  S_1 
REMARK    3  A    between atoms: C_3  and  N_2 
REMARK    4  A    between atoms: N_4  and  C_5 
REMARK    5  A    between atoms: C_9  and  N_4 
ROOT
ATOM      1  C   UNL d   1     -41.666-122.288 -51.410  0.00  0.00     0.110 A 
ATOM      2  C   UNL d   1     -41.423-122.184 -52.191  0.00  0.00     0.083 A 
ATOM      3  C   UNL d   1     -41.633-121.641 -50.897  0.00  0.00     0.021 A 
ATOM      4  C   UNL d   1     -41.155-121.454 -52.454  0.00  0.00     0.019 A 
ATOM      5  C   UNL d   1     -41.365-120.911 -51.159  0.00  0.00     0.002 A 
ATOM      6  C   UNL d   1     -41.123-120.811 -51.942  0.00  0.00     0.002 A 
ENDROOT
BRANCH   1   7
ATOM      7  N   UNL d   1     -41.934-123.019 -51.147  0.00  0.00    -0.157 NA
BRANCH   7   8
ATOM      8  S   UNL d   1     -42.031-123.159 -50.342  0.00  0.00     0.285 S 
ATOM      9  O   UNL d   1     -41.241-123.449 -50.300  0.00  0.00    -0.198 OA
ATOM     10  O   UNL d   1     -42.807-122.875 -50.385  0.00  0.00    -0.198 OA
BRANCH   8  11
ATOM     11  C   UNL d   1     -42.128-123.304 -49.517  0.00  0.00     0.105 A 
ATOM     12  C   UNL d   1     -42.836-123.069 -49.129  0.00  0.00     0.014 A 
ATOM     13  C   UNL d   1     -42.923-123.213 -48.326  0.00  0.00     0.012 A 
ATOM     14  C   UNL d   1     -42.332-123.582 -47.898  0.00  0.00     0.058 A 
ATOM     15  C   UNL d   1     -41.624-123.817 -48.286  0.00  0.00     0.012 A 
ATOM     16 CL   UNL d   1     -42.428-123.720 -47.102  0.00  0.00    -0.082 Cl
ATOM     17  C   UNL d   1     -41.520-123.679 -49.095  0.00  0.00     0.014 A 
ENDBRANCH   8  11
ENDBRANCH   7   8
ENDBRANCH   1   7
BRANCH   2  18
ATOM     18  N   UNL d   1     -41.458-122.852 -52.717  0.00  0.00    -0.303 N 
ATOM     19  C   UNL d   1     -41.332-123.577 -52.394  0.00  0.00     0.100 C 
BRANCH  18  20
ATOM     20  C   UNL d   1     -41.615-122.753 -53.516  0.00  0.00     0.064 A 
ATOM     21  C   UNL d   1     -41.123-123.095 -54.061  0.00  0.00     0.018 A 
ATOM     22  C   UNL d   1     -41.262-123.008 -54.871  0.00  0.00     0.002 A 
ATOM     23  C   UNL d   1     -41.913-122.566 -55.133  0.00  0.00     0.000 A 
ATOM     24  C   UNL d   1     -42.413-122.219 -54.578  0.00  0.00     0.002 A 
ATOM     25  C   UNL d   1     -42.270-122.308 -53.766  0.00  0.00     0.018 A 
ENDBRANCH  18  20
ENDBRANCH   2  18
TORSDOF 5
ENDMDL
MODEL 3
REMARK VINA RESULT:      -2.7      1.351      1.991
REMARK  5 active torsions:
REMARK  status: ('A' for Active; 'I' for Inactive)
REMARK    1  A    between atoms: N_2  and  S_1 
REMARK    2  A    between atoms: C_6  and  S_1 
REMARK    3  A    between atoms: C_3  and  N_2 
REMARK    4  A    between atoms: N_4  and  C_5 
REMARK    5  A    between atoms: C_9  and  N_4 
ROOT
ATOM      1  C   UNL d   1     -42.233-122.788 -50.481  0.00  0.00     0.110 A 
ATOM      2  C   UNL d   1     -42.373-122.992 -49.694  0.00  0.00     0.083 A 
ATOM      3  C   UNL d   1     -42.839-122.421 -50.907  0.00  0.00     0.021 A 
ATOM      4  C   UNL d   1     -43.097-122.834 -49.341  0.00  0.00     0.019 A 
ATOM      5  C   UNL d   1     -43.563-122.263 -50.554  0.00  0.00     0.002 A 
ATOM      6  C   UNL d   1     -43.698-122.469 -49.767  0.00  0.00     0.002 A 
ENDROOT
BRANCH   1   7
ATOM      7  N   UNL d   1     -41.508-122.946 -50.834  0.00  0.00    -0.157 NA
BRANCH   7   8
ATOM      8  S   UNL d   1     -41.432-122.921 -51.653  0.00  0.00     0.285 S 
ATOM      9  O   UNL d   1     -41.254-122.098 -51.609  0.00  0.00    -0.198 OA
ATOM     10  O   UNL d   1     -41.607-123.728 -51.695  0.00  0.00    -0.198 OA
BRANCH   8  11
ATOM     11  C   UNL d   1     -41.354-122.893 -52.492  0.00  0.00     0.105 A 
ATOM     12  C   UNL d   1     -41.226-122.157 -52.878  0.00  0.00     0.014 A 
ATOM     13  C   UNL d   1     -41.151-122.138 -53.695  0.00  0.00     0.012 A 
ATOM     14  C   UNL d   1     -41.199-122.823 -54.139  0.00  0.00     0.058 A 
ATOM     15  C   UNL d   1     -41.327-123.559 -53.753  0.00  0.00     0.012 A 
ATOM     16 CL   UNL d   1     -41.123-122.793 -54.948  0.00  0.00    -0.082 Cl
ATOM     17  C   UNL d   1     -41.405-123.596 -52.930  0.00  0.00     0.014 A 
ENDBRANCH   8  11
ENDBRANCH   7   8
ENDBRANCH   1   7
BRANCH   2  18
ATOM     18  N   UNL d   1     -41.746-123.370 -49.259  0.00  0.00    -0.303 N 
ATOM     19  C   UNL d   1     -41.176-123.740 -49.687  0.00  0.00     0.100 C 
BRANCH  18  20
ATOM     20  C   UNL d   1     -41.733-123.354 -48.438  0.00  0.00     0.064 A 
ATOM     21  C   UNL d   1     -41.156-122.928 -48.061  0.00  0.00     0.018 A 
ATOM     22  C   UNL d   1     -41.124-122.898 -47.236  0.00  0.00     0.002 A 
ATOM     23  C   UNL d   1     -41.687-123.307 -46.785  0.00  0.00     0.000 A 
ATOM     24  C   UNL d   1     -42.274-123.740 -47.170  0.00  0.00     0.002 A 
ATOM     25  C   UNL d   1     -42.303-123.768 -47.998  0.00  0.00     0.018 A 
ENDBRANCH  18  20
ENDBRANCH   2  18
TORSDOF 5
ENDMDL
