MODEL 1
REMARK VINA RESULT:      81.9      0.000      0.000
REMARK  7 active torsions:
REMARK  status: ('A' for Active; 'I' for Inactive)
REMARK    1  A    between atoms: N_10  and  C_4 
REMARK    2  A    between atoms: C_16  and  N_5 
REMARK    3  A    between atoms: C_18  and  N_11 
REMARK    4  A    between atoms: C_22  and  C_16 
REMARK    5  A    between atoms: C_21  and  C_18 
REMARK    6  A    between atoms: C_24  and  C_22 
REMARK    7  A    between atoms: C_23  and  C_24 
ROOT
ATOM      1  C   UNL d   1     -54.886-101.312 -44.812  0.00  0.00     0.191 A 
ATOM      2  C   UNL d   1     -55.010-100.544 -44.542  0.00  0.00     0.174 A 
ATOM      3  N   UNL d   1     -54.814-101.811 -44.158  0.00  0.00    -0.042 NA
ATOM      4  C   UNL d   1     -54.895-101.333 -43.487  0.00  0.00     0.722 A 
ATOM      5  N   UNL d   1     -55.016-100.552 -43.716  0.00  0.00    -0.132 N 
ATOM      6  N   UNL d   1     -54.854-101.473 -45.626  0.00  0.00    -0.239 N 
ATOM      7  C   UNL d   1     -54.948-100.842 -46.181  0.00  0.00     0.358 A 
ATOM      8  N   UNL d   1     -55.072-100.074 -45.912  0.00  0.00    -0.152 NA
ATOM      9  C   UNL d   1     -55.103 -99.922 -45.083  0.00  0.00     0.303 A 
ATOM     10  O   UNL d   1     -54.916-100.996 -47.015  0.00  0.00    -0.244 OA
ATOM     11  O   UNL d   1     -55.228 -99.146 -44.810  0.00  0.00    -0.263 OA
ATOM     12  C   UNL d   1     -54.730-102.242 -45.896  0.00  0.00     0.105 C 
ENDROOT
BRANCH   4  13
ATOM     13  N   UNL d   1     -54.860-101.601 -42.705  0.00  0.00    -0.136 N 
ATOM     14  C   UNL d   1     -54.816-101.058 -42.083  0.00  0.00     0.117 A 
ATOM     15  C   UNL d   1     -54.781-101.325 -41.304  0.00  0.00     0.100 A 
ATOM     16  N   UNL d   1     -54.790-102.132 -41.145  0.00  0.00    -0.300 N 
ATOM     17  C   UNL d   1     -54.834-102.687 -41.761  0.00  0.00     0.100 A 
ATOM     18  C   UNL d   1     -54.869-102.417 -42.547  0.00  0.00     0.117 A 
BRANCH  16  19
ATOM     19  C   UNL d   1     -54.775-102.753 -40.605  0.00  0.00     0.080 C 
BRANCH  19  20
ATOM     20  C   UNL d   1     -55.162-102.682 -39.885  0.00  0.00     0.018 A 
ATOM     21  C   UNL d   1     -54.754-102.417 -39.230  0.00  0.00     0.002 A 
ATOM     22  C   UNL d   1     -55.139-102.345 -38.507  0.00  0.00     0.000 A 
ATOM     23  C   UNL d   1     -55.936-102.541 -38.445  0.00  0.00     0.000 A 
ATOM     24  C   UNL d   1     -56.345-102.808 -39.110  0.00  0.00     0.000 A 
ATOM     25  C   UNL d   1     -55.956-102.878 -39.827  0.00  0.00     0.002 A 
ENDBRANCH  19  20
ENDBRANCH  16  19
ENDBRANCH   4  13
BRANCH   5  26
ATOM     26  C   UNL d   1     -55.127 -99.876 -43.255  0.00  0.00     0.098 C 
BRANCH  26  27
ATOM     27  C   UNL d   1     -55.664 -99.294 -43.500  0.00  0.00     0.020 C 
BRANCH  27  28
ATOM     28  C   UNL d   1     -56.272 -99.492 -44.024  0.00  0.00     0.002 C 
BRANCH  28  29
ATOM     29  C   UNL d   1     -57.046 -99.246 -43.865  0.00  0.00     0.000 A 
ATOM     30  C   UNL d   1     -57.256 -99.055 -43.098  0.00  0.00     0.000 A 
ATOM     31  C   UNL d   1     -58.029 -98.808 -42.932  0.00  0.00     0.000 A 
ATOM     32  C   UNL d   1     -58.585 -98.757 -43.546  0.00  0.00     0.000 A 
ATOM     33  C   UNL d   1     -58.367 -98.951 -44.320  0.00  0.00     0.000 A 
ATOM     34  C   UNL d   1     -57.594 -99.196 -44.480  0.00  0.00     0.000 A 
ENDBRANCH  28  29
ENDBRANCH  27  28
ENDBRANCH  26  27
ENDBRANCH   5  26
TORSDOF 7
ENDMDL
