MODEL 1
REMARK VINA RESULT:      37.2      0.000      0.000
REMARK  4 active torsions:
REMARK  status: ('A' for Active; 'I' for Inactive)
REMARK    1  A    between atoms: C_8  and  C_1 
REMARK    2  A    between atoms: N_11  and  C_9 
REMARK    3  A    between atoms: C_15  and  N_11 
REMARK    4  A    between atoms: C_16  and  N_11 
ROOT
ATOM      1  C   UNL d   1     -58.541 -98.953 -44.980  0.00  0.00     0.102 A 
ATOM      2  C   UNL d   1     -58.645 -99.179 -44.180  0.00  0.00     0.303 A 
ATOM      3  C   UNL d   1     -57.774 -98.856 -45.270  0.00  0.00     0.011 A 
ATOM      4  O   UNL d   1     -57.978 -99.298 -43.708  0.00  0.00    -0.273 OA
ATOM      5  C   UNL d   1     -57.220 -99.200 -44.000  0.00  0.00     0.105 A 
ATOM      6  C   UNL d   1     -57.115 -98.974 -44.800  0.00  0.00     0.023 A 
ATOM      7  C   UNL d   1     -56.578 -99.318 -43.531  0.00  0.00     0.042 A 
ATOM      8  C   UNL d   1     -55.816 -99.221 -43.822  0.00  0.00     0.066 A 
ATOM      9  O   UNL d   1     -59.410 -99.282 -43.869  0.00  0.00    -0.259 OA
ATOM     10  C   UNL d   1     -56.374 -98.876 -45.093  0.00  0.00     0.004 A 
ATOM     11  C   UNL d   1     -55.711 -98.995 -44.622  0.00  0.00     0.018 A 
ENDROOT
BRANCH   8  12
ATOM     12  N   UNL d   1     -55.159 -99.345 -43.332  0.00  0.00    -0.304 N 
BRANCH  12  13
ATOM     13  C   UNL d   1     -54.953 -98.763 -42.774  0.00  0.00     0.080 C 
ATOM     14  C   UNL d   1     -54.711 -98.995 -42.009  0.00  0.00     0.021 C 
ENDBRANCH  12  13
BRANCH  12  15
ATOM     15  C   UNL d   1     -54.721-100.027 -43.395  0.00  0.00     0.080 C 
ATOM     16  C   UNL d   1     -54.724-100.467 -44.072  0.00  0.00     0.021 C 
ENDBRANCH  12  15
ENDBRANCH   8  12
BRANCH   1  17
ATOM     17  C   UNL d   1     -59.201 -98.829 -45.470  0.00  0.00     0.201 C 
ATOM     18  O   UNL d   1     -59.106 -98.775 -46.297  0.00  0.00    -0.286 OA
ATOM     19  C   UNL d   1     -59.952 -98.761 -45.128  0.00  0.00     0.045 C 
ENDBRANCH   1  17
TORSDOF 4
ENDMDL
MODEL 2
REMARK VINA RESULT:      38.5      5.703      7.225
REMARK  4 active torsions:
REMARK  status: ('A' for Active; 'I' for Inactive)
REMARK    1  A    between atoms: C_8  and  C_1 
REMARK    2  A    between atoms: N_11  and  C_9 
REMARK    3  A    between atoms: C_15  and  N_11 
REMARK    4  A    between atoms: C_16  and  N_11 
ROOT
ATOM      1  C   UNL d   1     -55.927-102.417 -39.874  0.00  0.00     0.102 A 
ATOM      2  C   UNL d   1     -55.300-101.865 -39.806  0.00  0.00     0.303 A 
ATOM      3  C   UNL d   1     -56.246-102.745 -39.187  0.00  0.00     0.011 A 
ATOM      4  O   UNL d   1     -55.022-101.668 -39.054  0.00  0.00    -0.273 OA
ATOM      5  C   UNL d   1     -55.341-101.996 -38.375  0.00  0.00     0.105 A 
ATOM      6  C   UNL d   1     -55.968-102.547 -38.443  0.00  0.00     0.023 A 
ATOM      7  C   UNL d   1     -55.062-101.796 -37.649  0.00  0.00     0.042 A 
ATOM      8  C   UNL d   1     -55.381-102.124 -36.967  0.00  0.00     0.066 A 
ATOM      9  O   UNL d   1     -54.966-101.524 -40.486  0.00  0.00    -0.259 OA
ATOM     10  C   UNL d   1     -56.286-102.873 -37.782  0.00  0.00     0.004 A 
ATOM     11  C   UNL d   1     -56.008-102.676 -37.035  0.00  0.00     0.018 A 
ENDROOT
BRANCH   8  12
ATOM     12  N   UNL d   1     -55.087-101.912 -36.221  0.00  0.00    -0.304 N 
BRANCH  12  13
ATOM     13  C   UNL d   1     -54.712-101.176 -36.126  0.00  0.00     0.080 C 
ATOM     14  C   UNL d   1     -54.884-100.710 -35.455  0.00  0.00     0.021 C 
ENDBRANCH  12  13
BRANCH  12  15
ATOM     15  C   UNL d   1     -55.164-102.418 -35.589  0.00  0.00     0.080 C 
ATOM     16  C   UNL d   1     -55.891-102.645 -35.319  0.00  0.00     0.021 C 
ENDBRANCH  12  15
ENDBRANCH   8  12
BRANCH   1  17
ATOM     17  C   UNL d   1     -56.220-102.628 -40.623  0.00  0.00     0.201 C 
ATOM     18  O   UNL d   1     -55.694-102.795 -41.249  0.00  0.00    -0.286 OA
ATOM     19  C   UNL d   1     -57.039-102.670 -40.741  0.00  0.00     0.045 C 
ENDBRANCH   1  17
TORSDOF 4
ENDMDL
