MODEL 1
REMARK VINA RESULT:      66.1      0.000      0.000
REMARK  4 active torsions:
REMARK  status: ('A' for Active; 'I' for Inactive)
REMARK    1  A    between atoms: C_8  and  S_1 
REMARK    2  A    between atoms: C_2  and  C_10 
REMARK    3  A    between atoms: C_6  and  C_14 
REMARK       I    between atoms: N_9  and  C_6 
REMARK    4  A    between atoms: C_23  and  N_9 
ROOT
ATOM      1  C   UNL d   1     -50.690  26.503  33.538  0.00  0.00     0.024 A 
ATOM      2  C   UNL d   1     -51.080  27.183  33.309  0.00  0.00     0.004 A 
ATOM      3  C   UNL d   1     -49.918  26.538  33.818  0.00  0.00     0.004 A 
ATOM      4  C   UNL d   1     -49.920  27.954  33.639  0.00  0.00     0.085 A 
ATOM      5  C   UNL d   1     -49.528  27.263  33.870  0.00  0.00     0.019 A 
ATOM      6  C   UNL d   1     -50.697  27.912  33.358  0.00  0.00     0.019 A 
ENDROOT
BRANCH   4   7
ATOM      7  N   UNL d   1     -49.536  28.686  33.689  0.00  0.00    -0.208 NA
ATOM      8  C   UNL d   1     -49.134  28.888  34.378  0.00  0.00     0.279 C 
ATOM      9  O   UNL d   1     -49.109  28.372  35.018  0.00  0.00    -0.265 OA
BRANCH   8  10
ATOM     10  C   UNL d   1     -48.753  29.614  34.427  0.00  0.00     0.058 A 
ATOM     11  C   UNL d   1     -48.014  29.669  34.792  0.00  0.00     0.005 A 
ATOM     12  C   UNL d   1     -47.634  30.391  34.841  0.00  0.00     0.013 A 
ATOM     13  C   UNL d   1     -47.992  31.078  34.522  0.00  0.00     0.107 A 
ATOM     14  C   UNL d   1     -48.730  31.026  34.157  0.00  0.00     0.013 A 
ATOM     15  C   UNL d   1     -49.115  30.294  34.108  0.00  0.00     0.005 A 
BRANCH  13  16
ATOM     16  S   UNL d   1     -47.608  31.811  34.571  0.00  0.00     0.302 S 
ATOM     17  O   UNL d   1     -47.300  31.600  35.301  0.00  0.00    -0.197 OA
ATOM     18  O   UNL d   1     -47.923  32.013  33.836  0.00  0.00    -0.197 OA
ATOM     19  N   UNL d   1     -47.230  32.539  34.612  0.00  0.00    -0.043 N 
ENDBRANCH  13  16
ENDBRANCH   8  10
ENDBRANCH   4   7
BRANCH   1  20
ATOM     20  C   UNL d   1     -51.079  25.774  33.487  0.00  0.00     0.112 A 
ATOM     21  S   UNL d   1     -51.907  25.667  33.438  0.00  0.00    -0.047 SA
ATOM     22  C   UNL d   1     -52.055  24.849  33.396  0.00  0.00     0.130 A 
ATOM     23  N   UNL d   1     -52.754  24.415  33.340  0.00  0.00    -0.236 NA
ATOM     24  C   UNL d   1     -51.323  24.452  33.419  0.00  0.00     0.106 A 
ATOM     25  C   UNL d   1     -52.730  23.589  33.307  0.00  0.00     0.100 A 
ATOM     26  C   UNL d   1     -51.993  23.194  33.330  0.00  0.00     0.022 A 
ATOM     27  C   UNL d   1     -51.297  23.629  33.386  0.00  0.00     0.023 A 
ATOM     28  N   UNL d   1     -50.721  25.037  33.475  0.00  0.00    -0.237 NA
ENDBRANCH   1  20
TORSDOF 4
ENDMDL
MODEL 2
REMARK VINA RESULT:      66.8      0.687      1.077
REMARK  4 active torsions:
REMARK  status: ('A' for Active; 'I' for Inactive)
REMARK    1  A    between atoms: C_8  and  S_1 
REMARK    2  A    between atoms: C_2  and  C_10 
REMARK    3  A    between atoms: C_6  and  C_14 
REMARK       I    between atoms: N_9  and  C_6 
REMARK    4  A    between atoms: C_23  and  N_9 
ROOT
ATOM      1  C   UNL d   1     -50.706  26.358  33.697  0.00  0.00     0.024 A 
ATOM      2  C   UNL d   1     -49.893  26.298  33.728  0.00  0.00     0.004 A 
ATOM      3  C   UNL d   1     -51.075  27.091  33.755  0.00  0.00     0.004 A 
ATOM      4  C   UNL d   1     -49.800  27.718  33.878  0.00  0.00     0.085 A 
ATOM      5  C   UNL d   1     -50.624  27.776  33.846  0.00  0.00     0.019 A 
ATOM      6  C   UNL d   1     -49.435  26.978  33.819  0.00  0.00     0.019 A 
ENDROOT
BRANCH   4   7
ATOM      7  N   UNL d   1     -49.339  28.402  33.970  0.00  0.00    -0.208 NA
ATOM      8  C   UNL d   1     -49.011  28.575  34.704  0.00  0.00     0.279 C 
ATOM      9  O   UNL d   1     -49.133  28.078  35.348  0.00  0.00    -0.265 OA
BRANCH   8  10
ATOM     10  C   UNL d   1     -48.555  29.252  34.795  0.00  0.00     0.058 A 
ATOM     11  C   UNL d   1     -48.004  29.300  35.408  0.00  0.00     0.005 A 
ATOM     12  C   UNL d   1     -47.550  29.974  35.498  0.00  0.00     0.013 A 
ATOM     13  C   UNL d   1     -47.641  30.618  34.970  0.00  0.00     0.107 A 
ATOM     14  C   UNL d   1     -48.190  30.572  34.357  0.00  0.00     0.013 A 
ATOM     15  C   UNL d   1     -48.651  29.889  34.265  0.00  0.00     0.005 A 
BRANCH  13  16
ATOM     16  S   UNL d   1     -47.181  31.301  35.061  0.00  0.00     0.302 S 
ATOM     17  O   UNL d   1     -47.489  31.602  34.364  0.00  0.00    -0.197 OA
ATOM     18  O   UNL d   1     -46.877  30.989  35.762  0.00  0.00    -0.197 OA
ATOM     19  N   UNL d   1     -46.722  31.975  35.159  0.00  0.00    -0.043 N 
ENDBRANCH  13  16
ENDBRANCH   8  10
ENDBRANCH   4   7
BRANCH   1  20
ATOM     20  C   UNL d   1     -51.162  25.672  33.605  0.00  0.00     0.112 A 
ATOM     21  S   UNL d   1     -50.862  24.893  33.551  0.00  0.00    -0.047 SA
ATOM     22  C   UNL d   1     -51.510  24.378  33.464  0.00  0.00     0.130 A 
ATOM     23  N   UNL d   1     -51.557  23.558  33.384  0.00  0.00    -0.236 NA
ATOM     24  C   UNL d   1     -52.206  24.835  33.465  0.00  0.00     0.106 A 
ATOM     25  C   UNL d   1     -52.294  23.190  33.306  0.00  0.00     0.100 A 
ATOM     26  C   UNL d   1     -52.991  23.652  33.307  0.00  0.00     0.022 A 
ATOM     27  C   UNL d   1     -52.941  24.470  33.387  0.00  0.00     0.023 A 
ATOM     28  N   UNL d   1     -51.978  25.640  33.554  0.00  0.00    -0.237 NA
ENDBRANCH   1  20
TORSDOF 4
ENDMDL
