MODEL 1
REMARK VINA RESULT:      34.1      0.000      0.000
REMARK  7 active torsions:
REMARK  status: ('A' for Active; 'I' for Inactive)
REMARK    1  A    between atoms: C_8  and  C_1 
REMARK    2  A    between atoms: N_7  and  C_2 
REMARK    3  A    between atoms: C_5  and  N_7 
REMARK    4  A    between atoms: N_9  and  C_5 
REMARK    5  A    between atoms: O_12  and  C_8 
REMARK    6  A    between atoms: C_13  and  N_9 
REMARK    7  A    between atoms: C_16  and  O_12 
ROOT
ATOM      1  C   UNL d   1     -58.948 -99.000 -45.144  0.00  0.00     0.162 A 
ATOM      2  C   UNL d   1     -58.310 -98.884 -44.645  0.00  0.00     0.108 A 
ATOM      3  N   UNL d   1     -59.631 -99.054 -44.683  0.00  0.00    -0.239 NA
ATOM      4  C   UNL d   1     -58.587 -98.865 -43.873  0.00  0.00     0.037 A 
ATOM      5  C   UNL d   1     -59.404 -98.969 -43.890  0.00  0.00     0.083 A 
ATOM      6  C   UNL d   1     -58.201 -98.765 -43.151  0.00  0.00     0.003 A 
ATOM      7  C   UNL d   1     -59.840 -98.974 -43.187  0.00  0.00     0.019 A 
ATOM      8  C   UNL d   1     -58.627 -98.769 -42.445  0.00  0.00     0.000 A 
ATOM      9  C   UNL d   1     -59.452 -98.874 -42.470  0.00  0.00     0.002 A 
ENDROOT
BRANCH   2  10
ATOM     10  N   UNL d   1     -57.511 -98.800 -44.877  0.00  0.00    -0.216 NA
BRANCH  10  11
ATOM     11  C   UNL d   1     -56.917 -98.813 -44.302  0.00  0.00     0.221 C 
ATOM     12  S   UNL d   1     -57.108 -98.812 -43.496  0.00  0.00    -0.037 SA
BRANCH  11  13
ATOM     13  N   UNL d   1     -56.124 -98.828 -44.542  0.00  0.00    -0.217 NA
BRANCH  13  14
ATOM     14  C   UNL d   1     -55.703 -99.538 -44.509  0.00  0.00     0.084 A 
ATOM     15  C   UNL d   1     -55.757-100.077 -45.128  0.00  0.00     0.019 A 
ATOM     16  C   UNL d   1     -55.337-100.794 -45.102  0.00  0.00     0.002 A 
ATOM     17  C   UNL d   1     -54.861-100.960 -44.443  0.00  0.00     0.000 A 
ATOM     18  C   UNL d   1     -54.803-100.422 -43.817  0.00  0.00     0.002 A 
ATOM     19  C   UNL d   1     -55.224 -99.716 -43.856  0.00  0.00     0.019 A 
ENDBRANCH  13  14
ENDBRANCH  11  13
ENDBRANCH  10  11
ENDBRANCH   2  10
BRANCH   1  20
ATOM     20  C   UNL d   1     -58.918 -99.055 -45.968  0.00  0.00     0.320 C 
ATOM     21  O   UNL d   1     -58.259 -98.760 -46.374  0.00  0.00    -0.257 OA
BRANCH  20  22
ATOM     22  O   UNL d   1     -59.531 -99.397 -46.393  0.00  0.00    -0.270 OA
BRANCH  22  23
ATOM     23  C   UNL d   1     -59.910 -98.960 -46.985  0.00  0.00     0.126 C 
ATOM     24  C   UNL d   1     -59.570 -98.900 -47.728  0.00  0.00     0.029 C 
ENDBRANCH  22  23
ENDBRANCH  20  22
ENDBRANCH   1  20
TORSDOF 7
ENDMDL
