MODEL 1
REMARK VINA RESULT:      -5.3      0.000      0.000
REMARK  0 active torsions:
REMARK  status: ('A' for Active; 'I' for Inactive)
ROOT
ATOM      1  C   UNL d   1      57.200  -0.511  31.430  0.00  0.00     0.086 A 
ATOM      2  S   UNL d   1      56.640  -0.897  31.889  0.00  0.00    -0.081 SA
ATOM      3  C   UNL d   1      57.389   0.295  31.595  0.00  0.00     0.090 A 
ATOM      4  N   UNL d   1      57.010   0.682  32.212  0.00  0.00    -0.244 NA
ATOM      5  C   UNL d   1      56.262  -0.511  32.505  0.00  0.00     0.047 A 
ATOM      6  C   UNL d   1      56.447   0.277  32.667  0.00  0.00     0.087 A 
ATOM      7  C   UNL d   1      57.590  -0.897  30.799  0.00  0.00     0.203 A 
ATOM      8  O   UNL d   1      57.401  -1.702  30.634  0.00  0.00    -0.286 OA
ATOM      9  C   UNL d   1      57.960   0.682  31.122  0.00  0.00     0.020 A 
ATOM     10  C   UNL d   1      58.149  -0.511  30.340  0.00  0.00     0.043 A 
ATOM     11  C   UNL d   1      58.334   0.277  30.502  0.00  0.00     0.005 A 
ATOM     12  C   UNL d   1      55.702  -0.897  32.965  0.00  0.00     0.008 A 
ATOM     13  C   UNL d   1      56.069   0.668  33.285  0.00  0.00     0.020 A 
ATOM     14  C   UNL d   1      55.329  -0.490  33.586  0.00  0.00     0.001 A 
ATOM     15  C   UNL d   1      55.509   0.277  33.742  0.00  0.00     0.002 A 
ENDROOT
TORSDOF 0
ENDMDL
MODEL 2
REMARK VINA RESULT:      -5.1      0.766      2.873
REMARK  0 active torsions:
REMARK  status: ('A' for Active; 'I' for Inactive)
ROOT
ATOM      1  C   UNL d   1      56.342  -0.575  32.391  0.00  0.00     0.086 A 
ATOM      2  S   UNL d   1      56.793  -0.972  31.831  0.00  0.00    -0.081 SA
ATOM      3  C   UNL d   1      56.338   0.269  32.399  0.00  0.00     0.090 A 
ATOM      4  N   UNL d   1      56.785   0.682  31.848  0.00  0.00    -0.244 NA
ATOM      5  C   UNL d   1      57.239  -0.560  31.281  0.00  0.00     0.047 A 
ATOM      6  C   UNL d   1      57.235   0.265  31.289  0.00  0.00     0.087 A 
ATOM      7  C   UNL d   1      55.883  -0.987  32.956  0.00  0.00     0.203 A 
ATOM      8  O   UNL d   1      55.887  -1.830  32.947  0.00  0.00    -0.286 OA
ATOM      9  C   UNL d   1      55.876   0.667  32.972  0.00  0.00     0.020 A 
ATOM     10  C   UNL d   1      55.433  -0.590  33.514  0.00  0.00     0.043 A 
ATOM     11  C   UNL d   1      55.430   0.235  33.522  0.00  0.00     0.005 A 
ATOM     12  C   UNL d   1      57.690  -0.957  30.722  0.00  0.00     0.008 A 
ATOM     13  C   UNL d   1      57.682   0.682  30.738  0.00  0.00     0.020 A 
ATOM     14  C   UNL d   1      58.136  -0.522  30.172  0.00  0.00     0.001 A 
ATOM     15  C   UNL d   1      58.132   0.281  30.180  0.00  0.00     0.002 A 
ENDROOT
TORSDOF 0
ENDMDL
MODEL 3
REMARK VINA RESULT:      -4.4      1.369      2.070
REMARK  0 active torsions:
REMARK  status: ('A' for Active; 'I' for Inactive)
ROOT
ATOM      1  C   UNL d   1      58.122  -0.336  30.227  0.00  0.00     0.086 A 
ATOM      2  S   UNL d   1      57.794   0.232  30.720  0.00  0.00    -0.081 SA
ATOM      3  C   UNL d   1      57.920  -1.148  30.336  0.00  0.00     0.090 A 
ATOM      4  N   UNL d   1      57.397  -1.359  30.934  0.00  0.00    -0.244 NA
ATOM      5  C   UNL d   1      57.272   0.022  31.316  0.00  0.00     0.047 A 
ATOM      6  C   UNL d   1      57.074  -0.772  31.423  0.00  0.00     0.087 A 
ATOM      7  C   UNL d   1      58.655  -0.130  29.616  0.00  0.00     0.203 A 
ATOM      8  O   UNL d   1      58.857   0.681  29.508  0.00  0.00    -0.286 OA
ATOM      9  C   UNL d   1      58.259  -1.722  29.830  0.00  0.00     0.020 A 
ATOM     10  C   UNL d   1      58.983  -0.699  29.125  0.00  0.00     0.043 A 
ATOM     11  C   UNL d   1      58.785  -1.493  29.231  0.00  0.00     0.005 A 
ATOM     12  C   UNL d   1      56.944   0.590  31.809  0.00  0.00     0.008 A 
ATOM     13  C   UNL d   1      56.551  -0.987  32.021  0.00  0.00     0.020 A 
ATOM     14  C   UNL d   1      56.417   0.358  32.408  0.00  0.00     0.001 A 
ATOM     15  C   UNL d   1      56.225  -0.414  32.512  0.00  0.00     0.002 A 
ENDROOT
TORSDOF 0
ENDMDL
MODEL 4
REMARK VINA RESULT:      -4.0      1.817      3.481
REMARK  0 active torsions:
REMARK  status: ('A' for Active; 'I' for Inactive)
ROOT
ATOM      1  C   UNL d   1      56.340   0.681  33.886  0.00  0.00     0.086 A 
ATOM      2  S   UNL d   1      57.101   0.681  33.579  0.00  0.00    -0.081 SA
ATOM      3  C   UNL d   1      55.679   0.681  33.361  0.00  0.00     0.090 A 
ATOM      4  N   UNL d   1      55.806   0.681  32.550  0.00  0.00    -0.244 NA
ATOM      5  C   UNL d   1      57.228   0.681  32.769  0.00  0.00     0.047 A 
ATOM      6  C   UNL d   1      56.582   0.681  32.256  0.00  0.00     0.087 A 
ATOM      7  C   UNL d   1      56.202   0.681  34.711  0.00  0.00     0.203 A 
ATOM      8  O   UNL d   1      56.862   0.681  35.236  0.00  0.00    -0.286 OA
ATOM      9  C   UNL d   1      54.907   0.682  33.683  0.00  0.00     0.020 A 
ATOM     10  C   UNL d   1      55.441   0.682  35.018  0.00  0.00     0.043 A 
ATOM     11  C   UNL d   1      54.795   0.682  34.505  0.00  0.00     0.005 A 
ATOM     12  C   UNL d   1      57.989   0.680  32.462  0.00  0.00     0.008 A 
ATOM     13  C   UNL d   1      56.705   0.681  31.442  0.00  0.00     0.020 A 
ATOM     14  C   UNL d   1      58.098   0.680  31.638  0.00  0.00     0.001 A 
ATOM     15  C   UNL d   1      57.469   0.680  31.138  0.00  0.00     0.002 A 
ENDROOT
TORSDOF 0
ENDMDL
MODEL 5
REMARK VINA RESULT:      -3.9      9.513      9.750
REMARK  0 active torsions:
REMARK  status: ('A' for Active; 'I' for Inactive)
ROOT
ATOM      1  C   UNL d   1      59.872  -9.240  33.713  0.00  0.00     0.086 A 
ATOM      2  S   UNL d   1      59.454  -8.978  34.369  0.00  0.00    -0.081 SA
ATOM      3  C   UNL d   1      60.715  -9.192  33.710  0.00  0.00     0.090 A 
ATOM      4  N   UNL d   1      61.106  -8.884  34.363  0.00  0.00    -0.244 NA
ATOM      5  C   UNL d   1      59.845  -8.670  35.021  0.00  0.00     0.047 A 
ATOM      6  C   UNL d   1      60.669  -8.623  35.018  0.00  0.00     0.087 A 
ATOM      7  C   UNL d   1      59.482  -9.556  33.044  0.00  0.00     0.203 A 
ATOM      8  O   UNL d   1      58.640  -9.604  33.047  0.00  0.00    -0.286 OA
ATOM      9  C   UNL d   1      61.133  -9.461  33.037  0.00  0.00     0.020 A 
ATOM     10  C   UNL d   1      59.900  -9.818  32.389  0.00  0.00     0.043 A 
ATOM     11  C   UNL d   1      60.724  -9.771  32.386  0.00  0.00     0.005 A 
ATOM     12  C   UNL d   1      59.427  -8.408  35.677  0.00  0.00     0.008 A 
ATOM     13  C   UNL d   1      61.063  -8.314  35.671  0.00  0.00     0.020 A 
ATOM     14  C   UNL d   1      59.839  -8.099  36.329  0.00  0.00     0.001 A 
ATOM     15  C   UNL d   1      60.641  -8.053  36.326  0.00  0.00     0.002 A 
ENDROOT
TORSDOF 0
ENDMDL
MODEL 6
REMARK VINA RESULT:      -3.8      9.348      9.861
REMARK  0 active torsions:
REMARK  status: ('A' for Active; 'I' for Inactive)
ROOT
ATOM      1  C   UNL d   1      59.828  -8.464  35.065  0.00  0.00     0.086 A 
ATOM      2  S   UNL d   1      59.360  -8.817  34.490  0.00  0.00    -0.081 SA
ATOM      3  C   UNL d   1      60.665  -8.433  34.961  0.00  0.00     0.090 A 
ATOM      4  N   UNL d   1      61.001  -8.758  34.286  0.00  0.00    -0.244 NA
ATOM      5  C   UNL d   1      59.696  -9.141  33.816  0.00  0.00     0.047 A 
ATOM      6  C   UNL d   1      60.515  -9.112  33.714  0.00  0.00     0.087 A 
ATOM      7  C   UNL d   1      59.493  -8.131  35.756  0.00  0.00     0.203 A 
ATOM      8  O   UNL d   1      58.657  -8.161  35.860  0.00  0.00    -0.286 OA
ATOM      9  C   UNL d   1      61.133  -8.071  35.552  0.00  0.00     0.020 A 
ATOM     10  C   UNL d   1      59.960  -7.778  36.330  0.00  0.00     0.043 A 
ATOM     11  C   UNL d   1      60.778  -7.748  36.228  0.00  0.00     0.005 A 
ATOM     12  C   UNL d   1      59.229  -9.495  33.241  0.00  0.00     0.008 A 
ATOM     13  C   UNL d   1      60.855  -9.436  33.039  0.00  0.00     0.020 A 
ATOM     14  C   UNL d   1      59.587  -9.818  32.564  0.00  0.00     0.001 A 
ATOM     15  C   UNL d   1      60.384  -9.789  32.465  0.00  0.00     0.002 A 
ENDROOT
TORSDOF 0
ENDMDL
MODEL 7
REMARK VINA RESULT:      -3.6      0.939      1.435
REMARK  0 active torsions:
REMARK  status: ('A' for Active; 'I' for Inactive)
ROOT
ATOM      1  C   UNL d   1      58.103  -0.432  30.337  0.00  0.00     0.086 A 
ATOM      2  S   UNL d   1      57.511  -0.788  30.780  0.00  0.00    -0.081 SA
ATOM      3  C   UNL d   1      58.408   0.318  30.576  0.00  0.00     0.090 A 
ATOM      4  N   UNL d   1      58.109   0.682  31.248  0.00  0.00    -0.244 NA
ATOM      5  C   UNL d   1      57.212  -0.424  31.452  0.00  0.00     0.047 A 
ATOM      6  C   UNL d   1      57.510   0.309  31.685  0.00  0.00     0.087 A 
ATOM      7  C   UNL d   1      58.414  -0.796  29.651  0.00  0.00     0.203 A 
ATOM      8  O   UNL d   1      58.109  -1.545  29.412  0.00  0.00    -0.286 OA
ATOM      9  C   UNL d   1      59.011   0.674  30.118  0.00  0.00     0.020 A 
ATOM     10  C   UNL d   1      59.005  -0.440  29.208  0.00  0.00     0.043 A 
ATOM     11  C   UNL d   1      59.303   0.293  29.441  0.00  0.00     0.005 A 
ATOM     12  C   UNL d   1      56.620  -0.780  31.895  0.00  0.00     0.008 A 
ATOM     13  C   UNL d   1      57.212   0.676  32.358  0.00  0.00     0.020 A 
ATOM     14  C   UNL d   1      56.329  -0.397  32.573  0.00  0.00     0.001 A 
ATOM     15  C   UNL d   1      56.619   0.317  32.800  0.00  0.00     0.002 A 
ENDROOT
TORSDOF 0
ENDMDL
MODEL 8
REMARK VINA RESULT:      -3.0      1.808      2.475
REMARK  0 active torsions:
REMARK  status: ('A' for Active; 'I' for Inactive)
ROOT
ATOM      1  C   UNL d   1      56.529   0.534  33.487  0.00  0.00     0.086 A 
ATOM      2  S   UNL d   1      56.350   0.570  34.287  0.00  0.00    -0.081 SA
ATOM      3  C   UNL d   1      55.904   0.534  32.920  0.00  0.00     0.090 A 
ATOM      4  N   UNL d   1      55.125   0.571  33.176  0.00  0.00    -0.244 NA
ATOM      5  C   UNL d   1      55.572   0.607  34.543  0.00  0.00     0.047 A 
ATOM      6  C   UNL d   1      54.961   0.607  33.988  0.00  0.00     0.087 A 
ATOM      7  C   UNL d   1      57.320   0.497  33.217  0.00  0.00     0.203 A 
ATOM      8  O   UNL d   1      57.945   0.496  33.783  0.00  0.00    -0.286 OA
ATOM      9  C   UNL d   1      56.095   0.497  32.106  0.00  0.00     0.020 A 
ATOM     10  C   UNL d   1      57.499   0.461  32.418  0.00  0.00     0.043 A 
ATOM     11  C   UNL d   1      56.887   0.461  31.863  0.00  0.00     0.005 A 
ATOM     12  C   UNL d   1      55.393   0.643  35.343  0.00  0.00     0.008 A 
ATOM     13  C   UNL d   1      54.179   0.644  34.242  0.00  0.00     0.020 A 
ATOM     14  C   UNL d   1      54.599   0.679  35.584  0.00  0.00     0.001 A 
ATOM     15  C   UNL d   1      54.004   0.680  35.044  0.00  0.00     0.002 A 
ENDROOT
TORSDOF 0
ENDMDL
MODEL 9
REMARK VINA RESULT:      -2.8      3.585      4.805
REMARK  0 active torsions:
REMARK  status: ('A' for Active; 'I' for Inactive)
ROOT
ATOM      1  C   UNL d   1      59.777  -0.713  29.231  0.00  0.00     0.086 A 
ATOM      2  S   UNL d   1      60.266  -1.334  29.008  0.00  0.00    -0.081 SA
ATOM      3  C   UNL d   1      58.956  -0.858  29.364  0.00  0.00     0.090 A 
ATOM      4  N   UNL d   1      58.657  -1.616  29.269  0.00  0.00    -0.244 NA
ATOM      5  C   UNL d   1      59.968  -2.091  28.913  0.00  0.00     0.047 A 
ATOM      6  C   UNL d   1      59.165  -2.232  29.043  0.00  0.00     0.087 A 
ATOM      7  C   UNL d   1      60.073   0.063  29.331  0.00  0.00     0.203 A 
ATOM      8  O   UNL d   1      60.893   0.207  29.198  0.00  0.00    -0.286 OA
ATOM      9  C   UNL d   1      58.464  -0.220  29.591  0.00  0.00     0.020 A 
ATOM     10  C   UNL d   1      59.583   0.682  29.553  0.00  0.00     0.043 A 
ATOM     11  C   UNL d   1      58.781   0.541  29.683  0.00  0.00     0.005 A 
ATOM     12  C   UNL d   1      60.457  -2.711  28.690  0.00  0.00     0.008 A 
ATOM     13  C   UNL d   1      58.863  -2.992  28.948  0.00  0.00     0.020 A 
ATOM     14  C   UNL d   1      60.137  -3.473  28.599  0.00  0.00     0.001 A 
ATOM     15  C   UNL d   1      59.356  -3.610  28.725  0.00  0.00     0.002 A 
ENDROOT
TORSDOF 0
ENDMDL
