MODEL 1
REMARK VINA RESULT:      58.5      0.000      0.000
REMARK  8 active torsions:
REMARK  status: ('A' for Active; 'I' for Inactive)
REMARK    1  A    between atoms: C_7  and  C_2 
REMARK    2  A    between atoms: C_12  and  N_3 
REMARK    3  A    between atoms: O_9  and  C_6 
REMARK    4  A    between atoms: O_22  and  C_7 
REMARK    5  A    between atoms: C_8  and  N_11 
REMARK    6  A    between atoms: C_20  and  O_9 
REMARK    7  A    between atoms: C_10  and  C_20 
REMARK       I    between atoms: N_11  and  C_10 
REMARK    8  A    between atoms: C_27  and  O_22 
ROOT
ATOM      1  N   UNL d   1      14.762  17.925  -4.805  0.00  0.00    -0.155 NA
ATOM      2  C   UNL d   1      14.729  17.116  -4.668  0.00  0.00     0.187 A 
ATOM      3  N   UNL d   1      14.272  18.261  -5.380  0.00  0.00    -0.194 N 
ATOM      4  C   UNL d   1      13.755  17.786  -5.812  0.00  0.00     0.282 A 
ATOM      5  C   UNL d   1      13.727  16.974  -5.669  0.00  0.00     0.089 A 
ATOM      6  C   UNL d   1      14.212  16.640  -5.100  0.00  0.00     0.130 A 
ATOM      7  O   UNL d   1      13.265  18.122  -6.387  0.00  0.00    -0.265 OA
ENDROOT
BRANCH   6   8
ATOM      8  O   UNL d   1      14.185  15.828  -4.958  0.00  0.00    -0.298 OA
BRANCH   8   9
ATOM      9  C   UNL d   1      13.471  15.461  -4.784  0.00  0.00     0.185 C 
BRANCH   9  10
ATOM     10  C   UNL d   1      13.431  14.635  -4.767  0.00  0.00     0.304 C 
ATOM     11  N   UNL d   1      13.287  14.247  -4.056  0.00  0.00    -0.206 NA
ATOM     12  O   UNL d   1      13.535  14.206  -5.462  0.00  0.00    -0.263 OA
BRANCH  11  13
ATOM     13  C   UNL d   1      13.247  13.422  -4.039  0.00  0.00     0.085 A 
ATOM     14  C   UNL d   1      13.063  13.003  -4.712  0.00  0.00     0.019 A 
ATOM     15  C   UNL d   1      13.021  12.186  -4.707  0.00  0.00     0.002 A 
ATOM     16  C   UNL d   1      12.837  11.779  -5.384  0.00  0.00     0.000 C 
ATOM     17  C   UNL d   1      13.169  11.779  -3.996  0.00  0.00     0.000 A 
ATOM     18  C   UNL d   1      13.353  12.199  -3.319  0.00  0.00     0.002 A 
ATOM     19  C   UNL d   1      13.393  13.016  -3.336  0.00  0.00     0.019 A 
ATOM     20  C   UNL d   1      13.500  11.792  -2.616  0.00  0.00     0.000 C 
ENDBRANCH  11  13
ENDBRANCH   9  10
ENDBRANCH   8   9
ENDBRANCH   6   8
BRANCH   2  21
ATOM     21  C   UNL d   1      15.214  16.783  -4.099  0.00  0.00     0.322 C 
ATOM     22  O   UNL d   1      15.984  16.558  -4.292  0.00  0.00    -0.257 OA
BRANCH  21  23
ATOM     23  O   UNL d   1      14.939  16.668  -3.326  0.00  0.00    -0.270 OA
BRANCH  23  24
ATOM     24  C   UNL d   1      15.301  17.044  -2.694  0.00  0.00     0.126 C 
ATOM     25  C   UNL d   1      14.976  16.987  -1.938  0.00  0.00     0.029 C 
ENDBRANCH  23  24
ENDBRANCH  21  23
ENDBRANCH   2  21
BRANCH   3  26
ATOM     26  C   UNL d   1      14.302  19.072  -5.519  0.00  0.00     0.086 A 
ATOM     27  C   UNL d   1      14.666  19.355  -6.195  0.00  0.00     0.019 A 
ATOM     28  C   UNL d   1      14.698  20.167  -6.339  0.00  0.00     0.002 A 
ATOM     29  C   UNL d   1      14.360  20.700  -5.796  0.00  0.00     0.000 A 
ATOM     30  C   UNL d   1      13.995  20.407  -5.116  0.00  0.00     0.002 A 
ATOM     31  C   UNL d   1      13.964  19.605  -4.977  0.00  0.00     0.019 A 
ENDBRANCH   3  26
TORSDOF 8
ENDMDL
