MODEL 1
REMARK VINA RESULT:      -5.2      0.000      0.000
REMARK  5 active torsions:
REMARK  status: ('A' for Active; 'I' for Inactive)
REMARK    1  A    between atoms: C_4  and  S_1 
REMARK    2  A    between atoms: N_5  and  S_1 
REMARK    3  A    between atoms: C_2  and  C_9 
REMARK       I    between atoms: N_3  and  C_2 
REMARK    4  A    between atoms: C_8  and  N_3 
REMARK    5  A    between atoms: O_16  and  C_11 
ROOT
ATOM      1  C   UNL d   1      56.193   0.059  32.801  0.00  0.00     0.104 A 
ATOM      2  C   UNL d   1      57.171  -0.165  31.456  0.00  0.00     0.058 A 
ATOM      3  C   UNL d   1      56.476  -0.659  32.611  0.00  0.00     0.013 A 
ATOM      4  C   UNL d   1      56.393   0.681  32.322  0.00  0.00     0.013 A 
ATOM      5  C   UNL d   1      56.872   0.605  31.655  0.00  0.00     0.005 A 
ATOM      6  C   UNL d   1      56.960  -0.773  31.947  0.00  0.00     0.005 A 
ENDROOT
BRANCH   2   7
ATOM      7  C   UNL d   1      57.667  -0.281  30.777  0.00  0.00     0.279 C 
ATOM      8  N   UNL d   1      58.117   0.286  30.482  0.00  0.00    -0.206 NA
ATOM      9  O   UNL d   1      57.651  -1.057  30.424  0.00  0.00    -0.265 OA
BRANCH   8  10
ATOM     10  C   UNL d   1      58.589   0.144  29.820  0.00  0.00     0.107 A 
ATOM     11  C   UNL d   1      59.371   0.347  29.840  0.00  0.00     0.112 A 
ATOM     12  C   UNL d   1      59.842   0.206  29.178  0.00  0.00     0.026 A 
ATOM     13  C   UNL d   1      59.531  -0.139  28.496  0.00  0.00     0.002 A 
ATOM     14  C   UNL d   1      58.720  -0.346  28.486  0.00  0.00     0.002 A 
ATOM     15  C   UNL d   1      58.254  -0.202  29.150  0.00  0.00     0.021 A 
BRANCH  11  16
ATOM     16  O   UNL d   1      59.632   0.659  30.468  0.00  0.00    -0.327 OA
ATOM     17  C   UNL d   1      60.605   0.659  30.428  0.00  0.00     0.181 C 
ENDBRANCH  11  16
ENDBRANCH   8  10
ENDBRANCH   2   7
BRANCH   1  18
ATOM     18  S   UNL d   1      55.672   0.252  33.495  0.00  0.00     0.271 S 
ATOM     19  O   UNL d   1      56.266   0.682  33.910  0.00  0.00    -0.200 OA
ATOM     20  O   UNL d   1      55.107  -0.160  33.093  0.00  0.00    -0.200 OA
BRANCH  18  21
ATOM     21  N   UNL d   1      55.104   0.406  34.147  0.00  0.00    -0.226 N 
ATOM     22  C   UNL d   1      54.341   0.676  33.979  0.00  0.00     0.111 C 
ATOM     23  C   UNL d   1      55.338   0.279  34.940  0.00  0.00     0.111 C 
ENDBRANCH  18  21
ENDBRANCH   1  18
TORSDOF 5
ENDMDL
MODEL 2
REMARK VINA RESULT:      -4.0      1.534      4.980
REMARK  5 active torsions:
REMARK  status: ('A' for Active; 'I' for Inactive)
REMARK    1  A    between atoms: C_4  and  S_1 
REMARK    2  A    between atoms: N_5  and  S_1 
REMARK    3  A    between atoms: C_2  and  C_9 
REMARK       I    between atoms: N_3  and  C_2 
REMARK    4  A    between atoms: C_8  and  N_3 
REMARK    5  A    between atoms: O_16  and  C_11 
ROOT
ATOM      1  C   UNL d   1      58.178  -0.237  30.218  0.00  0.00     0.104 A 
ATOM      2  C   UNL d   1      57.088   0.104  31.448  0.00  0.00     0.058 A 
ATOM      3  C   UNL d   1      57.920   0.504  30.348  0.00  0.00     0.013 A 
ATOM      4  C   UNL d   1      57.896  -0.823  30.701  0.00  0.00     0.013 A 
ATOM      5  C   UNL d   1      57.361  -0.689  31.314  0.00  0.00     0.005 A 
ATOM      6  C   UNL d   1      57.381   0.676  30.955  0.00  0.00     0.005 A 
ENDROOT
BRANCH   2   7
ATOM      7  C   UNL d   1      56.537   0.280  32.070  0.00  0.00     0.279 C 
ATOM      8  N   UNL d   1      56.686   0.123  32.821  0.00  0.00    -0.206 NA
ATOM      9  O   UNL d   1      55.803   0.641  31.834  0.00  0.00    -0.265 OA
BRANCH   8  10
ATOM     10  C   UNL d   1      56.132   0.304  33.405  0.00  0.00     0.107 A 
ATOM     11  C   UNL d   1      56.387   0.500  34.146  0.00  0.00     0.112 A 
ATOM     12  C   UNL d   1      55.833   0.682  34.729  0.00  0.00     0.026 A 
ATOM     13  C   UNL d   1      55.023   0.667  34.571  0.00  0.00     0.002 A 
ATOM     14  C   UNL d   1      54.770   0.462  33.800  0.00  0.00     0.002 A 
ATOM     15  C   UNL d   1      55.328   0.282  33.221  0.00  0.00     0.021 A 
BRANCH  11  16
ATOM     16  O   UNL d   1      57.125   0.508  34.268  0.00  0.00    -0.327 OA
ATOM     17  C   UNL d   1      57.277   0.682  35.214  0.00  0.00     0.181 C 
ENDBRANCH  11  16
ENDBRANCH   8  10
ENDBRANCH   2   7
BRANCH   1  18
ATOM     18  S   UNL d   1      58.751  -0.490  29.588  0.00  0.00     0.271 S 
ATOM     19  O   UNL d   1      58.612  -1.315  29.695  0.00  0.00    -0.200 OA
ATOM     20  O   UNL d   1      58.881   0.299  29.490  0.00  0.00    -0.200 OA
BRANCH  18  21
ATOM     21  N   UNL d   1      59.333  -0.671  28.954  0.00  0.00    -0.226 N 
ATOM     22  C   UNL d   1      59.278  -1.378  28.530  0.00  0.00     0.111 C 
ATOM     23  C   UNL d   1      59.942  -0.125  28.782  0.00  0.00     0.111 C 
ENDBRANCH  18  21
ENDBRANCH   1  18
TORSDOF 5
ENDMDL
MODEL 3
REMARK VINA RESULT:      -2.3     10.031     10.206
REMARK  5 active torsions:
REMARK  status: ('A' for Active; 'I' for Inactive)
REMARK    1  A    between atoms: C_4  and  S_1 
REMARK    2  A    between atoms: N_5  and  S_1 
REMARK    3  A    between atoms: C_2  and  C_9 
REMARK       I    between atoms: N_3  and  C_2 
REMARK    4  A    between atoms: C_8  and  N_3 
REMARK    5  A    between atoms: O_16  and  C_11 
ROOT
ATOM      1  C   UNL d   1      60.051  -9.362  33.887  0.00  0.00     0.104 A 
ATOM      2  C   UNL d   1      60.138  -9.527  32.219  0.00  0.00     0.058 A 
ATOM      3  C   UNL d   1      60.712  -9.173  33.487  0.00  0.00     0.013 A 
ATOM      4  C   UNL d   1      59.419  -9.638  33.461  0.00  0.00     0.013 A 
ATOM      5  C   UNL d   1      59.429  -9.730  32.642  0.00  0.00     0.005 A 
ATOM      6  C   UNL d   1      60.757  -9.254  32.662  0.00  0.00     0.005 A 
ENDROOT
BRANCH   2   7
ATOM      7  C   UNL d   1      60.184  -9.609  31.375  0.00  0.00     0.279 C 
ATOM      8  N   UNL d   1      59.555  -9.567  30.913  0.00  0.00    -0.206 NA
ATOM      9  O   UNL d   1      60.960  -9.742  31.050  0.00  0.00    -0.265 OA
BRANCH   8  10
ATOM     10  C   UNL d   1      59.629  -9.651  30.095  0.00  0.00     0.107 A 
ATOM     11  C   UNL d   1      58.964  -9.676  29.637  0.00  0.00     0.112 A 
ATOM     12  C   UNL d   1      59.039  -9.760  28.821  0.00  0.00     0.026 A 
ATOM     13  C   UNL d   1      59.780  -9.818  28.461  0.00  0.00     0.002 A 
ATOM     14  C   UNL d   1      60.462  -9.790  28.945  0.00  0.00     0.002 A 
ATOM     15  C   UNL d   1      60.382  -9.706  29.761  0.00  0.00     0.021 A 
BRANCH  11  16
ATOM     16  O   UNL d   1      58.303  -9.622  29.983  0.00  0.00    -0.327 OA
ATOM     17  C   UNL d   1      57.601  -9.772  29.326  0.00  0.00     0.181 C 
ENDBRANCH  11  16
ENDBRANCH   8  10
ENDBRANCH   2   7
BRANCH   1  18
ATOM     18  S   UNL d   1      59.934  -9.301  34.766  0.00  0.00     0.271 S 
ATOM     19  O   UNL d   1      59.234  -9.770  34.775  0.00  0.00    -0.200 OA
ATOM     20  O   UNL d   1      60.604  -8.853  34.751  0.00  0.00    -0.200 OA
BRANCH  18  21
ATOM     21  N   UNL d   1      59.878  -9.200  35.637  0.00  0.00    -0.226 N 
ATOM     22  C   UNL d   1      60.224  -8.545  36.002  0.00  0.00     0.111 C 
ATOM     23  C   UNL d   1      59.474  -9.771  36.096  0.00  0.00     0.111 C 
ENDBRANCH  18  21
ENDBRANCH   1  18
TORSDOF 5
ENDMDL
