MODEL 1
REMARK VINA RESULT:      -5.6      0.000      0.000
REMARK  10 active torsions:
REMARK  status: ('A' for Active; 'I' for Inactive)
REMARK    1  A    between atoms: C_15  and  C_3 
REMARK       I    between atoms: C_8  and  N_7 
REMARK    2  A    between atoms: O_29  and  C_8 
REMARK       I    between atoms: N_9  and  C_11 
REMARK    3  A    between atoms: S_17  and  C_10 
REMARK    4  A    between atoms: C_11  and  C_23 
REMARK       I    between atoms: C_13  and  N_26 
REMARK    5  A    between atoms: C_16  and  C_13 
REMARK    6  A    between atoms: C_30  and  C_15 
REMARK    7  A    between atoms: C_23  and  S_17 
REMARK    8  A    between atoms: N_26  and  C_30 
REMARK    9  A    between atoms: C_35  and  O_29 
REMARK   10  A    between atoms: O_34  and  C_31 
ROOT
ATOM      1  N   UNL d   1     -43.287  13.045  21.628  0.00  0.00    -0.191 N 
ATOM      2  C   UNL d   1     -42.766  12.415  21.778  0.00  0.00     0.187 A 
ATOM      3  C   UNL d   1     -44.045  12.814  21.868  0.00  0.00     0.188 A 
ATOM      4  N   UNL d   1     -43.003  13.744  21.294  0.00  0.00    -0.156 NA
ATOM      5  N   UNL d   1     -43.209  11.800  22.110  0.00  0.00    -0.127 NA
ATOM      6  N   UNL d   1     -43.994  12.042  22.167  0.00  0.00    -0.127 NA
ATOM      7  C   UNL d   1     -42.198  13.815  21.109  0.00  0.00     0.131 A 
ATOM      8  C   UNL d   1     -41.972  12.494  21.592  0.00  0.00     0.043 A 
ATOM      9  C   UNL d   1     -41.682  13.191  21.258  0.00  0.00     0.031 A 
ENDROOT
BRANCH   7  10
ATOM     10  S   UNL d   1     -41.916  14.521  20.772  0.00  0.00    -0.061 SA
BRANCH  10  11
ATOM     11  C   UNL d   1     -41.273  14.499  20.244  0.00  0.00     0.098 C 
BRANCH  11  12
ATOM     12  C   UNL d   1     -40.950  15.214  19.965  0.00  0.00     0.272 C 
ATOM     13  N   UNL d   1     -40.476  15.201  19.297  0.00  0.00    -0.269 N 
ATOM     14  C   UNL d   1     -40.331  14.489  18.921  0.00  0.00     0.102 A 
ATOM     15  C   UNL d   1     -40.150  15.896  19.009  0.00  0.00     0.102 A 
ATOM     16  C   UNL d   1     -39.847  14.485  18.242  0.00  0.00     0.104 A 
ATOM     17  N   UNL d   1     -39.525  15.196  17.963  0.00  0.00    -0.249 N 
ATOM     18  C   UNL d   1     -39.678  15.894  18.347  0.00  0.00     0.104 A 
ATOM     19  C   UNL d   1     -39.044  15.180  17.285  0.00  0.00     0.378 C 
ATOM     20  O   UNL d   1     -38.721  15.891  17.006  0.00  0.00    -0.237 OA
ATOM     21  O   UNL d   1     -41.105  15.921  20.354  0.00  0.00    -0.266 OA
BRANCH  19  22
ATOM     22  O   UNL d   1     -38.896  14.472  16.906  0.00  0.00    -0.257 OA
BRANCH  22  23
ATOM     23  C   UNL d   1     -38.350  14.455  16.293  0.00  0.00     0.128 C 
ATOM     24  C   UNL d   1     -38.228  13.758  15.873  0.00  0.00     0.029 C 
ENDBRANCH  22  23
ENDBRANCH  19  22
ENDBRANCH  11  12
ENDBRANCH  10  11
ENDBRANCH   7  10
BRANCH   3  25
ATOM     25  C   UNL d   1     -44.728  13.278  21.815  0.00  0.00     0.061 C 
BRANCH  25  26
ATOM     26  C   UNL d   1     -45.315  13.224  22.397  0.00  0.00     0.105 C 
BRANCH  26  27
ATOM     27  N   UNL d   1     -46.030  13.623  22.291  0.00  0.00    -0.206 NA
ATOM     28  C   UNL d   1     -46.566  13.684  22.925  0.00  0.00     0.279 C 
ATOM     29  O   UNL d   1     -46.373  13.343  23.658  0.00  0.00    -0.265 OA
BRANCH  28  30
ATOM     30  C   UNL d   1     -47.280  14.081  22.822  0.00  0.00     0.058 A 
ATOM     31  C   UNL d   1     -47.990  13.681  22.950  0.00  0.00     0.007 A 
ATOM     32  C   UNL d   1     -48.707  14.073  22.848  0.00  0.00     0.024 A 
ATOM     33  C   UNL d   1     -48.710  14.868  22.618  0.00  0.00     0.094 A 
ATOM     34  C   UNL d   1     -48.000  15.267  22.490  0.00  0.00     0.024 A 
ATOM     35  C   UNL d   1     -47.281  14.868  22.594  0.00  0.00     0.007 A 
BRANCH  33  36
ATOM     36  O   UNL d   1     -49.424  15.260  22.516  0.00  0.00    -0.328 OA
ATOM     37  C   UNL d   1     -49.791  15.622  23.151  0.00  0.00     0.181 C 
ENDBRANCH  33  36
ENDBRANCH  28  30
ENDBRANCH  26  27
ENDBRANCH  25  26
ENDBRANCH   3  25
TORSDOF 10
ENDMDL
