MODEL 1
REMARK VINA RESULT:      27.2      0.000      0.000
REMARK  7 active torsions:
REMARK  status: ('A' for Active; 'I' for Inactive)
REMARK    1  A    between atoms: C_5  and  N_1 
REMARK    2  A    between atoms: S_12  and  C_2 
REMARK       I    between atoms: N_3  and  C_9 
REMARK    3  A    between atoms: C_15  and  C_4 
REMARK    4  A    between atoms: C_9  and  C_20 
REMARK       I    between atoms: C_10  and  N_14 
REMARK    5  A    between atoms: C_11  and  C_10 
REMARK    6  A    between atoms: C_20  and  S_12 
REMARK    7  A    between atoms: N_14  and  C_15 
ROOT
ATOM      1  N   UNL d   1     -41.799-121.366 -53.064  0.00  0.00    -0.268 N 
ATOM      2  C   UNL d   1     -41.855-121.606 -52.275  0.00  0.00     0.201 A 
ATOM      3  C   UNL d   1     -41.466-120.606 -53.080  0.00  0.00     0.190 A 
ATOM      4  N   UNL d   1     -41.555-120.993 -51.796  0.00  0.00    -0.121 NA
ATOM      5  N   UNL d   1     -41.315-120.377 -52.292  0.00  0.00    -0.126 NA
ENDROOT
BRANCH   2   6
ATOM      6  S   UNL d   1     -42.152-122.318 -52.008  0.00  0.00    -0.043 SA
BRANCH   6   7
ATOM      7  C   UNL d   1     -41.831-122.685 -51.340  0.00  0.00     0.099 C 
BRANCH   7   8
ATOM      8  C   UNL d   1     -42.311-122.921 -50.724  0.00  0.00     0.271 C 
ATOM      9  N   UNL d   1     -41.989-123.084 -49.986  0.00  0.00    -0.273 N 
ATOM     10  C   UNL d   1     -42.409-123.327 -49.319  0.00  0.00     0.067 A 
ATOM     11  C   UNL d   1     -41.193-123.033 -49.788  0.00  0.00     0.083 A 
ATOM     12  C   UNL d   1     -41.863-123.425 -48.704  0.00  0.00     0.018 A 
ATOM     13  C   UNL d   1     -43.215-123.467 -49.202  0.00  0.00     0.018 A 
ATOM     14  C   UNL d   1     -42.131-123.668 -47.966  0.00  0.00     0.002 A 
ATOM     15  C   UNL d   1     -41.124-123.245 -48.994  0.00  0.00     0.021 A 
ATOM     16  C   UNL d   1     -42.942-123.812 -47.836  0.00  0.00     0.000 A 
ATOM     17  C   UNL d   1     -43.478-123.712 -48.453  0.00  0.00     0.002 A 
ATOM     18  O   UNL d   1     -43.127-122.997 -50.842  0.00  0.00    -0.266 OA
ENDBRANCH   7   8
ENDBRANCH   6   7
ENDBRANCH   2   6
BRANCH   1  19
ATOM     19  C   UNL d   1     -42.031-121.798 -53.714  0.00  0.00     0.067 A 
ATOM     20  C   UNL d   1     -42.828-121.884 -53.888  0.00  0.00     0.016 A 
ATOM     21  C   UNL d   1     -43.063-122.324 -54.548  0.00  0.00     0.001 A 
ATOM     22  C   UNL d   1     -43.398-121.537 -53.412  0.00  0.00     0.002 C 
ATOM     23  C   UNL d   1     -42.498-122.672 -55.027  0.00  0.00     0.000 A 
ATOM     24  C   UNL d   1     -41.690-122.583 -54.848  0.00  0.00     0.001 A 
ATOM     25  C   UNL d   1     -41.455-122.152 -54.199  0.00  0.00     0.018 A 
ATOM     26  C   UNL d   1     -41.128-122.939 -55.338  0.00  0.00     0.000 C 
ENDBRANCH   1  19
BRANCH   3  27
ATOM     27  C   UNL d   1     -41.310-120.155 -53.753  0.00  0.00     0.141 C 
BRANCH  27  28
ATOM     28  N   UNL d   1     -41.127-119.356 -53.679  0.00  0.00    -0.202 NA
ATOM     29  C   UNL d   1     -41.620-118.792 -54.031  0.00  0.00     0.302 C 
ATOM     30  O   UNL d   1     -42.287-119.037 -54.452  0.00  0.00    -0.263 OA
BRANCH  29  31
ATOM     31  C   UNL d   1     -41.449-117.986 -53.965  0.00  0.00     0.158 A 
ATOM     32  O   UNL d   1     -41.257-117.602 -53.268  0.00  0.00    -0.300 OA
ATOM     33  C   UNL d   1     -41.128-116.807 -53.441  0.00  0.00     0.123 A 
ATOM     34  C   UNL d   1     -41.244-116.711 -54.258  0.00  0.00     0.029 A 
ATOM     35  C   UNL d   1     -41.442-117.444 -54.579  0.00  0.00     0.032 A 
ENDBRANCH  29  31
ENDBRANCH  27  28
ENDBRANCH   3  27
TORSDOF 7
ENDMDL
