MODEL 1
REMARK VINA RESULT:      -2.9      0.000      0.000
REMARK  3 active torsions:
REMARK  status: ('A' for Active; 'I' for Inactive)
REMARK    1  A    between atoms: C_6  and  C_1 
REMARK    2  A    between atoms: O_10  and  C_6 
REMARK    3  A    between atoms: C_13  and  O_10 
ROOT
ATOM      1  C   UNL d   1      31.163  16.878 -23.973  0.00  0.00     0.121 A 
ATOM      2  C   UNL d   1      30.394  17.053 -24.216  0.00  0.00     0.204 A 
ATOM      3  C   UNL d   1      31.304  16.227 -23.483  0.00  0.00     0.107 A 
ATOM      4  C   UNL d   1      29.767  16.577 -23.971  0.00  0.00     0.057 A 
ATOM      5  N   UNL d   1      30.669  15.749 -23.237  0.00  0.00    -0.244 NA
ATOM      6  C   UNL d   1      29.900  15.924 -23.481  0.00  0.00     0.085 A 
ATOM      7  O   UNL d   1      30.258  17.705 -24.706  0.00  0.00    -0.286 OA
ATOM      8  C   UNL d   1      28.998  16.754 -24.216  0.00  0.00     0.005 A 
ATOM      9  C   UNL d   1      29.280  15.453 -23.238  0.00  0.00     0.019 A 
ATOM     10  C   UNL d   1      28.376  16.276 -23.969  0.00  0.00     0.000 A 
ATOM     11  C   UNL d   1      28.517  15.625 -23.479  0.00  0.00     0.002 A 
ENDROOT
BRANCH   1  12
ATOM     12  C   UNL d   1      31.796  17.349 -24.213  0.00  0.00     0.305 C 
ATOM     13  O   UNL d   1      32.102  17.258 -24.975  0.00  0.00    -0.259 OA
BRANCH  12  14
ATOM     14  O   UNL d   1      32.121  17.906 -23.696  0.00  0.00    -0.271 OA
BRANCH  14  15
ATOM     15  C   UNL d   1      32.839  18.273 -23.879  0.00  0.00     0.126 C 
ATOM     16  C   UNL d   1      33.159  18.828 -23.360  0.00  0.00     0.029 C 
ENDBRANCH  14  15
ENDBRANCH  12  14
ENDBRANCH   1  12
TORSDOF 3
ENDMDL
MODEL 2
REMARK VINA RESULT:      -2.7      1.266      3.537
REMARK  3 active torsions:
REMARK  status: ('A' for Active; 'I' for Inactive)
REMARK    1  A    between atoms: C_6  and  C_1 
REMARK    2  A    between atoms: O_10  and  C_6 
REMARK    3  A    between atoms: C_13  and  O_10 
ROOT
ATOM      1  C   UNL d   1      30.709  16.739 -24.232  0.00  0.00     0.121 A 
ATOM      2  C   UNL d   1      31.356  16.660 -23.727  0.00  0.00     0.204 A 
ATOM      3  C   UNL d   1      30.655  17.390 -24.739  0.00  0.00     0.107 A 
ATOM      4  C   UNL d   1      31.950  17.233 -23.729  0.00  0.00     0.057 A 
ATOM      5  N   UNL d   1      31.256  17.965 -24.738  0.00  0.00    -0.244 NA
ATOM      6  C   UNL d   1      31.904  17.886 -24.233  0.00  0.00     0.085 A 
ATOM      7  O   UNL d   1      31.406  16.008 -23.222  0.00  0.00    -0.286 OA
ATOM      8  C   UNL d   1      32.598  17.151 -23.222  0.00  0.00     0.005 A 
ATOM      9  C   UNL d   1      32.491  18.453 -24.236  0.00  0.00     0.019 A 
ATOM     10  C   UNL d   1      33.188  17.725 -23.228  0.00  0.00     0.000 A 
ATOM     11  C   UNL d   1      33.134  18.376 -23.735  0.00  0.00     0.002 A 
ENDROOT
BRANCH   1  12
ATOM     12  C   UNL d   1      30.109  16.171 -24.237  0.00  0.00     0.305 C 
ATOM     13  O   UNL d   1      30.234  15.453 -24.626  0.00  0.00    -0.259 OA
BRANCH  12  14
ATOM     14  O   UNL d   1      29.392  16.320 -23.855  0.00  0.00    -0.271 OA
BRANCH  14  15
ATOM     15  C   UNL d   1      28.740  15.829 -23.989  0.00  0.00     0.126 C 
ATOM     16  C   UNL d   1      28.030  15.974 -23.597  0.00  0.00     0.029 C 
ENDBRANCH  14  15
ENDBRANCH  12  14
ENDBRANCH   1  12
TORSDOF 3
ENDMDL
MODEL 3
REMARK VINA RESULT:      -2.6      3.910      6.068
REMARK  3 active torsions:
REMARK  status: ('A' for Active; 'I' for Inactive)
REMARK    1  A    between atoms: C_6  and  C_1 
REMARK    2  A    between atoms: O_10  and  C_6 
REMARK    3  A    between atoms: C_13  and  O_10 
ROOT
ATOM      1  C   UNL d   1      32.926  20.890 -21.855  0.00  0.00     0.121 A 
ATOM      2  C   UNL d   1      32.511  21.254 -21.243  0.00  0.00     0.204 A 
ATOM      3  C   UNL d   1      33.220  21.342 -22.482  0.00  0.00     0.107 A 
ATOM      4  C   UNL d   1      32.390  22.070 -21.256  0.00  0.00     0.057 A 
ATOM      5  N   UNL d   1      33.096  22.165 -22.492  0.00  0.00    -0.244 NA
ATOM      6  C   UNL d   1      32.681  22.529 -21.880  0.00  0.00     0.085 A 
ATOM      7  O   UNL d   1      32.219  20.798 -20.618  0.00  0.00    -0.286 OA
ATOM      8  C   UNL d   1      31.974  22.432 -20.640  0.00  0.00     0.005 A 
ATOM      9  C   UNL d   1      32.562  23.336 -21.893  0.00  0.00     0.019 A 
ATOM     10  C   UNL d   1      31.856  23.246 -20.659  0.00  0.00     0.000 A 
ATOM     11  C   UNL d   1      32.150  23.698 -21.286  0.00  0.00     0.002 A 
ENDROOT
BRANCH   1  12
ATOM     12  C   UNL d   1      33.052  20.075 -21.850  0.00  0.00     0.305 C 
ATOM     13  O   UNL d   1      33.239  19.698 -21.139  0.00  0.00    -0.259 OA
BRANCH  12  14
ATOM     14  O   UNL d   1      32.991  19.640 -22.550  0.00  0.00    -0.271 OA
BRANCH  14  15
ATOM     15  C   UNL d   1      33.186  18.836 -22.558  0.00  0.00     0.126 C 
ATOM     16  C   UNL d   1      32.994  18.374 -23.213  0.00  0.00     0.029 C 
ENDBRANCH  14  15
ENDBRANCH  12  14
ENDBRANCH   1  12
TORSDOF 3
ENDMDL
MODEL 4
REMARK VINA RESULT:      -2.5      1.751      2.480
REMARK  3 active torsions:
REMARK  status: ('A' for Active; 'I' for Inactive)
REMARK    1  A    between atoms: C_6  and  C_1 
REMARK    2  A    between atoms: O_10  and  C_6 
REMARK    3  A    between atoms: C_13  and  O_10 
ROOT
ATOM      1  C   UNL d   1      32.749  18.127 -23.228  0.00  0.00     0.121 A 
ATOM      2  C   UNL d   1      32.136  17.876 -23.719  0.00  0.00     0.204 A 
ATOM      3  C   UNL d   1      33.220  17.571 -22.836  0.00  0.00     0.107 A 
ATOM      4  C   UNL d   1      31.993  17.070 -23.820  0.00  0.00     0.057 A 
ATOM      5  N   UNL d   1      33.073  16.759 -22.940  0.00  0.00    -0.244 NA
ATOM      6  C   UNL d   1      32.459  16.508 -23.432  0.00  0.00     0.085 A 
ATOM      7  O   UNL d   1      31.668  18.436 -24.109  0.00  0.00    -0.286 OA
ATOM      8  C   UNL d   1      31.378  16.822 -24.313  0.00  0.00     0.005 A 
ATOM      9  C   UNL d   1      32.318  15.711 -23.531  0.00  0.00     0.019 A 
ATOM     10  C   UNL d   1      31.240  16.017 -24.410  0.00  0.00     0.000 A 
ATOM     11  C   UNL d   1      31.710  15.461 -24.018  0.00  0.00     0.002 A 
ENDROOT
BRANCH   1  12
ATOM     12  C   UNL d   1      32.899  18.931 -23.121  0.00  0.00     0.305 C 
ATOM     13  O   UNL d   1      33.214  19.371 -23.746  0.00  0.00    -0.259 OA
BRANCH  12  14
ATOM     14  O   UNL d   1      32.736  19.293 -22.396  0.00  0.00    -0.271 OA
BRANCH  14  15
ATOM     15  C   UNL d   1      33.061  20.033 -22.219  0.00  0.00     0.126 C 
ATOM     16  C   UNL d   1      32.834  20.425 -21.530  0.00  0.00     0.029 C 
ENDBRANCH  14  15
ENDBRANCH  12  14
ENDBRANCH   1  12
TORSDOF 3
ENDMDL
MODEL 5
REMARK VINA RESULT:      -2.0      1.451      1.659
REMARK  3 active torsions:
REMARK  status: ('A' for Active; 'I' for Inactive)
REMARK    1  A    between atoms: C_6  and  C_1 
REMARK    2  A    between atoms: O_10  and  C_6 
REMARK    3  A    between atoms: C_13  and  O_10 
ROOT
ATOM      1  C   UNL d   1      30.632  15.984 -23.979  0.00  0.00     0.121 A 
ATOM      2  C   UNL d   1      30.308  16.693 -24.248  0.00  0.00     0.204 A 
ATOM      3  C   UNL d   1      30.166  15.453 -23.549  0.00  0.00     0.107 A 
ATOM      4  C   UNL d   1      29.519  16.872 -24.088  0.00  0.00     0.057 A 
ATOM      5  N   UNL d   1      29.370  15.636 -23.390  0.00  0.00    -0.244 NA
ATOM      6  C   UNL d   1      29.047  16.345 -23.659  0.00  0.00     0.085 A 
ATOM      7  O   UNL d   1      30.778  17.222 -24.676  0.00  0.00    -0.286 OA
ATOM      8  C   UNL d   1      29.198  17.584 -24.359  0.00  0.00     0.005 A 
ATOM      9  C   UNL d   1      28.266  16.522 -23.501  0.00  0.00     0.019 A 
ATOM     10  C   UNL d   1      28.410  17.757 -24.197  0.00  0.00     0.000 A 
ATOM     11  C   UNL d   1      27.944  17.225 -23.768  0.00  0.00     0.002 A 
ENDROOT
BRANCH   1  12
ATOM     12  C   UNL d   1      31.421  15.797 -24.134  0.00  0.00     0.305 C 
ATOM     13  O   UNL d   1      31.633  15.527 -24.885  0.00  0.00    -0.259 OA
BRANCH  12  14
ATOM     14  O   UNL d   1      31.992  15.880 -23.542  0.00  0.00    -0.271 OA
BRANCH  14  15
ATOM     15  C   UNL d   1      32.700  15.454 -23.587  0.00  0.00     0.126 C 
ATOM     16  C   UNL d   1      33.230  15.474 -22.955  0.00  0.00     0.029 C 
ENDBRANCH  14  15
ENDBRANCH  12  14
ENDBRANCH   1  12
TORSDOF 3
ENDMDL
MODEL 6
REMARK VINA RESULT:      -1.9      5.601      6.944
REMARK  3 active torsions:
REMARK  status: ('A' for Active; 'I' for Inactive)
REMARK    1  A    between atoms: C_6  and  C_1 
REMARK    2  A    between atoms: O_10  and  C_6 
REMARK    3  A    between atoms: C_13  and  O_10 
ROOT
ATOM      1  C   UNL d   1      32.678  22.452 -20.437  0.00  0.00     0.121 A 
ATOM      2  C   UNL d   1      32.841  22.610 -21.230  0.00  0.00     0.204 A 
ATOM      3  C   UNL d   1      32.634  21.670 -20.171  0.00  0.00     0.107 A 
ATOM      4  C   UNL d   1      32.960  21.987 -21.757  0.00  0.00     0.057 A 
ATOM      5  N   UNL d   1      32.755  21.045 -20.705  0.00  0.00    -0.244 NA
ATOM      6  C   UNL d   1      32.918  21.203 -21.499  0.00  0.00     0.085 A 
ATOM      7  O   UNL d   1      32.884  23.393 -21.491  0.00  0.00    -0.286 OA
ATOM      8  C   UNL d   1      33.123  22.149 -22.551  0.00  0.00     0.005 A 
ATOM      9  C   UNL d   1      33.035  20.586 -22.020  0.00  0.00     0.019 A 
ATOM     10  C   UNL d   1      33.241  21.524 -23.073  0.00  0.00     0.000 A 
ATOM     11  C   UNL d   1      33.197  20.742 -22.807  0.00  0.00     0.002 A 
ENDROOT
BRANCH   1  12
ATOM     12  C   UNL d   1      32.558  23.069 -19.902  0.00  0.00     0.305 C 
ATOM     13  O   UNL d   1      31.932  23.595 -20.024  0.00  0.00    -0.259 OA
BRANCH  12  14
ATOM     14  O   UNL d   1      33.059  23.160 -19.252  0.00  0.00    -0.271 OA
BRANCH  14  15
ATOM     15  C   UNL d   1      32.779  23.512 -18.558  0.00  0.00     0.126 C 
ATOM     16  C   UNL d   1      33.239  23.491 -17.873  0.00  0.00     0.029 C 
ENDBRANCH  14  15
ENDBRANCH  12  14
ENDBRANCH   1  12
TORSDOF 3
ENDMDL
MODEL 7
REMARK VINA RESULT:      -1.6      3.951      5.245
REMARK  3 active torsions:
REMARK  status: ('A' for Active; 'I' for Inactive)
REMARK    1  A    between atoms: C_6  and  C_1 
REMARK    2  A    between atoms: O_10  and  C_6 
REMARK    3  A    between atoms: C_13  and  O_10 
ROOT
ATOM      1  C   UNL d   1      33.012  20.918 -21.936  0.00  0.00     0.121 A 
ATOM      2  C   UNL d   1      33.000  20.096 -21.876  0.00  0.00     0.204 A 
ATOM      3  C   UNL d   1      33.100  21.279 -22.675  0.00  0.00     0.107 A 
ATOM      4  C   UNL d   1      33.076  19.633 -22.555  0.00  0.00     0.057 A 
ATOM      5  N   UNL d   1      33.177  20.809 -23.357  0.00  0.00    -0.244 NA
ATOM      6  C   UNL d   1      33.165  19.986 -23.298  0.00  0.00     0.085 A 
ATOM      7  O   UNL d   1      32.912  19.740 -21.135  0.00  0.00    -0.286 OA
ATOM      8  C   UNL d   1      33.064  18.809 -22.492  0.00  0.00     0.005 A 
ATOM      9  C   UNL d   1      33.240  19.529 -23.969  0.00  0.00     0.019 A 
ATOM     10  C   UNL d   1      33.140  18.352 -23.172  0.00  0.00     0.000 A 
ATOM     11  C   UNL d   1      33.228  18.712 -23.911  0.00  0.00     0.002 A 
ENDROOT
BRANCH   1  12
ATOM     12  C   UNL d   1      32.937  21.389 -21.262  0.00  0.00     0.305 C 
ATOM     13  O   UNL d   1      33.241  21.119 -20.543  0.00  0.00    -0.259 OA
BRANCH  12  14
ATOM     14  O   UNL d   1      32.561  22.123 -21.308  0.00  0.00    -0.271 OA
BRANCH  14  15
ATOM     15  C   UNL d   1      32.645  22.671 -20.694  0.00  0.00     0.126 C 
ATOM     16  C   UNL d   1      32.122  23.307 -20.638  0.00  0.00     0.029 C 
ENDBRANCH  14  15
ENDBRANCH  12  14
ENDBRANCH   1  12
TORSDOF 3
ENDMDL
MODEL 8
REMARK VINA RESULT:      -0.4      2.721      4.957
REMARK  3 active torsions:
REMARK  status: ('A' for Active; 'I' for Inactive)
REMARK    1  A    between atoms: C_6  and  C_1 
REMARK    2  A    between atoms: O_10  and  C_6 
REMARK    3  A    between atoms: C_13  and  O_10 
ROOT
ATOM      1  C   UNL d   1      33.032  19.453 -22.851  0.00  0.00     0.121 A 
ATOM      2  C   UNL d   1      33.135  20.236 -23.087  0.00  0.00     0.204 A 
ATOM      3  C   UNL d   1      32.926  19.273 -22.050  0.00  0.00     0.107 A 
ATOM      4  C   UNL d   1      33.131  20.840 -22.525  0.00  0.00     0.057 A 
ATOM      5  N   UNL d   1      32.923  19.884 -21.486  0.00  0.00    -0.244 NA
ATOM      6  C   UNL d   1      33.026  20.668 -21.723  0.00  0.00     0.085 A 
ATOM      7  O   UNL d   1      33.241  20.412 -23.889  0.00  0.00    -0.286 OA
ATOM      8  C   UNL d   1      33.235  21.624 -22.766  0.00  0.00     0.005 A 
ATOM      9  C   UNL d   1      33.022  21.264 -21.167  0.00  0.00     0.019 A 
ATOM     10  C   UNL d   1      33.230  22.222 -22.201  0.00  0.00     0.000 A 
ATOM     11  C   UNL d   1      33.124  22.042 -21.401  0.00  0.00     0.002 A 
ENDROOT
BRANCH   1  12
ATOM     12  C   UNL d   1      33.034  18.843 -23.406  0.00  0.00     0.305 C 
ATOM     13  O   UNL d   1      33.055  19.028 -24.211  0.00  0.00    -0.259 OA
BRANCH  12  14
ATOM     14  O   UNL d   1      33.016  18.055 -23.159  0.00  0.00    -0.271 OA
BRANCH  14  15
ATOM     15  C   UNL d   1      32.990  17.445 -23.717  0.00  0.00     0.126 C 
ATOM     16  C   UNL d   1      32.328  16.955 -23.758  0.00  0.00     0.029 C 
ENDBRANCH  14  15
ENDBRANCH  12  14
ENDBRANCH   1  12
TORSDOF 3
ENDMDL
MODEL 9
REMARK VINA RESULT:      -0.3      5.349      7.416
REMARK  3 active torsions:
REMARK  status: ('A' for Active; 'I' for Inactive)
REMARK    1  A    between atoms: C_6  and  C_1 
REMARK    2  A    between atoms: O_10  and  C_6 
REMARK    3  A    between atoms: C_13  and  O_10 
ROOT
ATOM      1  C   UNL d   1      32.454  22.132 -20.589  0.00  0.00     0.121 A 
ATOM      2  C   UNL d   1      32.643  21.843 -19.840  0.00  0.00     0.204 A 
ATOM      3  C   UNL d   1      32.464  22.946 -20.733  0.00  0.00     0.107 A 
ATOM      4  C   UNL d   1      32.842  22.367 -19.235  0.00  0.00     0.057 A 
ATOM      5  N   UNL d   1      32.665  23.472 -20.120  0.00  0.00    -0.244 NA
ATOM      6  C   UNL d   1      32.854  23.182 -19.371  0.00  0.00     0.085 A 
ATOM      7  O   UNL d   1      32.631  21.028 -19.701  0.00  0.00    -0.286 OA
ATOM      8  C   UNL d   1      33.030  22.073 -18.485  0.00  0.00     0.005 A 
ATOM      9  C   UNL d   1      33.051  23.701 -18.773  0.00  0.00     0.019 A 
ATOM     10  C   UNL d   1      33.228  22.600 -17.886  0.00  0.00     0.000 A 
ATOM     11  C   UNL d   1      33.238  23.415 -18.030  0.00  0.00     0.002 A 
ENDROOT
BRANCH   1  12
ATOM     12  C   UNL d   1      32.254  21.615 -21.201  0.00  0.00     0.305 C 
ATOM     13  O   UNL d   1      31.457  21.487 -21.378  0.00  0.00    -0.259 OA
BRANCH  12  14
ATOM     14  O   UNL d   1      32.845  21.230 -21.630  0.00  0.00    -0.271 OA
BRANCH  14  15
ATOM     15  C   UNL d   1      32.646  20.759 -22.280  0.00  0.00     0.126 C 
ATOM     16  C   UNL d   1      33.240  20.465 -22.771  0.00  0.00     0.029 C 
ENDBRANCH  14  15
ENDBRANCH  12  14
ENDBRANCH   1  12
TORSDOF 3
ENDMDL
