MODEL 1
REMARK VINA RESULT:     -12.3      0.000      0.000
REMARK  1 active torsions:
REMARK  status: ('A' for Active; 'I' for Inactive)
REMARK    1  A    between atoms: C_9  and  C_3 
ROOT
ATOM      1  C   UNL d   1      53.101  32.708  53.498  0.00  0.00     0.035 A 
ATOM      2  N   UNL d   1      53.904  31.503  53.865  0.00  0.00    -0.239 NA
ATOM      3  C   UNL d   1      53.708  32.324  53.874  0.00  0.00     0.083 A 
ATOM      4  N   UNL d   1      52.394  31.582  52.765  0.00  0.00    -0.207 NA
ATOM      5  C   UNL d   1      52.510  32.378  52.999  0.00  0.00     0.086 A 
ATOM      6  C   UNL d   1      52.844  30.923  52.974  0.00  0.00     0.298 A 
ATOM      7  C   UNL d   1      53.110  33.493  53.651  0.00  0.00     0.003 A 
ATOM      8  C   UNL d   1      53.524  30.897  53.471  0.00  0.00     0.161 A 
ATOM      9  C   UNL d   1      51.936  32.864  52.666  0.00  0.00     0.019 A 
ATOM     10  O   UNL d   1      52.589  30.190  52.648  0.00  0.00    -0.263 OA
ATOM     11  C   UNL d   1      52.527  33.991  53.314  0.00  0.00     0.000 A 
ATOM     12  C   UNL d   1      51.939  33.667  52.820  0.00  0.00     0.002 A 
ATOM     13  C   UNL d   1      52.560  34.828  53.495  0.00  0.00     0.000 C 
ENDROOT
BRANCH   3  14
ATOM     14  C   UNL d   1      54.196  32.796  54.322  0.00  0.00     0.018 A 
ATOM     15  C   UNL d   1      54.836  33.178  53.989  0.00  0.00     0.002 A 
ATOM     16  C   UNL d   1      55.340  33.668  54.462  0.00  0.00     0.000 A 
ATOM     17  C   UNL d   1      55.168  33.749  55.264  0.00  0.00     0.000 A 
ATOM     18  C   UNL d   1      54.524  33.362  55.593  0.00  0.00     0.000 A 
ATOM     19  C   UNL d   1      54.034  32.881  55.116  0.00  0.00     0.002 A 
ENDBRANCH   3  14
TORSDOF 1
ENDMDL
MODEL 2
REMARK VINA RESULT:     -11.8      0.803      2.637
REMARK  1 active torsions:
REMARK  status: ('A' for Active; 'I' for Inactive)
REMARK    1  A    between atoms: C_9  and  C_3 
ROOT
ATOM      1  C   UNL d   1      53.028  32.793  53.773  0.00  0.00     0.035 A 
ATOM      2  N   UNL d   1      52.374  31.840  52.828  0.00  0.00    -0.239 NA
ATOM      3  C   UNL d   1      52.477  32.581  53.218  0.00  0.00     0.083 A 
ATOM      4  N   UNL d   1      53.838  31.520  53.945  0.00  0.00    -0.207 NA
ATOM      5  C   UNL d   1      53.641  32.319  54.102  0.00  0.00     0.086 A 
ATOM      6  C   UNL d   1      53.470  31.002  53.420  0.00  0.00     0.298 A 
ATOM      7  C   UNL d   1      52.936  33.552  54.004  0.00  0.00     0.003 A 
ATOM      8  C   UNL d   1      52.809  31.155  52.920  0.00  0.00     0.161 A 
ATOM      9  C   UNL d   1      54.149  32.638  54.664  0.00  0.00     0.019 A 
ATOM     10  O   UNL d   1      53.797  30.227  53.383  0.00  0.00    -0.263 OA
ATOM     11  C   UNL d   1      53.452  33.881  54.577  0.00  0.00     0.000 A 
ATOM     12  C   UNL d   1      54.060  33.414  54.904  0.00  0.00     0.002 A 
ATOM     13  C   UNL d   1      53.330  34.697  54.806  0.00  0.00     0.000 C 
ENDROOT
BRANCH   3  14
ATOM     14  C   UNL d   1      51.951  33.164  53.007  0.00  0.00     0.018 A 
ATOM     15  C   UNL d   1      52.132  33.705  52.422  0.00  0.00     0.002 A 
ATOM     16  C   UNL d   1      51.579  34.310  52.208  0.00  0.00     0.000 A 
ATOM     17  C   UNL d   1      50.856  34.338  52.603  0.00  0.00     0.000 A 
ATOM     18  C   UNL d   1      50.680  33.792  53.189  0.00  0.00     0.000 A 
ATOM     19  C   UNL d   1      51.234  33.200  53.392  0.00  0.00     0.002 A 
ENDBRANCH   3  14
TORSDOF 1
ENDMDL
MODEL 3
REMARK VINA RESULT:     -11.4      1.641      3.382
REMARK  1 active torsions:
REMARK  status: ('A' for Active; 'I' for Inactive)
REMARK    1  A    between atoms: C_9  and  C_3 
ROOT
ATOM      1  C   UNL d   1      53.201  32.931  53.800  0.00  0.00     0.035 A 
ATOM      2  N   UNL d   1      53.162  34.345  54.281  0.00  0.00    -0.239 NA
ATOM      3  C   UNL d   1      52.886  33.677  53.845  0.00  0.00     0.083 A 
ATOM      4  N   UNL d   1      54.420  33.028  54.700  0.00  0.00    -0.207 NA
ATOM      5  C   UNL d   1      53.890  32.637  54.183  0.00  0.00     0.086 A 
ATOM      6  C   UNL d   1      54.389  33.810  54.960  0.00  0.00     0.298 A 
ATOM      7  C   UNL d   1      52.769  32.458  53.323  0.00  0.00     0.003 A 
ATOM      8  C   UNL d   1      53.818  34.397  54.765  0.00  0.00     0.161 A 
ATOM      9  C   UNL d   1      54.121  31.856  54.067  0.00  0.00     0.019 A 
ATOM     10  O   UNL d   1      55.006  34.045  55.482  0.00  0.00    -0.263 OA
ATOM     11  C   UNL d   1      53.001  31.662  53.202  0.00  0.00     0.000 A 
ATOM     12  C   UNL d   1      53.683  31.367  53.581  0.00  0.00     0.002 A 
ATOM     13  C   UNL d   1      52.520  31.177  52.686  0.00  0.00     0.000 C 
ENDROOT
BRANCH   3  14
ATOM     14  C   UNL d   1      52.210  33.798  53.408  0.00  0.00     0.018 A 
ATOM     15  C   UNL d   1      51.476  33.599  53.705  0.00  0.00     0.002 A 
ATOM     16  C   UNL d   1      50.776  33.728  53.245  0.00  0.00     0.000 A 
ATOM     17  C   UNL d   1      50.856  34.058  52.493  0.00  0.00     0.000 A 
ATOM     18  C   UNL d   1      51.596  34.255  52.201  0.00  0.00     0.000 A 
ATOM     19  C   UNL d   1      52.280  34.123  52.665  0.00  0.00     0.002 A 
ENDBRANCH   3  14
TORSDOF 1
ENDMDL
MODEL 4
REMARK VINA RESULT:     -11.0      1.327      2.310
REMARK  1 active torsions:
REMARK  status: ('A' for Active; 'I' for Inactive)
REMARK    1  A    between atoms: C_9  and  C_3 
ROOT
ATOM      1  C   UNL d   1      53.004  32.782  53.464  0.00  0.00     0.035 A 
ATOM      2  N   UNL d   1      52.864  34.262  53.612  0.00  0.00    -0.239 NA
ATOM      3  C   UNL d   1      53.216  33.509  53.754  0.00  0.00     0.083 A 
ATOM      4  N   UNL d   1      51.804  33.107  52.592  0.00  0.00    -0.207 NA
ATOM      5  C   UNL d   1      52.370  32.598  52.942  0.00  0.00     0.086 A 
ATOM      6  C   UNL d   1      51.735  33.924  52.680  0.00  0.00     0.298 A 
ATOM      7  C   UNL d   1      53.485  32.204  53.736  0.00  0.00     0.003 A 
ATOM      8  C   UNL d   1      52.218  34.437  53.143  0.00  0.00     0.161 A 
ATOM      9  C   UNL d   1      52.243  31.820  52.709  0.00  0.00     0.019 A 
ATOM     10  O   UNL d   1      51.105  34.284  52.255  0.00  0.00    -0.263 OA
ATOM     11  C   UNL d   1      53.359  31.410  53.501  0.00  0.00     0.000 A 
ATOM     12  C   UNL d   1      52.732  31.225  52.984  0.00  0.00     0.002 A 
ATOM     13  C   UNL d   1      53.889  30.811  53.808  0.00  0.00     0.000 C 
ENDROOT
BRANCH   3  14
ATOM     14  C   UNL d   1      53.860  33.512  54.253  0.00  0.00     0.018 A 
ATOM     15  C   UNL d   1      53.771  33.397  55.056  0.00  0.00     0.002 A 
ATOM     16  C   UNL d   1      54.445  33.402  55.569  0.00  0.00     0.000 A 
ATOM     17  C   UNL d   1      55.190  33.524  55.237  0.00  0.00     0.000 A 
ATOM     18  C   UNL d   1      55.272  33.638  54.429  0.00  0.00     0.000 A 
ATOM     19  C   UNL d   1      54.599  33.631  53.933  0.00  0.00     0.002 A 
ENDBRANCH   3  14
TORSDOF 1
ENDMDL
MODEL 5
REMARK VINA RESULT:      -9.9      1.609      2.807
REMARK  1 active torsions:
REMARK  status: ('A' for Active; 'I' for Inactive)
REMARK    1  A    between atoms: C_9  and  C_3 
ROOT
ATOM      1  C   UNL d   1      53.223  33.298  53.885  0.00  0.00     0.035 A 
ATOM      2  N   UNL d   1      54.346  32.520  54.489  0.00  0.00    -0.239 NA
ATOM      3  C   UNL d   1      53.649  32.622  54.025  0.00  0.00     0.083 A 
ATOM      4  N   UNL d   1      53.989  34.346  54.671  0.00  0.00    -0.207 NA
ATOM      5  C   UNL d   1      53.373  34.073  54.174  0.00  0.00     0.086 A 
ATOM      6  C   UNL d   1      54.606  33.909  54.999  0.00  0.00     0.298 A 
ATOM      7  C   UNL d   1      52.595  33.156  53.411  0.00  0.00     0.003 A 
ATOM      8  C   UNL d   1      54.759  33.085  54.912  0.00  0.00     0.161 A 
ATOM      9  C   UNL d   1      52.871  34.691  53.968  0.00  0.00     0.019 A 
ATOM     10  O   UNL d   1      55.145  34.342  55.480  0.00  0.00    -0.263 OA
ATOM     11  C   UNL d   1      52.081  33.783  53.200  0.00  0.00     0.000 A 
ATOM     12  C   UNL d   1      52.227  34.553  53.484  0.00  0.00     0.002 A 
ATOM     13  C   UNL d   1      51.416  33.604  52.691  0.00  0.00     0.000 C 
ENDROOT
BRANCH   3  14
ATOM     14  C   UNL d   1      53.365  31.949  53.667  0.00  0.00     0.018 A 
ATOM     15  C   UNL d   1      53.539  31.782  52.886  0.00  0.00     0.002 A 
ATOM     16  C   UNL d   1      53.240  31.079  52.520  0.00  0.00     0.000 A 
ATOM     17  C   UNL d   1      52.771  30.570  52.970  0.00  0.00     0.000 A 
ATOM     18  C   UNL d   1      52.601  30.744  53.753  0.00  0.00     0.000 A 
ATOM     19  C   UNL d   1      52.902  31.441  54.103  0.00  0.00     0.002 A 
ENDBRANCH   3  14
TORSDOF 1
ENDMDL
MODEL 6
REMARK VINA RESULT:      -9.9      1.463      2.805
REMARK  1 active torsions:
REMARK  status: ('A' for Active; 'I' for Inactive)
REMARK    1  A    between atoms: C_9  and  C_3 
ROOT
ATOM      1  C   UNL d   1      53.015  33.157  53.766  0.00  0.00     0.035 A 
ATOM      2  N   UNL d   1      52.164  32.687  52.632  0.00  0.00    -0.239 NA
ATOM      3  C   UNL d   1      52.743  32.603  53.240  0.00  0.00     0.083 A 
ATOM      4  N   UNL d   1      52.220  34.394  53.390  0.00  0.00    -0.207 NA
ATOM      5  C   UNL d   1      52.782  33.962  53.836  0.00  0.00     0.086 A 
ATOM      6  C   UNL d   1      51.754  34.125  52.765  0.00  0.00     0.298 A 
ATOM      7  C   UNL d   1      53.569  32.852  54.255  0.00  0.00     0.003 A 
ATOM      8  C   UNL d   1      51.736  33.353  52.430  0.00  0.00     0.161 A 
ATOM      9  C   UNL d   1      53.125  34.439  54.411  0.00  0.00     0.019 A 
ATOM     10  O   UNL d   1      51.237  34.695  52.424  0.00  0.00    -0.263 OA
ATOM     11  C   UNL d   1      53.921  33.334  54.842  0.00  0.00     0.000 A 
ATOM     12  C   UNL d   1      53.692  34.133  54.914  0.00  0.00     0.002 A 
ATOM     13  C   UNL d   1      54.511  32.982  55.352  0.00  0.00     0.000 C 
ENDROOT
BRANCH   3  14
ATOM     14  C   UNL d   1      53.077  31.864  53.307  0.00  0.00     0.018 A 
ATOM     15  C   UNL d   1      53.811  31.702  52.988  0.00  0.00     0.002 A 
ATOM     16  C   UNL d   1      54.152  30.930  53.062  0.00  0.00     0.000 A 
ATOM     17  C   UNL d   1      53.724  30.349  53.462  0.00  0.00     0.000 A 
ATOM     18  C   UNL d   1      52.987  30.518  53.780  0.00  0.00     0.000 A 
ATOM     19  C   UNL d   1      52.662  31.284  53.700  0.00  0.00     0.002 A 
ENDBRANCH   3  14
TORSDOF 1
ENDMDL
