MODEL 1
REMARK VINA RESULT:      -9.7      0.000      0.000
REMARK  7 active torsions:
REMARK  status: ('A' for Active; 'I' for Inactive)
REMARK    1  A    between atoms: S_2  and  C_1 
REMARK    2  A    between atoms: C_6  and  S_2 
REMARK    3  A    between atoms: C_24  and  C_16 
REMARK    4  A    between atoms: C_25  and  C_24 
REMARK    5  A    between atoms: C_28  and  C_25 
REMARK    6  A    between atoms: C_26  and  C_27 
REMARK    7  A    between atoms: C_27  and  C_28 
ROOT
ATOM      1  C   UNL d   1      51.580  34.051  52.981  0.00  0.00     0.151 A 
ATOM      2  C   UNL d   1      52.072  34.623  53.316  0.00  0.00     0.311 A 
ATOM      3  C   UNL d   1      51.829  33.269  52.937  0.00  0.00     0.019 A 
ATOM      4  O   UNL d   1      52.813  34.412  53.606  0.00  0.00    -0.272 OA
ATOM      5  C   UNL d   1      53.062  33.628  53.561  0.00  0.00     0.106 A 
ATOM      6  C   UNL d   1      52.570  33.056  53.226  0.00  0.00     0.024 A 
ATOM      7  C   UNL d   1      53.803  33.417  53.850  0.00  0.00     0.067 A 
ATOM      8  C   UNL d   1      54.061  32.623  53.807  0.00  0.00     0.198 A 
ATOM      9  C   UNL d   1      52.819  32.273  53.181  0.00  0.00     0.005 A 
ATOM     10  C   UNL d   1      53.569  32.052  53.473  0.00  0.00     0.039 A 
ATOM     11  O   UNL d   1      51.819  35.421  53.362  0.00  0.00    -0.258 OA
ATOM     12  O   UNL d   1      54.802  32.412  54.097  0.00  0.00    -0.286 OA
ENDROOT
BRANCH   1  13
ATOM     13  S   UNL d   1      50.831  34.272  52.690  0.00  0.00     0.215 S 
ATOM     14  O   UNL d   1      51.176  34.475  51.958  0.00  0.00    -0.217 OA
ATOM     15  O   UNL d   1      50.485  34.072  53.417  0.00  0.00    -0.217 OA
BRANCH  13  16
ATOM     16  C   UNL d   1      50.094  34.492  52.396  0.00  0.00     0.089 A 
ATOM     17  C   UNL d   1      49.577  34.936  52.866  0.00  0.00     0.025 A 
ATOM     18  C   UNL d   1      48.833  35.160  52.573  0.00  0.00     0.086 A 
ATOM     19 CL   UNL d   1      48.320  35.601  53.042  0.00  0.00    -0.080 Cl
ATOM     20  C   UNL d   1      48.609  34.939  51.810  0.00  0.00     0.151 A 
ATOM     21  C   UNL d   1      49.122  34.497  51.342  0.00  0.00     0.031 A 
ATOM     22  F   UNL d   1      47.868  35.161  51.518  0.00  0.00    -0.203 F 
ATOM     23  C   UNL d   1      49.859  34.277  51.635  0.00  0.00     0.014 A 
ENDBRANCH  13  16
ENDBRANCH   1  13
BRANCH  10  24
ATOM     24  C   UNL d   1      53.824  31.263  53.429  0.00  0.00     0.003 C 
BRANCH  24  25
ATOM     25  C   UNL d   1      53.288  30.643  53.524  0.00  0.00     0.000 C 
BRANCH  25  26
ATOM     26  C   UNL d   1      53.558  29.873  53.634  0.00  0.00     0.000 C 
BRANCH  26  27
ATOM     27  C   UNL d   1      53.155  29.353  54.133  0.00  0.00     0.000 C 
BRANCH  27  28
ATOM     28  C   UNL d   1      53.545  28.708  54.475  0.00  0.00     0.000 C 
ATOM     29  C   UNL d   1      53.363  28.474  55.240  0.00  0.00     0.000 C 
ENDBRANCH  27  28
ENDBRANCH  26  27
ENDBRANCH  25  26
ENDBRANCH  24  25
ENDBRANCH  10  24
TORSDOF 7
ENDMDL
MODEL 2
REMARK VINA RESULT:      -9.1      2.784      5.731
REMARK  7 active torsions:
REMARK  status: ('A' for Active; 'I' for Inactive)
REMARK    1  A    between atoms: S_2  and  C_1 
REMARK    2  A    between atoms: C_6  and  S_2 
REMARK    3  A    between atoms: C_24  and  C_16 
REMARK    4  A    between atoms: C_25  and  C_24 
REMARK    5  A    between atoms: C_28  and  C_25 
REMARK    6  A    between atoms: C_26  and  C_27 
REMARK    7  A    between atoms: C_27  and  C_28 
ROOT
ATOM      1  C   UNL d   1      51.854  33.951  53.088  0.00  0.00     0.151 A 
ATOM      2  C   UNL d   1      51.889  33.590  52.347  0.00  0.00     0.311 A 
ATOM      3  C   UNL d   1      51.192  34.391  53.301  0.00  0.00     0.019 A 
ATOM      4  O   UNL d   1      51.263  33.670  51.819  0.00  0.00    -0.272 OA
ATOM      5  C   UNL d   1      50.600  34.111  52.033  0.00  0.00     0.106 A 
ATOM      6  C   UNL d   1      50.565  34.471  52.774  0.00  0.00     0.024 A 
ATOM      7  C   UNL d   1      49.974  34.190  51.504  0.00  0.00     0.067 A 
ATOM      8  C   UNL d   1      49.300  34.636  51.715  0.00  0.00     0.198 A 
ATOM      9  C   UNL d   1      49.903  34.911  52.987  0.00  0.00     0.005 A 
ATOM     10  C   UNL d   1      49.265  34.996  52.456  0.00  0.00     0.039 A 
ATOM     11  O   UNL d   1      52.563  33.141  52.129  0.00  0.00    -0.258 OA
ATOM     12  O   UNL d   1      48.673  34.715  51.187  0.00  0.00    -0.286 OA
ENDROOT
BRANCH   1  13
ATOM     13  S   UNL d   1      52.492  33.866  53.618  0.00  0.00     0.215 S 
ATOM     14  O   UNL d   1      52.861  34.533  53.280  0.00  0.00    -0.217 OA
ATOM     15  O   UNL d   1      52.127  33.202  53.957  0.00  0.00    -0.217 OA
BRANCH  13  16
ATOM     16  C   UNL d   1      53.125  33.788  54.139  0.00  0.00     0.089 A 
ATOM     17  C   UNL d   1      53.313  33.046  54.452  0.00  0.00     0.025 A 
ATOM     18  C   UNL d   1      53.952  32.963  54.977  0.00  0.00     0.086 A 
ATOM     19 CL   UNL d   1      54.138  32.223  55.288  0.00  0.00    -0.080 Cl
ATOM     20  C   UNL d   1      54.398  33.624  55.187  0.00  0.00     0.151 A 
ATOM     21  C   UNL d   1      54.212  34.363  54.876  0.00  0.00     0.031 A 
ATOM     22  F   UNL d   1      55.034  33.542  55.710  0.00  0.00    -0.203 F 
ATOM     23  C   UNL d   1      53.579  34.442  54.356  0.00  0.00     0.014 A 
ENDBRANCH  13  16
ENDBRANCH   1  13
BRANCH  10  24
ATOM     24  C   UNL d   1      48.596  35.439  52.668  0.00  0.00     0.003 C 
BRANCH  24  25
ATOM     25  C   UNL d   1      48.466  35.654  53.453  0.00  0.00     0.000 C 
BRANCH  25  26
ATOM     26  C   UNL d   1      47.855  36.171  53.648  0.00  0.00     0.000 C 
BRANCH  26  27
ATOM     27  C   UNL d   1      47.413  36.061  54.336  0.00  0.00     0.000 C 
BRANCH  27  28
ATOM     28  C   UNL d   1      47.145  36.709  54.775  0.00  0.00     0.000 C 
ATOM     29  C   UNL d   1      46.460  36.650  55.224  0.00  0.00     0.000 C 
ENDBRANCH  27  28
ENDBRANCH  26  27
ENDBRANCH  25  26
ENDBRANCH  24  25
ENDBRANCH  10  24
TORSDOF 7
ENDMDL
MODEL 3
REMARK VINA RESULT:      -8.2      2.661      5.500
REMARK  7 active torsions:
REMARK  status: ('A' for Active; 'I' for Inactive)
REMARK    1  A    between atoms: S_2  and  C_1 
REMARK    2  A    between atoms: C_6  and  S_2 
REMARK    3  A    between atoms: C_24  and  C_16 
REMARK    4  A    between atoms: C_25  and  C_24 
REMARK    5  A    between atoms: C_28  and  C_25 
REMARK    6  A    between atoms: C_26  and  C_27 
REMARK    7  A    between atoms: C_27  and  C_28 
ROOT
ATOM      1  C   UNL d   1      53.230  31.935  53.678  0.00  0.00     0.151 A 
ATOM      2  C   UNL d   1      53.917  32.392  53.701  0.00  0.00     0.311 A 
ATOM      3  C   UNL d   1      52.505  32.290  53.519  0.00  0.00     0.019 A 
ATOM      4  O   UNL d   1      53.878  33.203  53.565  0.00  0.00    -0.272 OA
ATOM      5  C   UNL d   1      53.152  33.557  53.406  0.00  0.00     0.106 A 
ATOM      6  C   UNL d   1      52.465  33.101  53.383  0.00  0.00     0.024 A 
ATOM      7  C   UNL d   1      53.114  34.368  53.270  0.00  0.00     0.067 A 
ATOM      8  C   UNL d   1      52.380  34.734  53.108  0.00  0.00     0.198 A 
ATOM      9  C   UNL d   1      51.740  33.455  53.224  0.00  0.00     0.005 A 
ATOM     10  C   UNL d   1      51.693  34.277  53.085  0.00  0.00     0.039 A 
ATOM     11  O   UNL d   1      54.656  32.032  53.863  0.00  0.00    -0.258 OA
ATOM     12  O   UNL d   1      52.342  35.545  52.972  0.00  0.00    -0.286 OA
ENDROOT
BRANCH   1  13
ATOM     13  S   UNL d   1      53.276  31.114  53.817  0.00  0.00     0.215 S 
ATOM     14  O   UNL d   1      53.188  30.972  52.999  0.00  0.00    -0.217 OA
ATOM     15  O   UNL d   1      53.364  31.253  54.630  0.00  0.00    -0.217 OA
BRANCH  13  16
ATOM     16  C   UNL d   1      53.321  30.303  53.946  0.00  0.00     0.089 A 
ATOM     17  C   UNL d   1      53.313  30.007  54.719  0.00  0.00     0.025 A 
ATOM     18  C   UNL d   1      53.358  29.188  54.854  0.00  0.00     0.086 A 
ATOM     19 CL   UNL d   1      53.349  28.896  55.625  0.00  0.00    -0.080 Cl
ATOM     20  C   UNL d   1      53.410  28.669  54.215  0.00  0.00     0.151 A 
ATOM     21  C   UNL d   1      53.418  28.963  53.446  0.00  0.00     0.031 A 
ATOM     22  F   UNL d   1      53.455  27.854  54.349  0.00  0.00    -0.203 F 
ATOM     23  C   UNL d   1      53.374  29.774  53.315  0.00  0.00     0.014 A 
ENDBRANCH  13  16
ENDBRANCH   1  13
BRANCH  10  24
ATOM     24  C   UNL d   1      50.964  34.638  52.924  0.00  0.00     0.003 C 
BRANCH  24  25
ATOM     25  C   UNL d   1      50.396  34.252  52.467  0.00  0.00     0.000 C 
BRANCH  25  26
ATOM     26  C   UNL d   1      49.683  34.623  52.288  0.00  0.00     0.000 C 
BRANCH  26  27
ATOM     27  C   UNL d   1      49.252  34.407  51.619  0.00  0.00     0.000 C 
BRANCH  27  28
ATOM     28  C   UNL d   1      48.537  34.782  51.436  0.00  0.00     0.000 C 
ATOM     29  C   UNL d   1      48.240  34.756  50.672  0.00  0.00     0.000 C 
ENDBRANCH  27  28
ENDBRANCH  26  27
ENDBRANCH  25  26
ENDBRANCH  24  25
ENDBRANCH  10  24
TORSDOF 7
ENDMDL
