MODEL 1
REMARK VINA RESULT:      57.0      0.000      0.000
REMARK  8 active torsions:
REMARK  status: ('A' for Active; 'I' for Inactive)
REMARK    1  A    between atoms: C_5  and  C_1 
REMARK       I    between atoms: C_2  and  N_4 
REMARK    2  A    between atoms: C_7  and  C_2 
REMARK    3  A    between atoms: N_4  and  C_3 
REMARK    4  A    between atoms: N_6  and  C_5 
REMARK    5  A    between atoms: C_13  and  C_5 
REMARK    6  A    between atoms: C_15  and  N_6 
REMARK    7  A    between atoms: C_9  and  C_15 
REMARK    8  A    between atoms: O_19  and  C_9 
ROOT
ATOM      1  C   UNL d   1      14.755  15.771  -2.087  0.00  0.00     0.035 A 
ATOM      2  C   UNL d   1      14.839  15.418  -1.335  0.00  0.00     0.086 A 
ATOM      3  C   UNL d   1      14.895  16.580  -2.173  0.00  0.00     0.003 A 
ATOM      4  C   UNL d   1      15.063  15.880  -0.680  0.00  0.00     0.019 A 
ATOM      5  C   UNL d   1      15.119  17.041  -1.518  0.00  0.00     0.000 A 
ATOM      6  C   UNL d   1      15.201  16.692  -0.781  0.00  0.00     0.002 A 
ATOM      7  C   UNL d   1      15.257  17.849  -1.615  0.00  0.00     0.000 C 
ENDROOT
BRANCH   1   8
ATOM      8  C   UNL d   1      14.534  15.315  -2.734  0.00  0.00     0.083 C 
BRANCH   8   9
ATOM      9  N   UNL d   1      14.267  14.536  -2.626  0.00  0.00    -0.238 NA
BRANCH   9  10
ATOM     10  C   UNL d   1      13.639  14.256  -3.076  0.00  0.00     0.167 C 
BRANCH  10  11
ATOM     11  C   UNL d   1      13.623  13.469  -3.322  0.00  0.00     0.315 C 
ATOM     12  O   UNL d   1      14.259  12.958  -3.159  0.00  0.00    -0.257 OA
BRANCH  11  13
ATOM     13  O   UNL d   1      12.964  13.173  -3.741  0.00  0.00    -0.295 OA
ATOM     14  C   UNL d   1      13.103  12.485  -4.260  0.00  0.00     0.185 C 
ENDBRANCH  11  13
ENDBRANCH  10  11
ENDBRANCH   9  10
ENDBRANCH   8   9
BRANCH   8  15
ATOM     15  C   UNL d   1      14.576  15.630  -3.491  0.00  0.00     0.018 A 
ATOM     16  C   UNL d   1      15.305  15.846  -3.812  0.00  0.00     0.002 A 
ATOM     17  C   UNL d   1      15.349  16.159  -4.563  0.00  0.00     0.000 A 
ATOM     18  C   UNL d   1      14.653  16.264  -5.016  0.00  0.00     0.000 A 
ATOM     19  C   UNL d   1      13.927  16.050  -4.697  0.00  0.00     0.000 A 
ATOM     20  C   UNL d   1      13.881  15.732  -3.937  0.00  0.00     0.002 A 
ENDBRANCH   8  15
ENDBRANCH   1   8
BRANCH   2  21
ATOM     21  N   UNL d   1      14.699  14.613  -1.252  0.00  0.00    -0.208 NA
ATOM     22  C   UNL d   1      15.000  14.204  -0.583  0.00  0.00     0.279 C 
ATOM     23  O   UNL d   1      15.435  14.617  -0.014  0.00  0.00    -0.265 OA
BRANCH  22  24
ATOM     24  C   UNL d   1      14.860  13.394  -0.497  0.00  0.00     0.059 A 
ATOM     25  C   UNL d   1      14.105  13.127  -0.300  0.00  0.00     0.016 A 
ATOM     26  C   UNL d   1      13.965  12.318  -0.213  0.00  0.00     0.058 A 
ATOM     27 CL   UNL d   1      13.209  12.064  -0.017  0.00  0.00    -0.082 Cl
ATOM     28  C   UNL d   1      14.577  11.779  -0.324  0.00  0.00     0.011 A 
ATOM     29  C   UNL d   1      15.331  12.047  -0.521  0.00  0.00     0.001 A 
ATOM     30  C   UNL d   1      15.472  12.856  -0.607  0.00  0.00     0.005 A 
ENDBRANCH  22  24
ENDBRANCH   2  21
TORSDOF 8
ENDMDL
MODEL 2
REMARK VINA RESULT:      58.2      1.712      4.726
REMARK  8 active torsions:
REMARK  status: ('A' for Active; 'I' for Inactive)
REMARK    1  A    between atoms: C_5  and  C_1 
REMARK       I    between atoms: C_2  and  N_4 
REMARK    2  A    between atoms: C_7  and  C_2 
REMARK    3  A    between atoms: N_4  and  C_3 
REMARK    4  A    between atoms: N_6  and  C_5 
REMARK    5  A    between atoms: C_13  and  C_5 
REMARK    6  A    between atoms: C_15  and  N_6 
REMARK    7  A    between atoms: C_9  and  C_15 
REMARK    8  A    between atoms: O_19  and  C_9 
ROOT
ATOM      1  C   UNL d   1      13.973  13.413  -2.710  0.00  0.00     0.035 A 
ATOM      2  C   UNL d   1      13.959  13.959  -3.342  0.00  0.00     0.086 A 
ATOM      3  C   UNL d   1      13.580  12.691  -2.791  0.00  0.00     0.003 A 
ATOM      4  C   UNL d   1      13.552  13.775  -4.044  0.00  0.00     0.019 A 
ATOM      5  C   UNL d   1      13.173  12.508  -3.492  0.00  0.00     0.000 A 
ATOM      6  C   UNL d   1      13.161  13.046  -4.111  0.00  0.00     0.002 A 
ATOM      7  C   UNL d   1      12.783  11.783  -3.562  0.00  0.00     0.000 C 
ENDROOT
BRANCH   1   8
ATOM      8  C   UNL d   1      14.376  13.594  -2.017  0.00  0.00     0.083 C 
BRANCH   8   9
ATOM      9  N   UNL d   1      14.557  14.383  -1.832  0.00  0.00    -0.238 NA
BRANCH   9  10
ATOM     10  C   UNL d   1      14.509  14.638  -1.052  0.00  0.00     0.167 C 
BRANCH  10  11
ATOM     11  C   UNL d   1      14.993  15.250  -0.786  0.00  0.00     0.315 C 
ATOM     12  O   UNL d   1      15.757  15.094  -0.496  0.00  0.00    -0.257 OA
BRANCH  11  13
ATOM     13  O   UNL d   1      14.720  16.039  -0.803  0.00  0.00    -0.295 OA
ATOM     14  C   UNL d   1      15.041  16.581  -0.198  0.00  0.00     0.185 C 
ENDBRANCH  11  13
ENDBRANCH  10  11
ENDBRANCH   9  10
ENDBRANCH   8   9
BRANCH   8  15
ATOM     15  C   UNL d   1      14.599  12.993  -1.505  0.00  0.00     0.018 A 
ATOM     16  C   UNL d   1      15.376  12.715  -1.501  0.00  0.00     0.002 A 
ATOM     17  C   UNL d   1      15.601  12.119  -0.994  0.00  0.00     0.000 A 
ATOM     18  C   UNL d   1      15.042  11.783  -0.469  0.00  0.00     0.000 A 
ATOM     19  C   UNL d   1      14.268  12.058  -0.471  0.00  0.00     0.000 A 
ATOM     20  C   UNL d   1      14.040  12.662  -0.985  0.00  0.00     0.002 A 
ENDBRANCH   8  15
ENDBRANCH   1   8
BRANCH   2  21
ATOM     21  N   UNL d   1      14.351  14.676  -3.260  0.00  0.00    -0.208 NA
ATOM     22  C   UNL d   1      14.248  15.277  -3.838  0.00  0.00     0.279 C 
ATOM     23  O   UNL d   1      13.752  15.139  -4.485  0.00  0.00    -0.265 OA
BRANCH  22  24
ATOM     24  C   UNL d   1      14.641  15.999  -3.758  0.00  0.00     0.059 A 
ATOM     25  C   UNL d   1      15.282  16.173  -4.246  0.00  0.00     0.016 A 
ATOM     26  C   UNL d   1      15.676  16.894  -4.167  0.00  0.00     0.058 A 
ATOM     27 CL   UNL d   1      16.313  17.056  -4.659  0.00  0.00    -0.082 Cl
ATOM     28  C   UNL d   1      15.428  17.439  -3.602  0.00  0.00     0.011 A 
ATOM     29  C   UNL d   1      14.787  17.265  -3.115  0.00  0.00     0.001 A 
ATOM     30  C   UNL d   1      14.393  16.544  -3.194  0.00  0.00     0.005 A 
ENDBRANCH  22  24
ENDBRANCH   2  21
TORSDOF 8
ENDMDL
