MODEL 1
REMARK VINA RESULT:      -8.7      0.000      0.000
REMARK  4 active torsions:
REMARK  status: ('A' for Active; 'I' for Inactive)
REMARK    1  A    between atoms: C_11  and  C_3 
REMARK    2  A    between atoms: N_10  and  C_4 
REMARK    3  A    between atoms: C_15  and  N_10 
REMARK    4  A    between atoms: C_16  and  C_15 
ROOT
ATOM      1  C   UNL d   1     -47.870  13.031  23.091  0.00  0.00     0.167 A 
ATOM      2  N   UNL d   1     -47.115  12.657  23.195  0.00  0.00    -0.195 N 
ATOM      3  C   UNL d   1     -47.910  13.806  22.857  0.00  0.00     0.057 A 
ATOM      4  C   UNL d   1     -47.092  11.887  23.428  0.00  0.00     0.167 A 
ATOM      5  N   UNL d   1     -46.478  13.869  22.819  0.00  0.00    -0.161 NA
ATOM      6  N   UNL d   1     -48.553  12.611  23.228  0.00  0.00    -0.227 NA
ATOM      7  C   UNL d   1     -47.777  11.453  23.568  0.00  0.00     0.058 A 
ATOM      8  C   UNL d   1     -47.210  14.232  22.719  0.00  0.00     0.124 A 
ATOM      9  C   UNL d   1     -48.521  11.821  23.466  0.00  0.00     0.086 A 
ATOM     10  C   UNL d   1     -49.241  11.376  23.611  0.00  0.00     0.021 C 
ENDROOT
BRANCH   4  11
ATOM     11  N   UNL d   1     -46.331  11.505  23.534  0.00  0.00    -0.224 NA
BRANCH  11  12
ATOM     12  C   UNL d   1     -45.978  10.740  23.698  0.00  0.00     0.120 C 
BRANCH  12  13
ATOM     13  C   UNL d   1     -45.139  10.622  23.578  0.00  0.00     0.101 A 
ATOM     14  N   UNL d   1     -44.651  11.292  23.335  0.00  0.00    -0.242 NA
ATOM     15  C   UNL d   1     -43.812  11.173  23.215  0.00  0.00     0.099 A 
ATOM     16  C   UNL d   1     -43.462  10.397  23.337  0.00  0.00     0.021 A 
ATOM     17  C   UNL d   1     -43.953   9.740  23.578  0.00  0.00     0.003 A 
ATOM     18  C   UNL d   1     -44.794   9.858  23.698  0.00  0.00     0.021 A 
ENDBRANCH  12  13
ENDBRANCH  11  12
ENDBRANCH   4  11
BRANCH   3  19
ATOM     19  C   UNL d   1     -48.643  14.169  22.757  0.00  0.00     0.005 A 
ATOM     20  C   UNL d   1     -48.980  14.579  23.373  0.00  0.00     0.001 A 
ATOM     21  C   UNL d   1     -49.712  14.941  23.273  0.00  0.00     0.011 A 
ATOM     22  C   UNL d   1     -50.095  14.888  22.558  0.00  0.00     0.058 A 
ATOM     23  C   UNL d   1     -49.746  14.473  21.942  0.00  0.00     0.011 A 
ATOM     24 CL   UNL d   1     -50.862  15.268  22.452  0.00  0.00    -0.082 Cl
ATOM     25  C   UNL d   1     -49.026  14.116  22.041  0.00  0.00     0.001 A 
ENDBRANCH   3  19
TORSDOF 4
ENDMDL
MODEL 2
REMARK VINA RESULT:      -7.7      0.861      1.707
REMARK  4 active torsions:
REMARK  status: ('A' for Active; 'I' for Inactive)
REMARK    1  A    between atoms: C_11  and  C_3 
REMARK    2  A    between atoms: N_10  and  C_4 
REMARK    3  A    between atoms: C_15  and  N_10 
REMARK    4  A    between atoms: C_16  and  C_15 
ROOT
ATOM      1  C   UNL d   1     -47.913  12.830  22.722  0.00  0.00     0.167 A 
ATOM      2  N   UNL d   1     -47.304  12.264  22.893  0.00  0.00    -0.195 N 
ATOM      3  C   UNL d   1     -48.684  12.589  22.659  0.00  0.00     0.057 A 
ATOM      4  C   UNL d   1     -46.543  12.518  22.953  0.00  0.00     0.167 A 
ATOM      5  N   UNL d   1     -48.286  11.238  22.927  0.00  0.00    -0.161 NA
ATOM      6  N   UNL d   1     -47.721  13.614  22.623  0.00  0.00    -0.227 NA
ATOM      7  C   UNL d   1     -46.338  13.309  22.854  0.00  0.00     0.058 A 
ATOM      8  C   UNL d   1     -48.876  11.787  22.761  0.00  0.00     0.124 A 
ATOM      9  C   UNL d   1     -46.938  13.867  22.686  0.00  0.00     0.086 A 
ATOM     10  C   UNL d   1     -46.734  14.695  22.581  0.00  0.00     0.021 C 
ENDROOT
BRANCH   4  11
ATOM     11  N   UNL d   1     -45.924  11.949  23.126  0.00  0.00    -0.224 NA
BRANCH  11  12
ATOM     12  C   UNL d   1     -45.716  11.327  23.678  0.00  0.00     0.120 C 
BRANCH  12  13
ATOM     13  C   UNL d   1     -44.999  10.874  23.563  0.00  0.00     0.101 A 
ATOM     14  N   UNL d   1     -44.274  11.287  23.340  0.00  0.00    -0.242 NA
ATOM     15  C   UNL d   1     -43.556  10.833  23.225  0.00  0.00     0.099 A 
ATOM     16  C   UNL d   1     -43.561   9.981  23.329  0.00  0.00     0.021 A 
ATOM     17  C   UNL d   1     -44.284   9.581  23.549  0.00  0.00     0.003 A 
ATOM     18  C   UNL d   1     -45.003  10.033  23.665  0.00  0.00     0.021 A 
ENDBRANCH  12  13
ENDBRANCH  11  12
ENDBRANCH   4  11
BRANCH   3  19
ATOM     19  C   UNL d   1     -49.275  13.139  22.493  0.00  0.00     0.005 A 
ATOM     20  C   UNL d   1     -49.460  13.315  21.721  0.00  0.00     0.001 A 
ATOM     21  C   UNL d   1     -50.050  13.864  21.555  0.00  0.00     0.011 A 
ATOM     22  C   UNL d   1     -50.446  14.229  22.164  0.00  0.00     0.058 A 
ATOM     23  C   UNL d   1     -50.252  14.044  22.940  0.00  0.00     0.011 A 
ATOM     24 CL   UNL d   1     -51.064  14.804  21.991  0.00  0.00    -0.082 Cl
ATOM     25  C   UNL d   1     -49.672  13.504  23.103  0.00  0.00     0.001 A 
ENDBRANCH   3  19
TORSDOF 4
ENDMDL
MODEL 3
REMARK VINA RESULT:      -6.0      1.123      1.581
REMARK  4 active torsions:
REMARK  status: ('A' for Active; 'I' for Inactive)
REMARK    1  A    between atoms: C_11  and  C_3 
REMARK    2  A    between atoms: N_10  and  C_4 
REMARK    3  A    between atoms: C_15  and  N_10 
REMARK    4  A    between atoms: C_16  and  C_15 
ROOT
ATOM      1  C   UNL d   1     -47.622  13.631  22.975  0.00  0.00     0.167 A 
ATOM      2  N   UNL d   1     -46.803  13.419  22.904  0.00  0.00    -0.195 N 
ATOM      3  C   UNL d   1     -47.862  14.385  22.798  0.00  0.00     0.057 A 
ATOM      4  C   UNL d   1     -46.580  12.667  23.084  0.00  0.00     0.167 A 
ATOM      5  N   UNL d   1     -46.511  14.742  22.476  0.00  0.00    -0.161 NA
ATOM      6  N   UNL d   1     -48.164  13.078  23.222  0.00  0.00    -0.227 NA
ATOM      7  C   UNL d   1     -47.121  12.100  23.335  0.00  0.00     0.058 A 
ATOM      8  C   UNL d   1     -47.305  14.947  22.546  0.00  0.00     0.124 A 
ATOM      9  C   UNL d   1     -47.927  12.308  23.405  0.00  0.00     0.086 A 
ATOM     10  C   UNL d   1     -48.498  11.723  23.666  0.00  0.00     0.021 C 
ENDROOT
BRANCH   4  11
ATOM     11  N   UNL d   1     -45.753  12.448  23.013  0.00  0.00    -0.224 NA
BRANCH  11  12
ATOM     12  C   UNL d   1     -45.240  11.859  22.658  0.00  0.00     0.120 C 
BRANCH  12  13
ATOM     13  C   UNL d   1     -44.482  12.091  22.334  0.00  0.00     0.101 A 
ATOM     14  N   UNL d   1     -43.767  11.702  22.620  0.00  0.00    -0.242 NA
ATOM     15  C   UNL d   1     -43.009  11.935  22.295  0.00  0.00     0.099 A 
ATOM     16  C   UNL d   1     -42.966  12.546  21.692  0.00  0.00     0.021 A 
ATOM     17  C   UNL d   1     -43.680  12.925  21.415  0.00  0.00     0.003 A 
ATOM     18  C   UNL d   1     -44.439  12.693  21.739  0.00  0.00     0.021 A 
ENDBRANCH  12  13
ENDBRANCH  11  12
ENDBRANCH   4  11
BRANCH   3  19
ATOM     19  C   UNL d   1     -48.657  14.591  22.867  0.00  0.00     0.005 A 
ATOM     20  C   UNL d   1     -49.166  14.455  22.248  0.00  0.00     0.001 A 
ATOM     21  C   UNL d   1     -49.960  14.661  22.317  0.00  0.00     0.011 A 
ATOM     22  C   UNL d   1     -50.232  14.999  23.005  0.00  0.00     0.058 A 
ATOM     23  C   UNL d   1     -49.710  15.131  23.624  0.00  0.00     0.011 A 
ATOM     24 CL   UNL d   1     -51.063  15.214  23.077  0.00  0.00    -0.082 Cl
ATOM     25  C   UNL d   1     -48.929  14.929  23.556  0.00  0.00     0.001 A 
ENDBRANCH   3  19
TORSDOF 4
ENDMDL
