MODEL 1
REMARK VINA RESULT:      45.4      0.000      0.000
REMARK  4 active torsions:
REMARK  status: ('A' for Active; 'I' for Inactive)
REMARK    1  A    between atoms: C_7  and  C_2 
REMARK    2  A    between atoms: C_9  and  C_4 
REMARK    3  A    between atoms: C_15  and  C_7 
REMARK    4  A    between atoms: N_8  and  C_9 
ROOT
ATOM      1  C   UNL d   1      14.683  13.814  -1.134  0.00  0.00     0.108 A 
ATOM      2  C   UNL d   1      14.536  12.508  -1.398  0.00  0.00     0.139 A 
ATOM      3  O   UNL d   1      14.293  13.271  -1.626  0.00  0.00    -0.304 OA
ATOM      4  C   UNL d   1      14.665  14.635  -1.096  0.00  0.00     0.079 A 
ATOM      5  C   UNL d   1      15.160  13.388  -0.608  0.00  0.00     0.064 A 
ATOM      6  C   UNL d   1      15.068  12.586  -0.773  0.00  0.00     0.220 A 
ATOM      7  C   UNL d   1      15.616  13.788  -0.049  0.00  0.00     0.009 A 
ATOM      8  C   UNL d   1      15.119  15.027  -0.539  0.00  0.00     0.199 A 
ATOM      9  O   UNL d   1      15.445  11.962  -0.378  0.00  0.00    -0.284 OA
ATOM     10  C   UNL d   1      15.596  14.612  -0.014  0.00  0.00     0.042 A 
ATOM     11  O   UNL d   1      15.098  15.852  -0.505  0.00  0.00    -0.286 OA
ENDROOT
BRANCH   2  12
ATOM     12  C   UNL d   1      14.283  11.800  -1.742  0.00  0.00     0.028 C 
BRANCH  12  13
ATOM     13  C   UNL d   1      13.936  11.801  -2.493  0.00  0.00     0.002 A 
ATOM     14  C   UNL d   1      14.415  11.779  -3.164  0.00  0.00     0.000 A 
ATOM     15  C   UNL d   1      14.076  11.781  -3.914  0.00  0.00     0.000 A 
ATOM     16  C   UNL d   1      13.249  11.804  -3.993  0.00  0.00     0.000 A 
ATOM     17  C   UNL d   1      12.770  11.826  -3.322  0.00  0.00     0.000 A 
ATOM     18  C   UNL d   1      12.906  11.805  -4.743  0.00  0.00     0.000 C 
ATOM     19  C   UNL d   1      13.117  11.825  -2.571  0.00  0.00     0.000 A 
ENDBRANCH  12  13
ENDBRANCH   2  12
BRANCH   4  20
ATOM     20  C   UNL d   1      14.193  15.056  -1.615  0.00  0.00     0.086 C 
BRANCH  20  21
ATOM     21  N   UNL d   1      14.466  15.529  -2.244  0.00  0.00    -0.300 N 
ATOM     22  C   UNL d   1      14.234  15.339  -3.008  0.00  0.00     0.100 A 
ATOM     23  C   UNL d   1      14.498  15.801  -3.636  0.00  0.00     0.100 A 
ATOM     24  N   UNL d   1      14.986  16.438  -3.485  0.00  0.00    -0.299 N 
ATOM     25  C   UNL d   1      15.209  16.614  -2.717  0.00  0.00     0.100 A 
ATOM     26  C   UNL d   1      15.250  16.898  -4.104  0.00  0.00     0.100 C 
ATOM     27  C   UNL d   1      14.945  16.154  -2.102  0.00  0.00     0.100 A 
ENDBRANCH  20  21
ENDBRANCH   4  20
TORSDOF 4
ENDMDL
