MODEL 1
REMARK VINA RESULT:      -5.3      0.000      0.000
REMARK  4 active torsions:
REMARK  status: ('A' for Active; 'I' for Inactive)
REMARK    1  A    between atoms: C_6  and  C_1 
REMARK    2  A    between atoms: C_8  and  N_3 
REMARK       I    between atoms: N_7  and  C_6 
REMARK    3  A    between atoms: C_9  and  N_7 
REMARK    4  A    between atoms: O_19  and  C_16 
ROOT
ATOM      1  C   UNL d   1      57.377  -0.654  31.086  0.00  0.00     0.199 A 
ATOM      2  C   UNL d   1      57.076  -0.132  31.646  0.00  0.00     0.211 A 
ATOM      3  N   UNL d   1      56.619  -0.559  32.179  0.00  0.00    -0.191 N 
ATOM      4  N   UNL d   1      56.635  -1.353  31.948  0.00  0.00    -0.058 NA
ATOM      5  N   UNL d   1      57.101  -1.417  31.274  0.00  0.00    -0.122 NA
ATOM      6  N   UNL d   1      57.212   0.680  31.667  0.00  0.00    -0.125 N 
ENDROOT
BRANCH   1   7
ATOM      7  C   UNL d   1      57.865  -0.457  30.448  0.00  0.00     0.302 C 
ATOM      8  N   UNL d   1      58.681  -0.607  30.496  0.00  0.00    -0.204 NA
ATOM      9  O   UNL d   1      57.546  -0.115  29.770  0.00  0.00    -0.263 OA
BRANCH   8  10
ATOM     10  C   UNL d   1      59.163  -0.408  29.856  0.00  0.00     0.112 A 
ATOM     11  C   UNL d   1      59.858   0.013  29.991  0.00  0.00     0.158 A 
ATOM     12  F   UNL d   1      60.068   0.233  30.753  0.00  0.00    -0.203 F 
ATOM     13  C   UNL d   1      60.349   0.217  29.349  0.00  0.00     0.031 A 
ATOM     14  C   UNL d   1      60.135  -0.005  28.589  0.00  0.00     0.002 A 
ATOM     15  C   UNL d   1      59.435  -0.429  28.455  0.00  0.00     0.002 A 
ATOM     16  C   UNL d   1      58.953  -0.628  29.094  0.00  0.00     0.021 A 
ENDBRANCH   8  10
ENDBRANCH   1   7
BRANCH   3  17
ATOM     17  C   UNL d   1      56.215  -0.253  32.829  0.00  0.00     0.086 A 
ATOM     18  C   UNL d   1      55.444  -0.500  32.989  0.00  0.00     0.021 A 
ATOM     19  C   UNL d   1      55.040  -0.193  33.640  0.00  0.00     0.026 A 
ATOM     20  C   UNL d   1      55.407   0.361  34.129  0.00  0.00     0.094 A 
ATOM     21  C   UNL d   1      56.177   0.607  33.969  0.00  0.00     0.026 A 
ATOM     22  C   UNL d   1      56.581   0.300  33.318  0.00  0.00     0.021 A 
BRANCH  20  23
ATOM     23  O   UNL d   1      55.003   0.667  34.780  0.00  0.00    -0.328 OA
ATOM     24  C   UNL d   1      55.365   0.682  35.520  0.00  0.00     0.181 C 
ENDBRANCH  20  23
ENDBRANCH   3  17
TORSDOF 4
ENDMDL
MODEL 2
REMARK VINA RESULT:      -4.6      1.622      5.228
REMARK  4 active torsions:
REMARK  status: ('A' for Active; 'I' for Inactive)
REMARK    1  A    between atoms: C_6  and  C_1 
REMARK    2  A    between atoms: C_8  and  N_3 
REMARK       I    between atoms: N_7  and  C_6 
REMARK    3  A    between atoms: C_9  and  N_7 
REMARK    4  A    between atoms: O_19  and  C_16 
ROOT
ATOM      1  C   UNL d   1      56.826  -0.420  32.070  0.00  0.00     0.199 A 
ATOM      2  C   UNL d   1      57.386  -0.057  31.589  0.00  0.00     0.211 A 
ATOM      3  N   UNL d   1      57.521  -0.542  30.937  0.00  0.00    -0.191 N 
ATOM      4  N   UNL d   1      57.039  -1.210  31.015  0.00  0.00    -0.058 NA
ATOM      5  N   UNL d   1      56.609  -1.140  31.711  0.00  0.00    -0.122 NA
ATOM      6  N   UNL d   1      57.749   0.667  31.736  0.00  0.00    -0.125 N 
ENDROOT
BRANCH   1   7
ATOM      7  C   UNL d   1      56.529  -0.123  32.782  0.00  0.00     0.302 C 
ATOM      8  N   UNL d   1      55.723  -0.214  32.960  0.00  0.00    -0.204 NA
ATOM      9  O   UNL d   1      57.029   0.261  33.313  0.00  0.00    -0.263 OA
BRANCH   8  10
ATOM     10  C   UNL d   1      55.433   0.084  33.673  0.00  0.00     0.112 A 
ATOM     11  C   UNL d   1      54.653   0.346  33.712  0.00  0.00     0.158 A 
ATOM     12  F   UNL d   1      54.170   0.311  33.050  0.00  0.00    -0.203 F 
ATOM     13  C   UNL d   1      54.355   0.649  34.429  0.00  0.00     0.031 A 
ATOM     14  C   UNL d   1      54.842   0.682  35.089  0.00  0.00     0.002 A 
ATOM     15  C   UNL d   1      55.626   0.418  35.047  0.00  0.00     0.002 A 
ATOM     16  C   UNL d   1      55.916   0.119  34.335  0.00  0.00     0.021 A 
ENDBRANCH   8  10
ENDBRANCH   1   7
BRANCH   3  17
ATOM     17  C   UNL d   1      58.041  -0.390  30.317  0.00  0.00     0.086 A 
ATOM     18  C   UNL d   1      58.544  -0.985  30.046  0.00  0.00     0.021 A 
ATOM     19  C   UNL d   1      59.065  -0.833  29.425  0.00  0.00     0.026 A 
ATOM     20  C   UNL d   1      59.084  -0.085  29.076  0.00  0.00     0.094 A 
ATOM     21  C   UNL d   1      58.582   0.509  29.348  0.00  0.00     0.026 A 
ATOM     22  C   UNL d   1      58.060   0.357  29.968  0.00  0.00     0.021 A 
BRANCH  20  23
ATOM     23  O   UNL d   1      59.605   0.067  28.455  0.00  0.00    -0.328 OA
ATOM     24  C   UNL d   1      60.359   0.360  28.613  0.00  0.00     0.181 C 
ENDBRANCH  20  23
ENDBRANCH   3  17
TORSDOF 4
ENDMDL
MODEL 3
REMARK VINA RESULT:      -2.9      1.159      1.492
REMARK  4 active torsions:
REMARK  status: ('A' for Active; 'I' for Inactive)
REMARK    1  A    between atoms: C_6  and  C_1 
REMARK    2  A    between atoms: C_8  and  N_3 
REMARK       I    between atoms: N_7  and  C_6 
REMARK    3  A    between atoms: C_9  and  N_7 
REMARK    4  A    between atoms: O_19  and  C_16 
ROOT
ATOM      1  C   UNL d   1      57.682   0.244  30.688  0.00  0.00     0.199 A 
ATOM      2  C   UNL d   1      57.608   0.203  31.507  0.00  0.00     0.211 A 
ATOM      3  N   UNL d   1      56.858   0.472  31.713  0.00  0.00    -0.191 N 
ATOM      4  N   UNL d   1      56.465   0.682  31.016  0.00  0.00    -0.058 NA
ATOM      5  N   UNL d   1      56.968   0.543  30.382  0.00  0.00    -0.122 NA
ATOM      6  N   UNL d   1      58.187  -0.063  32.029  0.00  0.00    -0.125 N 
ENDROOT
BRANCH   1   7
ATOM      7  C   UNL d   1      58.347   0.027  30.247  0.00  0.00     0.302 C 
ATOM      8  N   UNL d   1      58.338  -0.683  29.816  0.00  0.00    -0.204 NA
ATOM      9  O   UNL d   1      59.014   0.511  30.235  0.00  0.00    -0.263 OA
BRANCH   8  10
ATOM     10  C   UNL d   1      59.006  -0.894  29.378  0.00  0.00     0.112 A 
ATOM     11  C   UNL d   1      59.097  -1.677  29.136  0.00  0.00     0.158 A 
ATOM     12  F   UNL d   1      58.532  -2.240  29.329  0.00  0.00    -0.203 F 
ATOM     13  C   UNL d   1      59.769  -1.896  28.694  0.00  0.00     0.031 A 
ATOM     14  C   UNL d   1      60.331  -1.330  28.503  0.00  0.00     0.002 A 
ATOM     15  C   UNL d   1      60.237  -0.544  28.747  0.00  0.00     0.002 A 
ATOM     16  C   UNL d   1      59.570  -0.332  29.185  0.00  0.00     0.021 A 
ENDBRANCH   8  10
ENDBRANCH   1   7
BRANCH   3  17
ATOM     17  C   UNL d   1      56.553   0.525  32.476  0.00  0.00     0.086 A 
ATOM     18  C   UNL d   1      57.063   0.604  33.120  0.00  0.00     0.021 A 
ATOM     19  C   UNL d   1      56.757   0.656  33.884  0.00  0.00     0.026 A 
ATOM     20  C   UNL d   1      55.941   0.629  34.004  0.00  0.00     0.094 A 
ATOM     21  C   UNL d   1      55.432   0.550  33.361  0.00  0.00     0.026 A 
ATOM     22  C   UNL d   1      55.738   0.498  32.596  0.00  0.00     0.021 A 
BRANCH  20  23
ATOM     23  O   UNL d   1      55.635   0.682  34.768  0.00  0.00    -0.328 OA
ATOM     24  C   UNL d   1      55.163   0.074  35.066  0.00  0.00     0.181 C 
ENDBRANCH  20  23
ENDBRANCH   3  17
TORSDOF 4
ENDMDL
