MODEL 1
REMARK VINA RESULT:      40.4      0.000      0.000
REMARK  1 active torsions:
REMARK  status: ('A' for Active; 'I' for Inactive)
REMARK    1  A    between atoms: C_2  and  N_1 
ROOT
ATOM      1  C   UNL d   1     -50.733  24.957  33.355  0.00  0.00     0.169 A 
ATOM      2  C   UNL d   1     -50.244  25.597  33.356  0.00  0.00     0.060 A 
ATOM      3  C   UNL d   1     -49.404  25.481  33.343  0.00  0.00     0.115 A 
ATOM      4  S   UNL d   1     -49.046  26.215  33.347  0.00  0.00    -0.068 SA
ATOM      5  C   UNL d   1     -50.360  26.410  33.366  0.00  0.00     0.011 A 
ATOM      6  N   UNL d   1     -50.450  24.203  33.342  0.00  0.00    -0.208 NA
ATOM      7  N   UNL d   1     -49.105  24.734  33.330  0.00  0.00    -0.220 NA
ATOM      8  C   UNL d   1     -49.619  26.787  33.361  0.00  0.00     0.031 A 
ATOM      9  C   UNL d   1     -49.605  24.053  33.329  0.00  0.00     0.165 A 
ATOM     10  C   UNL d   1     -51.052  26.869  33.381  0.00  0.00     0.001 A 
ATOM     11  C   UNL d   1     -49.573  27.606  33.370  0.00  0.00     0.006 A 
ATOM     12  C   UNL d   1     -49.292  23.286  33.316  0.00  0.00     0.042 C 
ATOM     13  C   UNL d   1     -50.984  27.691  33.390  0.00  0.00     0.000 A 
ATOM     14  C   UNL d   1     -50.232  28.076  33.384  0.00  0.00     0.001 A 
ENDROOT
BRANCH   1  15
ATOM     15  N   UNL d   1     -51.554  25.059  33.367  0.00  0.00    -0.193 N 
ATOM     16  N   UNL d   1     -51.933  25.782  33.354  0.00  0.00    -0.058 NA
ATOM     17  N   UNL d   1     -52.760  25.651  33.372  0.00  0.00    -0.129 NA
ATOM     18  C   UNL d   1     -52.884  24.833  33.398  0.00  0.00     0.122 A 
ATOM     19  C   UNL d   1     -52.161  24.464  33.395  0.00  0.00     0.105 A 
ATOM     20  C   UNL d   1     -53.561  24.406  33.422  0.00  0.00     0.022 A 
ATOM     21  C   UNL d   1     -52.087  23.674  33.416  0.00  0.00     0.021 A 
ATOM     22  C   UNL d   1     -52.771  23.213  33.441  0.00  0.00     0.002 A 
ATOM     23  C   UNL d   1     -53.516  23.591  33.444  0.00  0.00     0.002 A 
ENDBRANCH   1  15
TORSDOF 1
ENDMDL
