MODEL 1
REMARK VINA RESULT:      11.6      0.000      0.000
REMARK  1 active torsions:
REMARK  status: ('A' for Active; 'I' for Inactive)
REMARK       I    between atoms: N_2  and  C_1 
REMARK    1  A    between atoms: C_5  and  N_2 
ROOT
ATOM      1  C   UNL d   1      58.389  49.698  50.788  0.00  0.00     0.100 A 
ATOM      2  C   UNL d   1      57.048  49.678  49.822  0.00  0.00     0.058 A 
ATOM      3 CL   UNL d   1      56.381  49.669  49.340  0.00  0.00    -0.082 Cl
ATOM      4  C   UNL d   1      57.631  49.679  51.126  0.00  0.00     0.021 A 
ATOM      5  C   UNL d   1      58.473  49.708  49.967  0.00  0.00     0.021 A 
ATOM      6  C   UNL d   1      56.964  49.669  50.642  0.00  0.00     0.013 A 
ATOM      7  C   UNL d   1      57.799  49.698  49.484  0.00  0.00     0.013 A 
ENDROOT
BRANCH   1   8
ATOM      8  N   UNL d   1      59.056  49.708  51.275  0.00  0.00    -0.056 NA
ATOM      9  C   UNL d   1      59.811  49.680  50.947  0.00  0.00     0.787 C 
ATOM     10  N   UNL d   1      60.477  49.690  51.429  0.00  0.00     0.064 N 
ATOM     11  N   UNL d   1      59.894  49.643  50.127  0.00  0.00     0.064 N 
ENDBRANCH   1   8
TORSDOF 1
ENDMDL
MODEL 2
REMARK VINA RESULT:      11.7      1.977      2.946
REMARK  1 active torsions:
REMARK  status: ('A' for Active; 'I' for Inactive)
REMARK       I    between atoms: N_2  and  C_1 
REMARK    1  A    between atoms: C_5  and  N_2 
ROOT
ATOM      1  C   UNL d   1      58.713  49.706  50.380  0.00  0.00     0.100 A 
ATOM      2  C   UNL d   1      60.172  49.703  51.159  0.00  0.00     0.058 A 
ATOM      3 CL   UNL d   1      60.896  49.701  51.549  0.00  0.00    -0.082 Cl
ATOM      4  C   UNL d   1      59.420  49.703  49.944  0.00  0.00     0.021 A 
ATOM      5  C   UNL d   1      58.739  49.707  51.204  0.00  0.00     0.021 A 
ATOM      6  C   UNL d   1      60.146  49.702  50.335  0.00  0.00     0.013 A 
ATOM      7  C   UNL d   1      59.472  49.706  51.594  0.00  0.00     0.013 A 
ENDROOT
BRANCH   1   8
ATOM      8  N   UNL d   1      57.988  49.708  49.985  0.00  0.00    -0.056 NA
ATOM      9  C   UNL d   1      57.284  49.686  50.412  0.00  0.00     0.787 C 
ATOM     10  N   UNL d   1      56.559  49.688  50.022  0.00  0.00     0.064 N 
ATOM     11  N   UNL d   1      57.310  49.663  51.236  0.00  0.00     0.064 N 
ENDBRANCH   1   8
TORSDOF 1
ENDMDL
MODEL 3
REMARK VINA RESULT:      14.6      1.163      1.680
REMARK  1 active torsions:
REMARK  status: ('A' for Active; 'I' for Inactive)
REMARK       I    between atoms: N_2  and  C_1 
REMARK    1  A    between atoms: C_5  and  N_2 
ROOT
ATOM      1  C   UNL d   1      60.048  49.687  50.860  0.00  0.00     0.100 A 
ATOM      2  C   UNL d   1      58.477  49.700  50.344  0.00  0.00     0.058 A 
ATOM      3 CL   UNL d   1      57.696  49.707  50.086  0.00  0.00    -0.082 Cl
ATOM      4  C   UNL d   1      59.427  49.699  51.411  0.00  0.00     0.021 A 
ATOM      5  C   UNL d   1      59.880  49.682  50.052  0.00  0.00     0.021 A 
ATOM      6  C   UNL d   1      58.645  49.706  51.152  0.00  0.00     0.013 A 
ATOM      7  C   UNL d   1      59.091  49.688  49.796  0.00  0.00     0.013 A 
ENDROOT
BRANCH   1   8
ATOM      8  N   UNL d   1      60.831  49.681  51.123  0.00  0.00    -0.056 NA
ATOM      9  C   UNL d   1      60.998  49.690  51.928  0.00  0.00     0.787 C 
ATOM     10  N   UNL d   1      61.777  49.683  52.194  0.00  0.00     0.064 N 
ATOM     11  N   UNL d   1      60.377  49.705  52.471  0.00  0.00     0.064 N 
ENDBRANCH   1   8
TORSDOF 1
ENDMDL
