MODEL 1
REMARK VINA RESULT:      -3.4      0.000      0.000
REMARK  2 active torsions:
REMARK  status: ('A' for Active; 'I' for Inactive)
REMARK    1  A    between atoms: C_5  and  C_1 
REMARK    2  A    between atoms: C_7  and  C_3 
REMARK       I    between atoms: N_8  and  C_7 
ROOT
ATOM      1  C   UNL d   1      32.878  18.609 -23.481  0.00  0.00     0.086 A 
ATOM      2  S   UNL d   1      32.732  19.409 -23.316  0.00  0.00    -0.080 SA
ATOM      3  C   UNL d   1      32.937  19.542 -22.526  0.00  0.00     0.053 A 
ATOM      4  C   UNL d   1      33.171  18.254 -22.796  0.00  0.00     0.012 A 
ATOM      5  C   UNL d   1      33.207  18.833 -22.205  0.00  0.00     0.009 A 
ENDROOT
BRANCH   3   6
ATOM      6  C   UNL d   1      32.880  20.262 -22.128  0.00  0.00     0.117 A 
ATOM      7  N   UNL d   1      32.451  20.395 -21.437  0.00  0.00    -0.238 NA
ATOM      8  C   UNL d   1      32.549  21.193 -21.234  0.00  0.00     0.088 A 
ATOM      9  C   UNL d   1      32.256  21.639 -20.607  0.00  0.00     0.020 A 
ATOM     10  C   UNL d   1      33.036  21.544 -21.800  0.00  0.00     0.049 A 
ATOM     11  C   UNL d   1      32.451  22.433 -20.549  0.00  0.00     0.002 A 
ATOM     12  C   UNL d   1      32.938  22.784 -21.115  0.00  0.00     0.001 A 
ATOM     13  C   UNL d   1      33.230  22.341 -21.739  0.00  0.00     0.008 A 
ATOM     14  S   UNL d   1      33.240  20.964 -22.354  0.00  0.00    -0.066 SA
ENDBRANCH   3   6
BRANCH   1  15
ATOM     15  C   UNL d   1      32.751  18.237 -24.207  0.00  0.00     0.271 C 
ATOM     16  N   UNL d   1      32.243  17.591 -24.249  0.00  0.00    -0.267 N 
ATOM     17  C   UNL d   1      32.118  17.222 -24.973  0.00  0.00     0.110 A 
ATOM     18  C   UNL d   1      31.868  17.321 -23.575  0.00  0.00     0.110 A 
ATOM     19  C   UNL d   1      31.613  16.578 -25.021  0.00  0.00     0.142 A 
ATOM     20  O   UNL d   1      31.233  16.302 -24.343  0.00  0.00    -0.300 OA
ATOM     21  C   UNL d   1      31.359  16.672 -23.618  0.00  0.00     0.142 A 
ATOM     22  O   UNL d   1      33.131  18.512 -24.885  0.00  0.00    -0.266 OA
ENDBRANCH   1  15
TORSDOF 2
ENDMDL
MODEL 2
REMARK VINA RESULT:      -2.8      1.986      5.002
REMARK  2 active torsions:
REMARK  status: ('A' for Active; 'I' for Inactive)
REMARK    1  A    between atoms: C_5  and  C_1 
REMARK    2  A    between atoms: C_7  and  C_3 
REMARK       I    between atoms: N_8  and  C_7 
ROOT
ATOM      1  C   UNL d   1      33.021  20.763 -21.675  0.00  0.00     0.086 A 
ATOM      2  S   UNL d   1      32.871  19.955 -21.788  0.00  0.00    -0.080 SA
ATOM      3  C   UNL d   1      33.001  19.787 -22.587  0.00  0.00     0.053 A 
ATOM      4  C   UNL d   1      33.241  21.088 -22.401  0.00  0.00     0.012 A 
ATOM      5  C   UNL d   1      33.229  20.483 -22.965  0.00  0.00     0.009 A 
ENDROOT
BRANCH   3   6
ATOM      6  C   UNL d   1      32.917  19.048 -22.944  0.00  0.00     0.117 A 
ATOM      7  N   UNL d   1      33.135  18.327 -22.609  0.00  0.00    -0.238 NA
ATOM      8  C   UNL d   1      32.952  17.733 -23.159  0.00  0.00     0.088 A 
ATOM      9  C   UNL d   1      33.044  16.916 -23.134  0.00  0.00     0.020 A 
ATOM     10  C   UNL d   1      32.624  18.092 -23.826  0.00  0.00     0.049 A 
ATOM     11  C   UNL d   1      32.808  16.461 -23.774  0.00  0.00     0.002 A 
ATOM     12  C   UNL d   1      32.480  16.820 -24.440  0.00  0.00     0.001 A 
ATOM     13  C   UNL d   1      32.388  17.634 -24.467  0.00  0.00     0.008 A 
ATOM     14  S   UNL d   1      32.604  18.909 -23.690  0.00  0.00    -0.066 SA
ENDBRANCH   3   6
BRANCH   1  15
ATOM     15  C   UNL d   1      32.958  21.168 -20.958  0.00  0.00     0.271 C 
ATOM     16  N   UNL d   1      32.667  21.938 -20.950  0.00  0.00    -0.267 N 
ATOM     17  C   UNL d   1      32.606  22.338 -20.235  0.00  0.00     0.110 A 
ATOM     18  C   UNL d   1      32.443  22.297 -21.648  0.00  0.00     0.110 A 
ATOM     19  C   UNL d   1      32.318  23.105 -20.220  0.00  0.00     0.142 A 
ATOM     20  O   UNL d   1      32.089  23.472 -20.923  0.00  0.00    -0.300 OA
ATOM     21  C   UNL d   1      32.151  23.070 -21.638  0.00  0.00     0.142 A 
ATOM     22  O   UNL d   1      33.186  20.802 -20.255  0.00  0.00    -0.266 OA
ENDBRANCH   1  15
TORSDOF 2
ENDMDL
MODEL 3
REMARK VINA RESULT:      -2.8      1.706      4.832
REMARK  2 active torsions:
REMARK  status: ('A' for Active; 'I' for Inactive)
REMARK    1  A    between atoms: C_5  and  C_1 
REMARK    2  A    between atoms: C_7  and  C_3 
REMARK       I    between atoms: N_8  and  C_7 
ROOT
ATOM      1  C   UNL d   1      32.981  20.428 -22.385  0.00  0.00     0.086 A 
ATOM      2  S   UNL d   1      32.762  19.908 -22.993  0.00  0.00    -0.080 SA
ATOM      3  C   UNL d   1      32.887  19.138 -22.720  0.00  0.00     0.053 A 
ATOM      4  C   UNL d   1      33.238  19.980 -21.742  0.00  0.00     0.012 A 
ATOM      5  C   UNL d   1      33.179  19.180 -21.951  0.00  0.00     0.009 A 
ENDROOT
BRANCH   3   6
ATOM      6  C   UNL d   1      32.742  18.446 -23.145  0.00  0.00     0.117 A 
ATOM      7  N   UNL d   1      32.076  18.299 -23.608  0.00  0.00    -0.238 NA
ATOM      8  C   UNL d   1      32.163  17.540 -23.931  0.00  0.00     0.088 A 
ATOM      9  C   UNL d   1      31.680  17.099 -24.431  0.00  0.00     0.020 A 
ATOM     10  C   UNL d   1      32.879  17.227 -23.666  0.00  0.00     0.049 A 
ATOM     11  C   UNL d   1      31.914  16.349 -24.663  0.00  0.00     0.002 A 
ATOM     12  C   UNL d   1      32.630  16.037 -24.398  0.00  0.00     0.001 A 
ATOM     13  C   UNL d   1      33.112  16.474 -23.901  0.00  0.00     0.008 A 
ATOM     14  S   UNL d   1      33.237  17.792 -23.178  0.00  0.00    -0.066 SA
ENDBRANCH   3   6
BRANCH   1  15
ATOM     15  C   UNL d   1      32.946  21.253 -22.421  0.00  0.00     0.271 C 
ATOM     16  N   UNL d   1      32.615  21.673 -21.796  0.00  0.00    -0.267 N 
ATOM     17  C   UNL d   1      32.582  22.494 -21.835  0.00  0.00     0.110 A 
ATOM     18  C   UNL d   1      32.324  21.276 -21.145  0.00  0.00     0.110 A 
ATOM     19  C   UNL d   1      32.254  22.919 -21.215  0.00  0.00     0.142 A 
ATOM     20  O   UNL d   1      31.959  22.521 -20.556  0.00  0.00    -0.300 OA
ATOM     21  C   UNL d   1      31.993  21.700 -20.517  0.00  0.00     0.142 A 
ATOM     22  O   UNL d   1      33.241  21.651 -23.081  0.00  0.00    -0.266 OA
ENDBRANCH   1  15
TORSDOF 2
ENDMDL
MODEL 4
REMARK VINA RESULT:      -0.9      1.821      4.918
REMARK  2 active torsions:
REMARK  status: ('A' for Active; 'I' for Inactive)
REMARK    1  A    between atoms: C_5  and  C_1 
REMARK    2  A    between atoms: C_7  and  C_3 
REMARK       I    between atoms: N_8  and  C_7 
ROOT
ATOM      1  C   UNL d   1      32.898  19.897 -23.245  0.00  0.00     0.086 A 
ATOM      2  S   UNL d   1      32.397  19.251 -23.103  0.00  0.00    -0.080 SA
ATOM      3  C   UNL d   1      32.436  18.756 -23.765  0.00  0.00     0.053 A 
ATOM      4  C   UNL d   1      33.241  19.799 -23.988  0.00  0.00     0.012 A 
ATOM      5  C   UNL d   1      32.954  19.092 -24.310  0.00  0.00     0.009 A 
ENDROOT
BRANCH   3   6
ATOM      6  C   UNL d   1      32.025  18.048 -23.861  0.00  0.00     0.117 A 
ATOM      7  N   UNL d   1      31.305  17.961 -24.253  0.00  0.00    -0.238 NA
ATOM      8  C   UNL d   1      31.098  17.159 -24.215  0.00  0.00     0.088 A 
ATOM      9  C   UNL d   1      30.447  16.747 -24.505  0.00  0.00     0.020 A 
ATOM     10  C   UNL d   1      31.690  16.759 -23.803  0.00  0.00     0.049 A 
ATOM     11  C   UNL d   1      30.390  15.939 -24.381  0.00  0.00     0.002 A 
ATOM     12  C   UNL d   1      30.982  15.539 -23.969  0.00  0.00     0.001 A 
ATOM     13  C   UNL d   1      31.631  15.948 -23.680  0.00  0.00     0.008 A 
ATOM     14  S   UNL d   1      32.265  17.313 -23.583  0.00  0.00    -0.066 SA
ENDBRANCH   3   6
BRANCH   1  15
ATOM     15  C   UNL d   1      33.027  20.528 -22.727  0.00  0.00     0.271 C 
ATOM     16  N   UNL d   1      33.069  21.294 -23.023  0.00  0.00    -0.267 N 
ATOM     17  C   UNL d   1      33.198  21.920 -22.505  0.00  0.00     0.110 A 
ATOM     18  C   UNL d   1      32.983  21.429 -23.823  0.00  0.00     0.110 A 
ATOM     19  C   UNL d   1      33.241  22.686 -22.794  0.00  0.00     0.142 A 
ATOM     20  O   UNL d   1      33.155  22.826 -23.602  0.00  0.00    -0.300 OA
ATOM     21  C   UNL d   1      33.026  22.199 -24.120  0.00  0.00     0.142 A 
ATOM     22  O   UNL d   1      33.113  20.388 -21.918  0.00  0.00    -0.266 OA
ENDBRANCH   1  15
TORSDOF 2
ENDMDL
