MODEL 1
REMARK VINA RESULT:      68.1      0.000      0.000
REMARK  2 active torsions:
REMARK  status: ('A' for Active; 'I' for Inactive)
REMARK    1  A    between atoms: N_4  and  C_1 
REMARK    2  A    between atoms: C_11  and  C_3 
ROOT
ATOM      1  C   UNL d   1      58.951  49.461  50.952  0.00  0.00     0.148 A 
ATOM      2  N   UNL d   1      59.066  49.614  51.736  0.00  0.00    -0.228 NA
ATOM      3  C   UNL d   1      60.351  49.162  50.835  0.00  0.00     0.004 A 
ATOM      4  C   UNL d   1      59.603  49.231  50.495  0.00  0.00     0.037 A 
ATOM      5  C   UNL d   1      60.440  49.325  51.642  0.00  0.00     0.018 A 
ATOM      6  C   UNL d   1      59.788  49.554  52.099  0.00  0.00     0.083 A 
ATOM      7  C   UNL d   1      61.185  49.255  51.979  0.00  0.00     0.002 A 
ATOM      8  C   UNL d   1      59.901  49.707  52.879  0.00  0.00     0.019 A 
ATOM      9  C   UNL d   1      61.277  49.418  52.789  0.00  0.00     0.000 A 
ATOM     10  C   UNL d   1      60.625  49.647  53.246  0.00  0.00     0.002 A 
ENDROOT
BRANCH   1  11
ATOM     11  N   UNL d   1      58.234  49.521  50.595  0.00  0.00    -0.286 N 
ATOM     12  C   UNL d   1      57.512  49.562  51.006  0.00  0.00     0.101 A 
ATOM     13  C   UNL d   1      56.790  49.623  50.649  0.00  0.00     0.100 A 
ATOM     14  N   UNL d   1      56.761  49.645  49.821  0.00  0.00    -0.299 N 
ATOM     15  C   UNL d   1      57.455  49.606  49.399  0.00  0.00     0.100 A 
ATOM     16  C   UNL d   1      56.035  49.706  49.452  0.00  0.00     0.100 C 
ATOM     17  C   UNL d   1      58.204  49.543  49.767  0.00  0.00     0.101 A 
ENDBRANCH   1  11
BRANCH   3  18
ATOM     18  C   UNL d   1      60.984  48.939  50.391  0.00  0.00     0.000 A 
ATOM     19  C   UNL d   1      61.381  49.486  49.919  0.00  0.00     0.000 A 
ATOM     20  C   UNL d   1      62.004  49.267  49.482  0.00  0.00     0.000 A 
ATOM     21  C   UNL d   1      62.279  48.483  49.483  0.00  0.00     0.000 A 
ATOM     22  C   UNL d   1      61.873  47.934  49.963  0.00  0.00     0.000 A 
ATOM     23  C   UNL d   1      61.249  48.153  50.400  0.00  0.00     0.000 A 
ENDBRANCH   3  18
TORSDOF 2
ENDMDL
MODEL 2
REMARK VINA RESULT:      71.0      1.239      4.449
REMARK  2 active torsions:
REMARK  status: ('A' for Active; 'I' for Inactive)
REMARK    1  A    between atoms: N_4  and  C_1 
REMARK    2  A    between atoms: C_11  and  C_3 
ROOT
ATOM      1  C   UNL d   1      59.089  49.173  50.611  0.00  0.00     0.148 A 
ATOM      2  N   UNL d   1      58.753  49.238  49.881  0.00  0.00    -0.228 NA
ATOM      3  C   UNL d   1      57.801  49.423  51.195  0.00  0.00     0.004 A 
ATOM      4  C   UNL d   1      58.605  49.267  51.278  0.00  0.00     0.037 A 
ATOM      5  C   UNL d   1      57.482  49.485  50.433  0.00  0.00     0.018 A 
ATOM      6  C   UNL d   1      57.965  49.391  49.766  0.00  0.00     0.083 A 
ATOM      7  C   UNL d   1      56.680  49.641  50.352  0.00  0.00     0.002 A 
ATOM      8  C   UNL d   1      57.632  49.455  49.038  0.00  0.00     0.019 A 
ATOM      9  C   UNL d   1      56.358  49.703  49.587  0.00  0.00     0.000 A 
ATOM     10  C   UNL d   1      56.841  49.609  48.920  0.00  0.00     0.002 A 
ENDROOT
BRANCH   1  11
ATOM     11  N   UNL d   1      59.870  49.021  50.721  0.00  0.00    -0.286 N 
ATOM     12  C   UNL d   1      60.438  49.605  50.892  0.00  0.00     0.101 A 
ATOM     13  C   UNL d   1      61.223  49.454  51.003  0.00  0.00     0.100 A 
ATOM     14  N   UNL d   1      61.486  48.670  50.945  0.00  0.00    -0.299 N 
ATOM     15  C   UNL d   1      60.949  48.083  50.779  0.00  0.00     0.100 A 
ATOM     16  C   UNL d   1      62.279  48.510  51.056  0.00  0.00     0.100 C 
ATOM     17  C   UNL d   1      60.134  48.237  50.663  0.00  0.00     0.101 A 
ENDBRANCH   1  11
BRANCH   3  18
ATOM     18  C   UNL d   1      57.331  49.515  51.842  0.00  0.00     0.000 A 
ATOM     19  C   UNL d   1      56.517  49.618  51.761  0.00  0.00     0.000 A 
ATOM     20  C   UNL d   1      56.056  49.708  52.398  0.00  0.00     0.000 A 
ATOM     21  C   UNL d   1      56.372  49.702  53.166  0.00  0.00     0.000 A 
ATOM     22  C   UNL d   1      57.197  49.597  53.241  0.00  0.00     0.000 A 
ATOM     23  C   UNL d   1      57.659  49.507  52.604  0.00  0.00     0.000 A 
ENDBRANCH   3  18
TORSDOF 2
ENDMDL
