MODEL 1
REMARK VINA RESULT:      21.8      0.000      0.000
REMARK  3 active torsions:
REMARK  status: ('A' for Active; 'I' for Inactive)
REMARK    1  A    between atoms: C_5  and  C_1 
REMARK       I    between atoms: N_7  and  C_5 
REMARK    2  A    between atoms: C_15  and  N_10 
REMARK    3  A    between atoms: C_21  and  C_15 
ROOT
ATOM      1  C   UNL d   1      46.370 -17.683  42.967  0.00  0.00     0.270 C 
ATOM      2  N   UNL d   1      46.095 -17.055  43.460  0.00  0.00    -0.270 N 
ATOM      3  N   UNL d   1      45.546 -15.819  44.445  0.00  0.00    -0.300 N 
ATOM      4  O   UNL d   1      46.641 -17.506  42.239  0.00  0.00    -0.269 OA
ATOM      5  C   UNL d   1      46.106 -16.259  43.187  0.00  0.00     0.102 A 
ATOM      6  C   UNL d   1      45.813 -17.244  44.222  0.00  0.00     0.102 A 
ATOM      7  C   UNL d   1      45.835 -15.652  43.674  0.00  0.00     0.100 A 
ATOM      8  C   UNL d   1      45.535 -16.615  44.719  0.00  0.00     0.100 A 
ENDROOT
BRANCH   1   9
ATOM      9  C   UNL d   1      46.360 -18.431  43.224  0.00  0.00     0.191 A 
ATOM     10  O   UNL d   1      46.191 -18.676  42.505  0.00  0.00    -0.293 OA
ATOM     11  C   UNL d   1      46.180 -19.424  42.762  0.00  0.00     0.275 A 
ATOM     12  O   UNL d   1      46.051 -20.147  42.432  0.00  0.00    -0.264 OA
ATOM     13  C   UNL d   1      46.352 -19.191  43.499  0.00  0.00     0.099 A 
ATOM     14  C   UNL d   1      46.469 -19.537  44.210  0.00  0.00     0.047 A 
ATOM     15  C   UNL d   1      46.300 -19.971  43.570  0.00  0.00     0.014 C 
ATOM     16  C   UNL d   1      46.506 -18.585  43.998  0.00  0.00    -0.019 A 
ATOM     17  C   UNL d   1      46.415 -20.325  44.270  0.00  0.00     0.004 C 
ATOM     18  C   UNL d   1      46.641 -19.289  44.941  0.00  0.00     0.004 C 
ATOM     19  C   UNL d   1      46.515 -17.840  43.732  0.00  0.00     0.006 A 
ENDBRANCH   1   9
BRANCH   3  20
ATOM     20  C   UNL d   1      45.268 -15.197  44.948  0.00  0.00     0.080 C 
BRANCH  20  21
ATOM     21  C   UNL d   1      45.357 -14.393  44.717  0.00  0.00     0.018 A 
ATOM     22  C   UNL d   1      46.052 -13.972  44.924  0.00  0.00     0.002 A 
ATOM     23  C   UNL d   1      46.153 -13.163  44.695  0.00  0.00     0.000 A 
ATOM     24  C   UNL d   1      45.535 -12.790  44.253  0.00  0.00     0.000 A 
ATOM     25  C   UNL d   1      44.837 -13.214  44.044  0.00  0.00     0.000 A 
ATOM     26  C   UNL d   1      44.750 -14.014  44.277  0.00  0.00     0.002 A 
ENDBRANCH  20  21
ENDBRANCH   3  20
TORSDOF 3
ENDMDL
MODEL 2
REMARK VINA RESULT:      22.9      0.897      1.588
REMARK  3 active torsions:
REMARK  status: ('A' for Active; 'I' for Inactive)
REMARK    1  A    between atoms: C_5  and  C_1 
REMARK       I    between atoms: N_7  and  C_5 
REMARK    2  A    between atoms: C_15  and  N_10 
REMARK    3  A    between atoms: C_21  and  C_15 
ROOT
ATOM      1  C   UNL d   1      46.313 -18.178  44.038  0.00  0.00     0.270 C 
ATOM      2  N   UNL d   1      45.965 -17.413  44.127  0.00  0.00    -0.270 N 
ATOM      3  N   UNL d   1      45.273 -15.899  44.293  0.00  0.00    -0.300 N 
ATOM      4  O   UNL d   1      46.642 -18.524  44.676  0.00  0.00    -0.269 OA
ATOM      5  C   UNL d   1      45.966 -17.026  44.875  0.00  0.00     0.102 A 
ATOM      6  C   UNL d   1      45.622 -17.054  43.458  0.00  0.00     0.102 A 
ATOM      7  C   UNL d   1      45.625 -16.280  44.954  0.00  0.00     0.100 A 
ATOM      8  C   UNL d   1      45.272 -16.286  43.545  0.00  0.00     0.100 A 
ENDROOT
BRANCH   1   9
ATOM      9  C   UNL d   1      46.312 -18.541  43.335  0.00  0.00     0.191 A 
ATOM     10  O   UNL d   1      46.134 -19.214  43.683  0.00  0.00    -0.293 OA
ATOM     11  C   UNL d   1      46.133 -19.577  42.981  0.00  0.00     0.275 A 
ATOM     12  O   UNL d   1      46.003 -20.327  42.718  0.00  0.00    -0.264 OA
ATOM     13  C   UNL d   1      46.313 -18.901  42.611  0.00  0.00     0.099 A 
ATOM     14  C   UNL d   1      46.444 -18.660  41.860  0.00  0.00     0.047 A 
ATOM     15  C   UNL d   1      46.268 -19.416  42.021  0.00  0.00     0.014 C 
ATOM     16  C   UNL d   1      46.471 -18.119  42.672  0.00  0.00    -0.019 A 
ATOM     17  C   UNL d   1      46.396 -19.188  41.272  0.00  0.00     0.004 C 
ATOM     18  C   UNL d   1      46.624 -17.977  41.506  0.00  0.00     0.004 C 
ATOM     19  C   UNL d   1      46.470 -17.763  43.378  0.00  0.00     0.006 A 
ENDBRANCH   1   9
BRANCH   3  20
ATOM     20  C   UNL d   1      44.921 -15.132  44.371  0.00  0.00     0.080 C 
BRANCH  20  21
ATOM     21  C   UNL d   1      45.377 -14.441  44.224  0.00  0.00     0.018 A 
ATOM     22  C   UNL d   1      45.121 -13.883  43.654  0.00  0.00     0.002 A 
ATOM     23  C   UNL d   1      45.573 -13.184  43.498  0.00  0.00     0.000 A 
ATOM     24  C   UNL d   1      46.289 -13.063  43.933  0.00  0.00     0.000 A 
ATOM     25  C   UNL d   1      46.546 -13.623  44.506  0.00  0.00     0.000 A 
ATOM     26  C   UNL d   1      46.090 -14.311  44.650  0.00  0.00     0.002 A 
ENDBRANCH  20  21
ENDBRANCH   3  20
TORSDOF 3
ENDMDL
MODEL 3
REMARK VINA RESULT:      24.0      1.938      5.159
REMARK  3 active torsions:
REMARK  status: ('A' for Active; 'I' for Inactive)
REMARK    1  A    between atoms: C_5  and  C_1 
REMARK       I    between atoms: N_7  and  C_5 
REMARK    2  A    between atoms: C_15  and  N_10 
REMARK    3  A    between atoms: C_21  and  C_15 
ROOT
ATOM      1  C   UNL d   1      44.802 -14.664  44.666  0.00  0.00     0.270 C 
ATOM      2  N   UNL d   1      45.254 -15.377  44.670  0.00  0.00    -0.270 N 
ATOM      3  N   UNL d   1      46.158 -16.785  44.674  0.00  0.00    -0.300 N 
ATOM      4  O   UNL d   1      44.052 -14.685  44.937  0.00  0.00    -0.269 OA
ATOM      5  C   UNL d   1      44.918 -16.095  44.955  0.00  0.00     0.102 A 
ATOM      6  C   UNL d   1      46.037 -15.351  44.386  0.00  0.00     0.102 A 
ATOM      7  C   UNL d   1      45.366 -16.787  44.955  0.00  0.00     0.100 A 
ATOM      8  C   UNL d   1      46.493 -16.067  44.389  0.00  0.00     0.100 A 
ENDROOT
BRANCH   1   9
ATOM      9  C   UNL d   1      45.117 -13.989  44.399  0.00  0.00     0.191 A 
ATOM     10  O   UNL d   1      45.661 -14.023  44.954  0.00  0.00    -0.293 OA
ATOM     11  C   UNL d   1      45.976 -13.349  44.687  0.00  0.00     0.275 A 
ATOM     12  O   UNL d   1      46.598 -12.880  44.892  0.00  0.00    -0.264 OA
ATOM     13  C   UNL d   1      45.430 -13.299  44.116  0.00  0.00     0.099 A 
ATOM     14  C   UNL d   1      45.250 -12.799  43.519  0.00  0.00     0.047 A 
ATOM     15  C   UNL d   1      45.866 -12.659  43.996  0.00  0.00     0.014 C 
ATOM     16  C   UNL d   1      44.786 -13.622  43.767  0.00  0.00    -0.019 A 
ATOM     17  C   UNL d   1      45.697 -12.156  43.406  0.00  0.00     0.004 C 
ATOM     18  C   UNL d   1      44.697 -12.765  42.954  0.00  0.00     0.004 C 
ATOM     19  C   UNL d   1      44.478 -14.297  44.041  0.00  0.00     0.006 A 
ENDBRANCH   1   9
BRANCH   3  20
ATOM     20  C   UNL d   1      46.620 -17.495  44.673  0.00  0.00     0.080 C 
BRANCH  20  21
ATOM     21  C   UNL d   1      46.441 -18.115  44.134  0.00  0.00     0.018 A 
ATOM     22  C   UNL d   1      46.464 -17.973  43.308  0.00  0.00     0.002 A 
ATOM     23  C   UNL d   1      46.285 -18.590  42.757  0.00  0.00     0.000 A 
ATOM     24  C   UNL d   1      46.084 -19.354  43.060  0.00  0.00     0.000 A 
ATOM     25  C   UNL d   1      46.061 -19.497  43.889  0.00  0.00     0.000 A 
ATOM     26  C   UNL d   1      46.240 -18.878  44.424  0.00  0.00     0.002 A 
ENDBRANCH  20  21
ENDBRANCH   3  20
TORSDOF 3
ENDMDL
