MODEL 1
REMARK VINA RESULT:      18.0      0.000      0.000
REMARK  3 active torsions:
REMARK  status: ('A' for Active; 'I' for Inactive)
REMARK    1  A    between atoms: C_2  and  S_1 
REMARK    2  A    between atoms: N_3  and  S_1 
REMARK    3  A    between atoms: N_4  and  C_6 
ROOT
ATOM      1  C   UNL d   1      59.049  49.693  50.293  0.00  0.00     0.116 A 
ATOM      2  C   UNL d   1      59.378  49.693  51.059  0.00  0.00     0.037 A 
ATOM      3  C   UNL d   1      60.191  49.696  51.145  0.00  0.00     0.127 A 
ATOM      4  C   UNL d   1      59.544  49.696  49.623  0.00  0.00     0.070 A 
ATOM      5  C   UNL d   1      60.696  49.699  50.457  0.00  0.00     0.024 A 
ATOM      6  C   UNL d   1      60.363  49.699  49.719  0.00  0.00     0.014 A 
ATOM      7 CL   UNL d   1      59.197  49.695  48.944  0.00  0.00    -0.082 Cl
ENDROOT
BRANCH   1   8
ATOM      8  S   UNL d   1      58.206  49.689  50.206  0.00  0.00     0.273 S 
ATOM      9  O   UNL d   1      58.286  49.683  49.380  0.00  0.00    -0.200 OA
ATOM     10  O   UNL d   1      58.114  49.696  51.054  0.00  0.00    -0.200 OA
BRANCH   8  11
ATOM     11  N   UNL d   1      57.392  49.686  50.136  0.00  0.00    -0.210 N 
ATOM     12  C   UNL d   1      56.927  49.697  49.403  0.00  0.00     0.193 A 
ATOM     13  N   UNL d   1      56.122  49.689  49.637  0.00  0.00    -0.222 NA
ATOM     14  C   UNL d   1      56.092  49.673  50.483  0.00  0.00     0.120 A 
ATOM     15  C   UNL d   1      56.871  49.672  50.753  0.00  0.00     0.114 A 
ENDBRANCH   8  11
ENDBRANCH   1   8
BRANCH   3  16
ATOM     16  N   UNL d   1      60.507  49.696  51.898  0.00  0.00    -0.114 N 
ATOM     17  O   UNL d   1      60.089  49.688  52.585  0.00  0.00    -0.532 OA
ATOM     18  O   UNL d   1      61.317  49.706  52.043  0.00  0.00    -0.532 OA
ENDBRANCH   3  16
TORSDOF 3
ENDMDL
