MODEL 1
REMARK VINA RESULT:      -5.3      0.000      0.000
REMARK  6 active torsions:
REMARK  status: ('A' for Active; 'I' for Inactive)
REMARK    1  A    between atoms: N_2  and  S_1 
REMARK    2  A    between atoms: C_3  and  S_1 
REMARK    3  A    between atoms: C_9  and  N_2 
REMARK    4  A    between atoms: C_13  and  C_9 
REMARK    5  A    between atoms: O_14  and  C_10 
REMARK    6  A    between atoms: C_17  and  O_14 
ROOT
ATOM      1  S   UNL d   1      57.033  -0.375  31.356  0.00  0.00     0.285 S 
ATOM      2  O   UNL d   1      56.974  -1.193  31.436  0.00  0.00    -0.198 OA
ATOM      3  O   UNL d   1      57.091   0.444  31.275  0.00  0.00    -0.198 OA
ENDROOT
BRANCH   1   4
ATOM      4  N   UNL d   1      57.516  -0.474  30.694  0.00  0.00    -0.157 NA
BRANCH   4   5
ATOM      5  C   UNL d   1      58.141   0.049  30.555  0.00  0.00     0.112 C 
BRANCH   5   6
ATOM      6  C   UNL d   1      58.669  -0.093  29.938  0.00  0.00     0.023 A 
ATOM      7  C   UNL d   1      59.378   0.339  29.886  0.00  0.00     0.022 A 
ATOM      8  C   UNL d   1      59.906   0.196  29.269  0.00  0.00     0.099 A 
ATOM      9  N   UNL d   1      59.734  -0.371  28.705  0.00  0.00    -0.242 NA
ATOM     10  C   UNL d   1      59.032  -0.802  28.753  0.00  0.00     0.099 A 
ATOM     11  C   UNL d   1      58.497  -0.660  29.374  0.00  0.00     0.022 A 
ENDBRANCH   5   6
ENDBRANCH   4   5
ENDBRANCH   1   4
BRANCH   1  12
ATOM     12  C   UNL d   1      56.550  -0.275  32.017  0.00  0.00     0.105 A 
ATOM     13  C   UNL d   1      56.274  -0.935  32.428  0.00  0.00     0.015 A 
ATOM     14  C   UNL d   1      55.791  -0.836  33.090  0.00  0.00     0.025 A 
ATOM     15  C   UNL d   1      55.584  -0.075  33.340  0.00  0.00     0.100 A 
ATOM     16  C   UNL d   1      55.860   0.585  32.930  0.00  0.00     0.025 A 
ATOM     17  C   UNL d   1      56.343   0.485  32.268  0.00  0.00     0.015 A 
BRANCH  15  18
ATOM     18  O   UNL d   1      55.101   0.024  34.002  0.00  0.00    -0.305 OA
BRANCH  18  19
ATOM     19  C   UNL d   1      55.236   0.653  34.518  0.00  0.00     0.123 C 
ATOM     20  C   UNL d   1      54.870   0.665  35.261  0.00  0.00     0.029 C 
ENDBRANCH  18  19
ENDBRANCH  15  18
ENDBRANCH   1  12
TORSDOF 6
ENDMDL
MODEL 2
REMARK VINA RESULT:      -4.3      1.547      4.968
REMARK  6 active torsions:
REMARK  status: ('A' for Active; 'I' for Inactive)
REMARK    1  A    between atoms: N_2  and  S_1 
REMARK    2  A    between atoms: C_3  and  S_1 
REMARK    3  A    between atoms: C_9  and  N_2 
REMARK    4  A    between atoms: C_13  and  C_9 
REMARK    5  A    between atoms: O_14  and  C_10 
REMARK    6  A    between atoms: C_17  and  O_14 
ROOT
ATOM      1  S   UNL d   1      57.671   0.436  31.349  0.00  0.00     0.285 S 
ATOM      2  O   UNL d   1      58.217   0.682  31.916  0.00  0.00    -0.198 OA
ATOM      3  O   UNL d   1      57.124   0.190  30.783  0.00  0.00    -0.198 OA
ENDROOT
BRANCH   1   4
ATOM      4  N   UNL d   1      57.060   0.533  31.896  0.00  0.00    -0.157 NA
BRANCH   4   5
ATOM      5  C   UNL d   1      56.962  -0.012  32.510  0.00  0.00     0.112 C 
BRANCH   5   6
ATOM      6  C   UNL d   1      56.390   0.116  33.089  0.00  0.00     0.023 A 
ATOM      7  C   UNL d   1      56.592   0.501  33.799  0.00  0.00     0.022 A 
ATOM      8  C   UNL d   1      56.019   0.630  34.378  0.00  0.00     0.099 A 
ATOM      9  N   UNL d   1      55.250   0.379  34.257  0.00  0.00    -0.242 NA
ATOM     10  C   UNL d   1      55.045  -0.003  33.554  0.00  0.00     0.099 A 
ATOM     11  C   UNL d   1      55.621  -0.134  32.968  0.00  0.00     0.022 A 
ENDBRANCH   5   6
ENDBRANCH   4   5
ENDBRANCH   1   4
BRANCH   1  12
ATOM     12  C   UNL d   1      58.281   0.339  30.803  0.00  0.00     0.105 A 
ATOM     13  C   UNL d   1      58.153  -0.101  30.117  0.00  0.00     0.015 A 
ATOM     14  C   UNL d   1      58.763  -0.198  29.570  0.00  0.00     0.025 A 
ATOM     15  C   UNL d   1      59.502   0.145  29.710  0.00  0.00     0.100 A 
ATOM     16  C   UNL d   1      59.631   0.585  30.395  0.00  0.00     0.025 A 
ATOM     17  C   UNL d   1      59.021   0.682  30.942  0.00  0.00     0.015 A 
BRANCH  15  18
ATOM     18  O   UNL d   1      60.112   0.048  29.163  0.00  0.00    -0.305 OA
BRANCH  18  19
ATOM     19  C   UNL d   1      60.620  -0.599  29.224  0.00  0.00     0.123 C 
ATOM     20  C   UNL d   1      61.101  -0.811  28.584  0.00  0.00     0.029 C 
ENDBRANCH  18  19
ENDBRANCH  15  18
ENDBRANCH   1  12
TORSDOF 6
ENDMDL
MODEL 3
REMARK VINA RESULT:      -3.8      1.624      5.007
REMARK  6 active torsions:
REMARK  status: ('A' for Active; 'I' for Inactive)
REMARK    1  A    between atoms: N_2  and  S_1 
REMARK    2  A    between atoms: C_3  and  S_1 
REMARK    3  A    between atoms: C_9  and  N_2 
REMARK    4  A    between atoms: C_13  and  C_9 
REMARK    5  A    between atoms: O_14  and  C_10 
REMARK    6  A    between atoms: C_17  and  O_14 
ROOT
ATOM      1  S   UNL d   1      57.029   0.217  31.901  0.00  0.00     0.285 S 
ATOM      2  O   UNL d   1      56.478   0.659  31.478  0.00  0.00    -0.198 OA
ATOM      3  O   UNL d   1      57.580  -0.227  32.326  0.00  0.00    -0.198 OA
ENDROOT
BRANCH   1   4
ATOM      4  N   UNL d   1      56.622   0.379  32.601  0.00  0.00    -0.157 NA
BRANCH   4   5
ATOM      5  C   UNL d   1      55.871   0.057  32.729  0.00  0.00     0.112 C 
BRANCH   5   6
ATOM      6  C   UNL d   1      55.457   0.236  33.419  0.00  0.00     0.023 A 
ATOM      7  C   UNL d   1      54.671   0.504  33.378  0.00  0.00     0.022 A 
ATOM      8  C   UNL d   1      54.257   0.682  34.069  0.00  0.00     0.099 A 
ATOM      9  N   UNL d   1      54.619   0.596  34.798  0.00  0.00    -0.242 NA
ATOM     10  C   UNL d   1      55.399   0.330  34.843  0.00  0.00     0.099 A 
ATOM     11  C   UNL d   1      55.819   0.150  34.148  0.00  0.00     0.022 A 
ENDBRANCH   5   6
ENDBRANCH   4   5
ENDBRANCH   1   4
BRANCH   1  12
ATOM     12  C   UNL d   1      57.436   0.054  31.203  0.00  0.00     0.105 A 
ATOM     13  C   UNL d   1      57.699   0.673  30.726  0.00  0.00     0.015 A 
ATOM     14  C   UNL d   1      58.106   0.510  30.027  0.00  0.00     0.025 A 
ATOM     15  C   UNL d   1      58.250  -0.273  29.805  0.00  0.00     0.100 A 
ATOM     16  C   UNL d   1      57.987  -0.893  30.282  0.00  0.00     0.025 A 
ATOM     17  C   UNL d   1      57.580  -0.730  30.981  0.00  0.00     0.015 A 
BRANCH  15  18
ATOM     18  O   UNL d   1      58.657  -0.436  29.107  0.00  0.00    -0.305 OA
BRANCH  18  19
ATOM     19  C   UNL d   1      59.173  -1.079  29.072  0.00  0.00     0.123 C 
ATOM     20  C   UNL d   1      59.738  -1.125  28.467  0.00  0.00     0.029 C 
ENDBRANCH  18  19
ENDBRANCH  15  18
ENDBRANCH   1  12
TORSDOF 6
ENDMDL
MODEL 4
REMARK VINA RESULT:      -2.7      9.565     10.351
REMARK  6 active torsions:
REMARK  status: ('A' for Active; 'I' for Inactive)
REMARK    1  A    between atoms: N_2  and  S_1 
REMARK    2  A    between atoms: C_3  and  S_1 
REMARK    3  A    between atoms: C_9  and  N_2 
REMARK    4  A    between atoms: C_13  and  C_9 
REMARK    5  A    between atoms: O_14  and  C_10 
REMARK    6  A    between atoms: C_17  and  O_14 
ROOT
ATOM      1  S   UNL d   1      58.591  -9.701  32.610  0.00  0.00     0.285 S 
ATOM      2  O   UNL d   1      59.371  -9.818  32.371  0.00  0.00    -0.198 OA
ATOM      3  O   UNL d   1      57.810  -9.584  32.848  0.00  0.00    -0.198 OA
ENDROOT
BRANCH   1   4
ATOM      4  N   UNL d   1      58.835  -9.672  33.397  0.00  0.00    -0.157 NA
BRANCH   4   5
ATOM      5  C   UNL d   1      59.415  -9.131  33.632  0.00  0.00     0.112 C 
BRANCH   5   6
ATOM      6  C   UNL d   1      59.568  -9.011  34.434  0.00  0.00     0.023 A 
ATOM      7  C   UNL d   1      59.951  -8.318  34.688  0.00  0.00     0.022 A 
ATOM      8  C   UNL d   1      60.104  -8.199  35.489  0.00  0.00     0.099 A 
ATOM      9  N   UNL d   1      59.880  -8.763  36.037  0.00  0.00    -0.242 NA
ATOM     10  C   UNL d   1      59.501  -9.453  35.790  0.00  0.00     0.099 A 
ATOM     11  C   UNL d   1      59.345  -9.576  34.982  0.00  0.00     0.022 A 
ENDBRANCH   5   6
ENDBRANCH   4   5
ENDBRANCH   1   4
BRANCH   1  12
ATOM     12  C   UNL d   1      58.346  -9.730  31.823  0.00  0.00     0.105 A 
ATOM     13  C   UNL d   1      57.541  -9.770  31.644  0.00  0.00     0.015 A 
ATOM     14  C   UNL d   1      57.296  -9.799  30.856  0.00  0.00     0.025 A 
ATOM     15  C   UNL d   1      57.856  -9.788  30.248  0.00  0.00     0.100 A 
ATOM     16  C   UNL d   1      58.660  -9.749  30.427  0.00  0.00     0.025 A 
ATOM     17  C   UNL d   1      58.905  -9.720  31.214  0.00  0.00     0.015 A 
BRANCH  15  18
ATOM     18  O   UNL d   1      57.611  -9.818  29.461  0.00  0.00    -0.305 OA
BRANCH  18  19
ATOM     19  C   UNL d   1      56.979  -9.350  29.209  0.00  0.00     0.123 C 
ATOM     20  C   UNL d   1      56.614  -9.503  28.482  0.00  0.00     0.029 C 
ENDBRANCH  18  19
ENDBRANCH  15  18
ENDBRANCH   1  12
TORSDOF 6
ENDMDL
MODEL 5
REMARK VINA RESULT:      -2.5      1.657      2.270
REMARK  6 active torsions:
REMARK  status: ('A' for Active; 'I' for Inactive)
REMARK    1  A    between atoms: N_2  and  S_1 
REMARK    2  A    between atoms: C_3  and  S_1 
REMARK    3  A    between atoms: C_9  and  N_2 
REMARK    4  A    between atoms: C_13  and  C_9 
REMARK    5  A    between atoms: O_14  and  C_10 
REMARK    6  A    between atoms: C_17  and  O_14 
ROOT
ATOM      1  S   UNL d   1      58.393  -0.755  30.162  0.00  0.00     0.285 S 
ATOM      2  O   UNL d   1      58.990  -0.666  30.723  0.00  0.00    -0.198 OA
ATOM      3  O   UNL d   1      57.795  -0.844  29.601  0.00  0.00    -0.198 OA
ENDROOT
BRANCH   1   4
ATOM      4  N   UNL d   1      58.942  -1.054  29.624  0.00  0.00    -0.157 NA
BRANCH   4   5
ATOM      5  C   UNL d   1      59.098  -1.866  29.599  0.00  0.00     0.112 C 
BRANCH   5   6
ATOM      6  C   UNL d   1      59.774  -2.145  29.218  0.00  0.00     0.023 A 
ATOM      7  C   UNL d   1      59.815  -2.937  28.965  0.00  0.00     0.022 A 
ATOM      8  C   UNL d   1      60.492  -3.216  28.585  0.00  0.00     0.099 A 
ATOM      9  N   UNL d   1      61.125  -2.714  28.455  0.00  0.00    -0.242 NA
ATOM     10  C   UNL d   1      61.089  -1.928  28.704  0.00  0.00     0.099 A 
ATOM     11  C   UNL d   1      60.407  -1.644  29.088  0.00  0.00     0.022 A 
ENDBRANCH   5   6
ENDBRANCH   4   5
ENDBRANCH   1   4
BRANCH   1  12
ATOM     12  C   UNL d   1      57.843  -0.455  30.699  0.00  0.00     0.105 A 
ATOM     13  C   UNL d   1      57.321  -0.967  31.082  0.00  0.00     0.015 A 
ATOM     14  C   UNL d   1      56.771  -0.668  31.619  0.00  0.00     0.025 A 
ATOM     15  C   UNL d   1      56.743   0.144  31.774  0.00  0.00     0.100 A 
ATOM     16  C   UNL d   1      57.265   0.656  31.391  0.00  0.00     0.025 A 
ATOM     17  C   UNL d   1      57.815   0.357  30.854  0.00  0.00     0.015 A 
BRANCH  15  18
ATOM     18  O   UNL d   1      56.193   0.443  32.311  0.00  0.00    -0.305 OA
BRANCH  18  19
ATOM     19  C   UNL d   1      56.098   0.082  33.046  0.00  0.00     0.123 C 
ATOM     20  C   UNL d   1      55.414   0.223  33.492  0.00  0.00     0.029 C 
ENDBRANCH  18  19
ENDBRANCH  15  18
ENDBRANCH   1  12
TORSDOF 6
ENDMDL
