MODEL 1
REMARK VINA RESULT:      -2.4      0.000      0.000
REMARK  10 active torsions:
REMARK  status: ('A' for Active; 'I' for Inactive)
REMARK    1  A    between atoms: C_4  and  N_1 
REMARK    2  A    between atoms: C_10  and  C_2 
REMARK    3  A    between atoms: N_16  and  C_4 
REMARK    4  A    between atoms: O_22  and  C_8 
REMARK    5  A    between atoms: O_15  and  C_10 
REMARK    6  A    between atoms: O_23  and  C_11 
REMARK    7  A    between atoms: C_14  and  O_15 
REMARK    8  A    between atoms: C_25  and  N_16 
REMARK    9  A    between atoms: O_24  and  C_28 
REMARK   10  A    between atoms: C_28  and  C_25 
ROOT
ATOM      1  N   UNL d   1     -41.336  14.126  19.914  0.00  0.00    -0.280 N 
ATOM      2  C   UNL d   1     -40.552  14.383  19.957  0.00  0.00     0.091 A 
ATOM      3  C   UNL d   1     -40.123  14.490  19.270  0.00  0.00     0.020 A 
ATOM      4  C   UNL d   1     -40.469  14.343  18.537  0.00  0.00     0.005 A 
ATOM      5  C   UNL d   1     -39.344  14.745  19.315  0.00  0.00     0.028 A 
ATOM      6  C   UNL d   1     -41.681  13.979  19.180  0.00  0.00     0.082 A 
ATOM      7  C   UNL d   1     -38.907  14.855  18.624  0.00  0.00     0.116 A 
ATOM      8  C   UNL d   1     -40.035  14.451  17.847  0.00  0.00     0.026 A 
ATOM      9  C   UNL d   1     -39.252  14.708  17.891  0.00  0.00     0.116 A 
ATOM     10  C   UNL d   1     -41.244  14.089  18.489  0.00  0.00     0.019 A 
ENDROOT
BRANCH   2  11
ATOM     11  C   UNL d   1     -40.207  14.530  20.691  0.00  0.00     0.140 C 
BRANCH  11  12
ATOM     12  O   UNL d   1     -39.452  14.240  20.857  0.00  0.00    -0.304 OA
BRANCH  12  13
ATOM     13  C   UNL d   1     -39.154  14.283  21.625  0.00  0.00     0.100 A 
ATOM     14  C   UNL d   1     -38.903  13.597  22.008  0.00  0.00     0.025 A 
ATOM     15  C   UNL d   1     -38.605  13.640  22.776  0.00  0.00     0.002 A 
ATOM     16  C   UNL d   1     -38.350  12.954  23.167  0.00  0.00     0.000 C 
ATOM     17  C   UNL d   1     -38.557  14.367  23.160  0.00  0.00     0.000 A 
ATOM     18  C   UNL d   1     -38.808  15.054  22.777  0.00  0.00     0.002 A 
ATOM     19  C   UNL d   1     -39.107  15.012  22.009  0.00  0.00     0.025 A 
ATOM     20  C   UNL d   1     -38.756  15.784  23.174  0.00  0.00     0.000 C 
ENDBRANCH  12  13
ENDBRANCH  11  12
ENDBRANCH   2  11
BRANCH   1  21
ATOM     21  C   UNL d   1     -41.780  14.015  20.609  0.00  0.00     0.206 C 
ATOM     22  S   UNL d   1     -42.102  14.675  21.003  0.00  0.00    -0.038 SA
BRANCH  21  23
ATOM     23  N   UNL d   1     -41.900  13.261  20.901  0.00  0.00    -0.215 NA
BRANCH  23  24
ATOM     24  C   UNL d   1     -42.623  13.057  21.240  0.00  0.00     0.128 C 
BRANCH  24  25
ATOM     25  C   UNL d   1     -42.683  12.382  21.711  0.00  0.00     0.137 C 
BRANCH  25  26
ATOM     26  O   UNL d   1     -43.382  12.213  22.094  0.00  0.00    -0.325 OA
ATOM     27  C   UNL d   1     -43.445  11.538  22.557  0.00  0.00     0.182 C 
ENDBRANCH  25  26
ENDBRANCH  24  25
ENDBRANCH  23  24
ENDBRANCH  21  23
ENDBRANCH   1  21
BRANCH   7  28
ATOM     28  O   UNL d   1     -38.120  15.113  18.665  0.00  0.00    -0.326 OA
ATOM     29  C   UNL d   1     -37.944  15.922  18.754  0.00  0.00     0.181 C 
ENDBRANCH   7  28
BRANCH   9  30
ATOM     30  O   UNL d   1     -38.811  14.819  17.197  0.00  0.00    -0.326 OA
ATOM     31  C   UNL d   1     -38.817  14.241  16.597  0.00  0.00     0.181 C 
ENDBRANCH   9  30
TORSDOF 10
ENDMDL
