MODEL 1
REMARK VINA RESULT:      48.8      0.000      0.000
REMARK  4 active torsions:
REMARK  status: ('A' for Active; 'I' for Inactive)
REMARK    1  A    between atoms: N_2  and  C_1 
REMARK       I    between atoms: C_3  and  N_2 
REMARK    2  A    between atoms: C_6  and  C_3 
REMARK    3  A    between atoms: C_11  and  C_7 
REMARK    4  A    between atoms: C_10  and  C_11 
ROOT
ATOM      1  C   UNL d   1     -55.067-101.718 -41.818  0.00  0.00     0.197 A 
ATOM      2  N   UNL d   1     -55.535-102.114 -42.343  0.00  0.00    -0.219 NA
ATOM      3  S   UNL d   1     -54.711-101.077 -42.216  0.00  0.00    -0.047 SA
ATOM      4  C   UNL d   1     -54.978-101.099 -42.994  0.00  0.00     0.051 A 
ATOM      5  C   UNL d   1     -55.487-101.733 -43.089  0.00  0.00     0.108 A 
ENDROOT
BRANCH   1   6
ATOM      6  N   UNL d   1     -54.963-101.922 -41.013  0.00  0.00    -0.182 NA
ATOM      7  C   UNL d   1     -55.548-102.315 -40.599  0.00  0.00     0.287 C 
ATOM      8  O   UNL d   1     -56.238-102.506 -40.982  0.00  0.00    -0.265 OA
BRANCH   7   9
ATOM      9  C   UNL d   1     -55.444-102.510 -39.822  0.00  0.00     0.087 A 
ATOM     10  S   UNL d   1     -54.712-102.465 -39.487  0.00  0.00    -0.082 SA
ATOM     11  C   UNL d   1     -54.789-102.700 -38.689  0.00  0.00     0.036 A 
ATOM     12  C   UNL d   1     -55.536-102.879 -38.548  0.00  0.00     0.008 A 
ATOM     13  C   UNL d   1     -55.977-102.769 -39.246  0.00  0.00     0.012 A 
ENDBRANCH   7   9
ENDBRANCH   1   6
BRANCH   4  14
ATOM     14  C   UNL d   1     -54.833-100.632 -43.643  0.00  0.00     0.009 C 
BRANCH  14  15
ATOM     15  C   UNL d   1     -55.453-100.166 -43.964  0.00  0.00     0.011 A 
ATOM     16  C   UNL d   1     -55.428 -99.348 -43.891  0.00  0.00     0.058 A 
ATOM     17 CL   UNL d   1     -54.795 -98.974 -43.502  0.00  0.00    -0.082 Cl
ATOM     18  C   UNL d   1     -56.050 -98.878 -44.212  0.00  0.00     0.011 A 
ATOM     19  C   UNL d   1     -56.672 -99.224 -44.593  0.00  0.00     0.001 A 
ATOM     20  C   UNL d   1     -56.712-100.047 -44.675  0.00  0.00     0.000 A 
ATOM     21  C   UNL d   1     -56.092-100.515 -44.354  0.00  0.00     0.001 A 
ENDBRANCH  14  15
ENDBRANCH   4  14
TORSDOF 4
ENDMDL
MODEL 2
REMARK VINA RESULT:      50.5      1.018      1.290
REMARK  4 active torsions:
REMARK  status: ('A' for Active; 'I' for Inactive)
REMARK    1  A    between atoms: N_2  and  C_1 
REMARK       I    between atoms: C_3  and  N_2 
REMARK    2  A    between atoms: C_6  and  C_3 
REMARK    3  A    between atoms: C_11  and  C_7 
REMARK    4  A    between atoms: C_10  and  C_11 
ROOT
ATOM      1  C   UNL d   1     -54.935-101.661 -42.968  0.00  0.00     0.197 A 
ATOM      2  N   UNL d   1     -54.820-101.976 -43.702  0.00  0.00    -0.219 NA
ATOM      3  S   UNL d   1     -54.928-100.830 -43.035  0.00  0.00    -0.047 SA
ATOM      4  C   UNL d   1     -54.806-100.654 -43.830  0.00  0.00     0.051 A 
ATOM      5  C   UNL d   1     -54.737-101.350 -44.255  0.00  0.00     0.108 A 
ENDROOT
BRANCH   1   6
ATOM      6  N   UNL d   1     -55.041-102.101 -42.264  0.00  0.00    -0.182 NA
ATOM      7  C   UNL d   1     -55.249-101.731 -41.564  0.00  0.00     0.287 C 
ATOM      8  O   UNL d   1     -55.350-100.926 -41.562  0.00  0.00    -0.265 OA
BRANCH   7   9
ATOM      9  C   UNL d   1     -55.351-102.159 -40.887  0.00  0.00     0.087 A 
ATOM     10  S   UNL d   1     -54.714-102.470 -40.502  0.00  0.00    -0.082 SA
ATOM     11  C   UNL d   1     -55.002-102.875 -39.831  0.00  0.00     0.036 A 
ATOM     12  C   UNL d   1     -55.779-102.811 -39.810  0.00  0.00     0.008 A 
ATOM     13  C   UNL d   1     -56.032-102.364 -40.466  0.00  0.00     0.012 A 
ENDBRANCH   7   9
ENDBRANCH   1   6
BRANCH   4  14
ATOM     14  C   UNL d   1     -54.746 -99.955 -44.241  0.00  0.00     0.009 C 
BRANCH  14  15
ATOM     15  C   UNL d   1     -55.443 -99.554 -44.480  0.00  0.00     0.011 A 
ATOM     16  C   UNL d   1     -55.530 -99.317 -45.261  0.00  0.00     0.058 A 
ATOM     17 CL   UNL d   1     -54.934 -99.470 -45.822  0.00  0.00    -0.082 Cl
ATOM     18  C   UNL d   1     -56.229 -98.914 -45.504  0.00  0.00     0.011 A 
ATOM     19  C   UNL d   1     -56.818 -98.757 -44.974  0.00  0.00     0.001 A 
ATOM     20  C   UNL d   1     -56.746 -98.990 -44.182  0.00  0.00     0.000 A 
ATOM     21  C   UNL d   1     -56.048 -99.391 -43.942  0.00  0.00     0.001 A 
ENDBRANCH  14  15
ENDBRANCH   4  14
TORSDOF 4
ENDMDL
