MODEL 1
REMARK VINA RESULT:      85.6      0.000      0.000
REMARK  6 active torsions:
REMARK  status: ('A' for Active; 'I' for Inactive)
REMARK    1  A    between atoms: C_9  and  N_2 
REMARK       I    between atoms: N_5  and  C_6 
REMARK    2  A    between atoms: C_6  and  C_10 
REMARK    3  A    between atoms: C_11  and  N_7 
REMARK    4  A    between atoms: C_10  and  C_9 
REMARK    5  A    between atoms: C_18  and  C_11 
REMARK    6  A    between atoms: C_19  and  C_11 
ROOT
ATOM      1  N   UNL d   1     -48.702  27.530  34.492  0.00  0.00    -0.269 N 
ATOM      2  C   UNL d   1     -48.045  27.953  34.747  0.00  0.00     0.266 C 
ATOM      3  N   UNL d   1     -50.032  26.680  33.979  0.00  0.00    -0.301 N 
ATOM      4  C   UNL d   1     -49.465  27.800  34.682  0.00  0.00     0.102 A 
ATOM      5  C   UNL d   1     -48.609  26.845  34.052  0.00  0.00     0.102 A 
ATOM      6  C   UNL d   1     -49.274  26.420  33.795  0.00  0.00     0.100 A 
ATOM      7  C   UNL d   1     -50.124  27.381  34.430  0.00  0.00     0.100 A 
ATOM      8  O   UNL d   1     -47.287  27.684  34.557  0.00  0.00    -0.267 OA
ENDROOT
BRANCH   2   9
ATOM      9  C   UNL d   1     -48.136  28.642  35.190  0.00  0.00     0.080 C 
BRANCH   9  10
ATOM     10  C   UNL d   1     -47.486  29.113  35.366  0.00  0.00     0.090 C 
BRANCH  10  11
ATOM     11  N   UNL d   1     -47.592  29.896  35.599  0.00  0.00    -0.251 N 
ATOM     12  C   UNL d   1     -47.707  30.163  36.368  0.00  0.00     0.378 A 
ATOM     13  O   UNL d   1     -47.779  30.977  36.276  0.00  0.00    -0.258 OA
ATOM     14  O   UNL d   1     -47.737  29.690  37.044  0.00  0.00    -0.237 OA
ATOM     15  C   UNL d   1     -47.721  31.223  35.559  0.00  0.00     0.121 A 
ATOM     16  C   UNL d   1     -47.756  31.971  35.203  0.00  0.00     0.026 A 
ATOM     17  C   UNL d   1     -47.600  30.551  35.095  0.00  0.00     0.092 A 
ATOM     18  C   UNL d   1     -47.669  32.045  34.381  0.00  0.00     0.002 A 
ATOM     19  C   UNL d   1     -47.548  31.365  33.927  0.00  0.00     0.002 A 
ATOM     20  C   UNL d   1     -47.514  30.621  34.286  0.00  0.00     0.020 A 
ENDBRANCH  10  11
ENDBRANCH   9  10
ENDBRANCH   2   9
BRANCH   3  21
ATOM     21  C   UNL d   1     -50.707  26.264  33.728  0.00  0.00     0.064 C 
BRANCH  21  22
ATOM     22  C   UNL d   1     -50.685  25.449  33.621  0.00  0.00     0.016 A 
ATOM     23  C   UNL d   1     -49.974  25.080  33.425  0.00  0.00     0.001 A 
ATOM     24  C   UNL d   1     -49.953  24.265  33.317  0.00  0.00     0.000 A 
ATOM     25  C   UNL d   1     -50.642  23.819  33.405  0.00  0.00     0.000 A 
ATOM     26  C   UNL d   1     -51.349  24.189  33.601  0.00  0.00     0.000 A 
ATOM     27  C   UNL d   1     -51.370  25.005  33.708  0.00  0.00     0.001 A 
ENDBRANCH  21  22
BRANCH  21  28
ATOM     28  C   UNL d   1     -51.408  26.686  33.587  0.00  0.00     0.016 A 
ATOM     29  C   UNL d   1     -52.109  26.262  33.448  0.00  0.00     0.001 A 
ATOM     30  C   UNL d   1     -52.810  26.684  33.307  0.00  0.00     0.000 A 
ATOM     31  C   UNL d   1     -52.806  27.506  33.306  0.00  0.00     0.000 A 
ATOM     32  C   UNL d   1     -52.102  27.915  33.445  0.00  0.00     0.000 A 
ATOM     33  C   UNL d   1     -51.401  27.505  33.587  0.00  0.00     0.001 A 
ENDBRANCH  21  28
ENDBRANCH   3  21
TORSDOF 6
ENDMDL
