MODEL 1
REMARK VINA RESULT:      45.3      0.000      0.000
REMARK  5 active torsions:
REMARK  status: ('A' for Active; 'I' for Inactive)
REMARK    1  A    between atoms: N_2  and  S_1 
REMARK    2  A    between atoms: C_3  and  S_1 
REMARK    3  A    between atoms: C_10  and  C_3 
REMARK    4  A    between atoms: C_9  and  N_4 
REMARK    5  A    between atoms: C_16  and  C_10 
ROOT
ATOM      1  N   UNL d   1      14.300  13.236  -2.393  0.00  0.00    -0.226 N 
ATOM      2  N   UNL d   1      14.733  14.636  -1.670  0.00  0.00    -0.301 N 
ATOM      3  C   UNL d   1      14.056  13.946  -2.716  0.00  0.00     0.111 A 
ATOM      4  C   UNL d   1      14.762  13.213  -1.708  0.00  0.00     0.111 A 
ATOM      5  C   UNL d   1      14.271  14.655  -2.356  0.00  0.00     0.100 A 
ATOM      6  C   UNL d   1      14.982  13.917  -1.341  0.00  0.00     0.100 A 
ENDROOT
BRANCH   1   7
ATOM      7  S   UNL d   1      14.076  12.516  -2.768  0.00  0.00     0.272 S 
ATOM      8  O   UNL d   1      13.389  12.882  -3.052  0.00  0.00    -0.200 OA
ATOM      9  O   UNL d   1      14.773  12.151  -2.478  0.00  0.00    -0.200 OA
BRANCH   7  10
ATOM     10  C   UNL d   1      13.862  11.797  -3.137  0.00  0.00     0.116 C 
BRANCH  10  11
ATOM     11  C   UNL d   1      13.228  11.789  -3.668  0.00  0.00     0.014 C 
BRANCH  11  12
ATOM     12  C   UNL d   1      13.383  11.810  -4.477  0.00  0.00     0.001 A 
ATOM     13  C   UNL d   1      14.181  11.779  -4.766  0.00  0.00     0.000 A 
ATOM     14  C   UNL d   1      14.326  11.800  -5.581  0.00  0.00     0.000 A 
ATOM     15  C   UNL d   1      13.674  11.851  -6.115  0.00  0.00     0.000 A 
ATOM     16  C   UNL d   1      12.907  11.880  -5.836  0.00  0.00     0.000 A 
ATOM     17  C   UNL d   1      12.769  11.859  -5.012  0.00  0.00     0.000 A 
ENDBRANCH  11  12
ENDBRANCH  10  11
ENDBRANCH   7  10
ENDBRANCH   1   7
BRANCH   2  18
ATOM     18  C   UNL d   1      14.950  15.355  -1.306  0.00  0.00     0.064 A 
ATOM     19  C   UNL d   1      15.163  15.366  -0.511  0.00  0.00     0.020 A 
ATOM     20  C   UNL d   1      15.376  16.079  -0.159  0.00  0.00     0.031 A 
ATOM     21  C   UNL d   1      15.375  16.771  -0.601  0.00  0.00     0.140 A 
ATOM     22  C   UNL d   1      15.160  16.766  -1.405  0.00  0.00     0.031 A 
ATOM     23  F   UNL d   1      15.594  17.509  -0.240  0.00  0.00    -0.204 F 
ATOM     24  C   UNL d   1      14.947  16.050  -1.755  0.00  0.00     0.020 A 
ENDBRANCH   2  18
TORSDOF 5
ENDMDL
MODEL 2
REMARK VINA RESULT:      45.6      3.938      4.531
REMARK  5 active torsions:
REMARK  status: ('A' for Active; 'I' for Inactive)
REMARK    1  A    between atoms: N_2  and  S_1 
REMARK    2  A    between atoms: C_3  and  S_1 
REMARK    3  A    between atoms: C_10  and  C_3 
REMARK    4  A    between atoms: C_9  and  N_4 
REMARK    5  A    between atoms: C_16  and  C_10 
ROOT
ATOM      1  N   UNL d   1      13.931  16.029  -5.304  0.00  0.00    -0.226 N 
ATOM      2  N   UNL d   1      14.071  17.616  -5.666  0.00  0.00    -0.301 N 
ATOM      3  C   UNL d   1      14.290  16.532  -4.769  0.00  0.00     0.111 A 
ATOM      4  C   UNL d   1      13.638  16.309  -6.024  0.00  0.00     0.111 A 
ATOM      5  C   UNL d   1      14.364  17.334  -4.946  0.00  0.00     0.100 A 
ATOM      6  C   UNL d   1      13.707  17.108  -6.210  0.00  0.00     0.100 A 
ENDROOT
BRANCH   1   7
ATOM      7  S   UNL d   1      13.860  15.212  -5.114  0.00  0.00     0.272 S 
ATOM      8  O   UNL d   1      13.968  15.392  -4.313  0.00  0.00    -0.200 OA
ATOM      9  O   UNL d   1      13.752  15.036  -5.927  0.00  0.00    -0.200 OA
BRANCH   7  10
ATOM     10  C   UNL d   1      13.789  14.398  -4.936  0.00  0.00     0.116 C 
BRANCH  10  11
ATOM     11  C   UNL d   1      13.125  14.134  -4.519  0.00  0.00     0.014 C 
BRANCH  11  12
ATOM     12  C   UNL d   1      13.100  13.352  -4.259  0.00  0.00     0.001 A 
ATOM     13  C   UNL d   1      12.795  12.740  -4.762  0.00  0.00     0.000 A 
ATOM     14  C   UNL d   1      12.774  11.957  -4.492  0.00  0.00     0.000 A 
ATOM     15  C   UNL d   1      13.057  11.780  -3.717  0.00  0.00     0.000 A 
ATOM     16  C   UNL d   1      13.350  12.370  -3.235  0.00  0.00     0.000 A 
ATOM     17  C   UNL d   1      13.368  13.158  -3.514  0.00  0.00     0.000 A 
ENDBRANCH  11  12
ENDBRANCH  10  11
ENDBRANCH   7  10
ENDBRANCH   1   7
BRANCH   2  18
ATOM     18  C   UNL d   1      14.146  18.429  -5.844  0.00  0.00     0.064 A 
ATOM     19  C   UNL d   1      13.528  18.828  -6.213  0.00  0.00     0.020 A 
ATOM     20  C   UNL d   1      13.609  19.629  -6.386  0.00  0.00     0.031 A 
ATOM     21  C   UNL d   1      14.303  20.022  -6.191  0.00  0.00     0.140 A 
ATOM     22  C   UNL d   1      14.932  19.624  -5.818  0.00  0.00     0.031 A 
ATOM     23  F   UNL d   1      14.390  20.849  -6.368  0.00  0.00    -0.204 F 
ATOM     24  C   UNL d   1      14.847  18.821  -5.646  0.00  0.00     0.020 A 
ENDBRANCH   2  18
TORSDOF 5
ENDMDL
MODEL 3
REMARK VINA RESULT:      48.2      4.327      5.911
REMARK  5 active torsions:
REMARK  status: ('A' for Active; 'I' for Inactive)
REMARK    1  A    between atoms: N_2  and  S_1 
REMARK    2  A    between atoms: C_3  and  S_1 
REMARK    3  A    between atoms: C_10  and  C_3 
REMARK    4  A    between atoms: C_9  and  N_4 
REMARK    5  A    between atoms: C_16  and  C_10 
ROOT
ATOM      1  N   UNL d   1      13.883  16.179  -5.339  0.00  0.00    -0.226 N 
ATOM      2  N   UNL d   1      13.521  14.731  -4.674  0.00  0.00    -0.301 N 
ATOM      3  C   UNL d   1      13.632  15.568  -5.820  0.00  0.00     0.111 A 
ATOM      4  C   UNL d   1      13.957  16.078  -4.522  0.00  0.00     0.111 A 
ATOM      5  C   UNL d   1      13.448  14.836  -5.491  0.00  0.00     0.100 A 
ATOM      6  C   UNL d   1      13.775  15.349  -4.183  0.00  0.00     0.100 A 
ENDROOT
BRANCH   1   7
ATOM      7  S   UNL d   1      14.069  16.924  -5.685  0.00  0.00     0.272 S 
ATOM      8  O   UNL d   1      13.439  16.832  -6.214  0.00  0.00    -0.200 OA
ATOM      9  O   UNL d   1      14.707  17.011  -5.147  0.00  0.00    -0.200 OA
BRANCH   7  10
ATOM     10  C   UNL d   1      14.262  17.664  -6.022  0.00  0.00     0.116 C 
BRANCH  10  11
ATOM     11  C   UNL d   1      13.654  18.194  -6.205  0.00  0.00     0.014 C 
BRANCH  11  12
ATOM     12  C   UNL d   1      13.817  19.001  -6.223  0.00  0.00     0.001 A 
ATOM     13  C   UNL d   1      14.610  19.285  -6.112  0.00  0.00     0.000 A 
ATOM     14  C   UNL d   1      14.764  20.098  -6.132  0.00  0.00     0.000 A 
ATOM     15  C   UNL d   1      14.126  20.636  -6.262  0.00  0.00     0.000 A 
ATOM     16  C   UNL d   1      13.364  20.362  -6.368  0.00  0.00     0.000 A 
ATOM     17  C   UNL d   1      13.217  19.539  -6.347  0.00  0.00     0.000 A 
ENDBRANCH  11  12
ENDBRANCH  10  11
ENDBRANCH   7  10
ENDBRANCH   1   7
BRANCH   2  18
ATOM     18  C   UNL d   1      13.334  13.989  -4.340  0.00  0.00     0.064 A 
ATOM     19  C   UNL d   1      12.964  13.414  -4.798  0.00  0.00     0.020 A 
ATOM     20  C   UNL d   1      12.783  12.683  -4.463  0.00  0.00     0.031 A 
ATOM     21  C   UNL d   1      12.971  12.536  -3.677  0.00  0.00     0.140 A 
ATOM     22  C   UNL d   1      13.345  13.113  -3.209  0.00  0.00     0.031 A 
ATOM     23  F   UNL d   1      12.785  11.783  -3.328  0.00  0.00    -0.204 F 
ATOM     24  C   UNL d   1      13.525  13.844  -3.548  0.00  0.00     0.020 A 
ENDBRANCH   2  18
TORSDOF 5
ENDMDL
