MODEL 1
REMARK VINA RESULT:      -4.9      0.000      0.000
REMARK  6 active torsions:
REMARK  status: ('A' for Active; 'I' for Inactive)
REMARK    1  A    between atoms: C_13  and  C_3 
REMARK    2  A    between atoms: S_12  and  C_4 
REMARK    3  A    between atoms: C_8  and  C_6 
REMARK    4  A    between atoms: O_17  and  C_8 
REMARK    5  A    between atoms: C_10  and  C_16 
REMARK    6  A    between atoms: C_16  and  S_12 
ROOT
ATOM      1  O   UNL d   1      58.312  -0.371  30.227  0.00  0.00    -0.263 OA
ATOM      2  N   UNL d   1      58.208   0.299  29.079  0.00  0.00    -0.120 NA
ATOM      3  C   UNL d   1      58.597  -0.316  29.449  0.00  0.00     0.205 A 
ATOM      4  C   UNL d   1      57.743   0.222  30.324  0.00  0.00     0.236 A 
ATOM      5  N   UNL d   1      57.679   0.634  29.618  0.00  0.00    -0.114 NA
ENDROOT
BRANCH   4   6
ATOM      6  S   UNL d   1      57.304   0.381  31.016  0.00  0.00    -0.039 SA
BRANCH   6   7
ATOM      7  C   UNL d   1      57.423  -0.073  31.695  0.00  0.00     0.064 C 
BRANCH   7   8
ATOM      8  C   UNL d   1      56.817  -0.145  32.248  0.00  0.00     0.107 A 
ATOM      9  O   UNL d   1      56.454   0.404  32.749  0.00  0.00    -0.301 OA
ATOM     10  C   UNL d   1      55.869   0.002  33.188  0.00  0.00     0.163 A 
ATOM     11  C   UNL d   1      55.881  -0.785  32.952  0.00  0.00     0.032 A 
ATOM     12  C   UNL d   1      56.455  -0.882  32.380  0.00  0.00     0.027 A 
BRANCH  10  13
ATOM     13  C   UNL d   1      55.368   0.335  33.758  0.00  0.00     0.319 C 
ATOM     14  O   UNL d   1      54.652   0.682  33.524  0.00  0.00    -0.257 OA
BRANCH  13  15
ATOM     15  O   UNL d   1      55.574   0.324  34.558  0.00  0.00    -0.294 OA
ATOM     16  C   UNL d   1      55.077   0.664  35.127  0.00  0.00     0.185 C 
ENDBRANCH  13  15
ENDBRANCH  10  13
ENDBRANCH   7   8
ENDBRANCH   6   7
ENDBRANCH   4   6
BRANCH   3  17
ATOM     17  C   UNL d   1      59.177  -0.827  29.156  0.00  0.00     0.046 A 
ATOM     18  C   UNL d   1      58.964  -1.576  28.897  0.00  0.00     0.024 A 
ATOM     19  C   UNL d   1      59.537  -2.092  28.604  0.00  0.00     0.099 A 
ATOM     20  N   UNL d   1      60.328  -1.859  28.567  0.00  0.00    -0.242 NA
ATOM     21  C   UNL d   1      60.542  -1.101  28.829  0.00  0.00     0.099 A 
ATOM     22  C   UNL d   1      59.967  -0.592  29.120  0.00  0.00     0.024 A 
ENDBRANCH   3  17
TORSDOF 6
ENDMDL
MODEL 2
REMARK VINA RESULT:      -4.6      1.865      5.617
REMARK  6 active torsions:
REMARK  status: ('A' for Active; 'I' for Inactive)
REMARK    1  A    between atoms: C_13  and  C_3 
REMARK    2  A    between atoms: S_12  and  C_4 
REMARK    3  A    between atoms: C_8  and  C_6 
REMARK    4  A    between atoms: O_17  and  C_8 
REMARK    5  A    between atoms: C_10  and  C_16 
REMARK    6  A    between atoms: C_16  and  S_12 
ROOT
ATOM      1  O   UNL d   1      56.962   0.104  32.351  0.00  0.00    -0.263 OA
ATOM      2  N   UNL d   1      56.138  -0.943  32.290  0.00  0.00    -0.120 NA
ATOM      3  C   UNL d   1      56.310  -0.266  32.711  0.00  0.00     0.205 A 
ATOM      4  C   UNL d   1      57.182  -0.362  31.705  0.00  0.00     0.236 A 
ATOM      5  N   UNL d   1      56.676  -1.005  31.666  0.00  0.00    -0.114 NA
ENDROOT
BRANCH   4   6
ATOM      6  S   UNL d   1      57.810  -0.211  31.176  0.00  0.00    -0.039 SA
BRANCH   6   7
ATOM      7  C   UNL d   1      57.658   0.127  30.438  0.00  0.00     0.064 C 
BRANCH   7   8
ATOM      8  C   UNL d   1      58.249   0.138  29.865  0.00  0.00     0.107 A 
ATOM      9  O   UNL d   1      58.958  -0.281  29.789  0.00  0.00    -0.301 OA
ATOM     10  C   UNL d   1      59.330  -0.030  29.085  0.00  0.00     0.163 A 
ATOM     11  C   UNL d   1      58.846   0.538  28.740  0.00  0.00     0.032 A 
ATOM     12  C   UNL d   1      58.187   0.645  29.209  0.00  0.00     0.027 A 
BRANCH  10  13
ATOM     13  C   UNL d   1      60.054  -0.303  28.788  0.00  0.00     0.319 C 
ATOM     14  O   UNL d   1      60.711   0.203  28.778  0.00  0.00    -0.257 OA
BRANCH  13  15
ATOM     15  O   UNL d   1      60.128  -1.074  28.502  0.00  0.00    -0.294 OA
ATOM     16  C   UNL d   1      60.870  -1.439  28.460  0.00  0.00     0.185 C 
ENDBRANCH  13  15
ENDBRANCH  10  13
ENDBRANCH   7   8
ENDBRANCH   6   7
ENDBRANCH   4   6
BRANCH   3  17
ATOM     17  C   UNL d   1      55.940   0.049  33.381  0.00  0.00     0.046 A 
ATOM     18  C   UNL d   1      56.398   0.344  33.995  0.00  0.00     0.024 A 
ATOM     19  C   UNL d   1      56.037   0.659  34.665  0.00  0.00     0.099 A 
ATOM     20  N   UNL d   1      55.214   0.681  34.726  0.00  0.00    -0.242 NA
ATOM     21  C   UNL d   1      54.752   0.382  34.104  0.00  0.00     0.099 A 
ATOM     22  C   UNL d   1      55.117   0.069  33.438  0.00  0.00     0.024 A 
ENDBRANCH   3  17
TORSDOF 6
ENDMDL
MODEL 3
REMARK VINA RESULT:      -2.9      1.390      2.376
REMARK  6 active torsions:
REMARK  status: ('A' for Active; 'I' for Inactive)
REMARK    1  A    between atoms: C_13  and  C_3 
REMARK    2  A    between atoms: S_12  and  C_4 
REMARK    3  A    between atoms: C_8  and  C_6 
REMARK    4  A    between atoms: O_17  and  C_8 
REMARK    5  A    between atoms: C_10  and  C_16 
REMARK    6  A    between atoms: C_16  and  S_12 
ROOT
ATOM      1  O   UNL d   1      59.391  -1.754  29.319  0.00  0.00    -0.263 OA
ATOM      2  N   UNL d   1      60.419  -1.347  28.574  0.00  0.00    -0.120 NA
ATOM      3  C   UNL d   1      60.028  -2.008  28.851  0.00  0.00     0.205 A 
ATOM      4  C   UNL d   1      59.401  -0.927  29.322  0.00  0.00     0.236 A 
ATOM      5  N   UNL d   1      60.033  -0.676  28.864  0.00  0.00    -0.114 NA
ENDROOT
BRANCH   4   6
ATOM      6  S   UNL d   1      58.865  -0.425  29.719  0.00  0.00    -0.039 SA
BRANCH   6   7
ATOM      7  C   UNL d   1      58.115  -0.700  29.927  0.00  0.00     0.064 C 
BRANCH   7   8
ATOM      8  C   UNL d   1      57.705  -0.341  30.544  0.00  0.00     0.107 A 
ATOM      9  O   UNL d   1      57.227  -0.646  31.145  0.00  0.00    -0.301 OA
ATOM     10  C   UNL d   1      56.961  -0.007  31.611  0.00  0.00     0.163 A 
ATOM     11  C   UNL d   1      57.279   0.680  31.290  0.00  0.00     0.032 A 
ATOM     12  C   UNL d   1      57.732   0.485  30.640  0.00  0.00     0.027 A 
BRANCH  10  13
ATOM     13  C   UNL d   1      56.468  -0.054  32.275  0.00  0.00     0.319 C 
ATOM     14  O   UNL d   1      55.931   0.558  32.433  0.00  0.00    -0.257 OA
BRANCH  13  15
ATOM     15  O   UNL d   1      56.506  -0.705  32.782  0.00  0.00    -0.294 OA
ATOM     16  C   UNL d   1      55.822  -0.997  33.146  0.00  0.00     0.185 C 
ENDBRANCH  13  15
ENDBRANCH  10  13
ENDBRANCH   7   8
ENDBRANCH   6   7
ENDBRANCH   4   6
BRANCH   3  17
ATOM     17  C   UNL d   1      60.189  -2.809  28.724  0.00  0.00     0.046 A 
ATOM     18  C   UNL d   1      60.965  -3.074  28.741  0.00  0.00     0.024 A 
ATOM     19  C   UNL d   1      61.133  -3.871  28.615  0.00  0.00     0.099 A 
ATOM     20  N   UNL d   1      60.524  -4.410  28.472  0.00  0.00    -0.242 NA
ATOM     21  C   UNL d   1      59.739  -4.140  28.455  0.00  0.00     0.099 A 
ATOM     22  C   UNL d   1      59.577  -3.344  28.581  0.00  0.00     0.024 A 
ENDBRANCH   3  17
TORSDOF 6
ENDMDL
