MODEL 1
REMARK VINA RESULT:      -7.8      0.000      0.000
REMARK  4 active torsions:
REMARK  status: ('A' for Active; 'I' for Inactive)
REMARK    1  A    between atoms: C_2  and  S_1 
REMARK    2  A    between atoms: N_3  and  S_1 
REMARK    3  A    between atoms: C_14  and  N_3 
REMARK       I    between atoms: C_7  and  N_8 
REMARK    4  A    between atoms: N_8  and  C_15 
ROOT
ATOM      1  S   UNL d   1     -47.656  12.519  23.408  0.00  0.00     0.285 S 
ATOM      2  O   UNL d   1     -47.748  13.318  23.626  0.00  0.00    -0.198 OA
ATOM      3  O   UNL d   1     -47.555  11.724  23.196  0.00  0.00    -0.198 OA
ENDROOT
BRANCH   1   4
ATOM      4  C   UNL d   1     -48.447  12.518  23.122  0.00  0.00     0.105 A 
ATOM      5  C   UNL d   1     -48.694  13.055  22.571  0.00  0.00     0.013 A 
ATOM      6  C   UNL d   1     -49.472  13.045  22.296  0.00  0.00     0.001 A 
ATOM      7  C   UNL d   1     -49.706  13.620  21.717  0.00  0.00     0.000 A 
ATOM      8  C   UNL d   1     -50.010  12.499  22.571  0.00  0.00     0.000 A 
ATOM      9  C   UNL d   1     -50.474  13.635  21.426  0.00  0.00     0.000 A 
ATOM     10  C   UNL d   1     -51.033  13.062  21.715  0.00  0.00     0.000 A 
ATOM     11  C   UNL d   1     -50.793  12.499  22.286  0.00  0.00     0.000 A 
ATOM     12  C   UNL d   1     -49.757  11.928  23.154  0.00  0.00     0.001 A 
ATOM     13  C   UNL d   1     -48.978  11.955  23.413  0.00  0.00     0.013 A 
ENDBRANCH   1   4
BRANCH   1  14
ATOM     14  N   UNL d   1     -46.875  12.530  23.695  0.00  0.00    -0.158 NA
BRANCH  14  15
ATOM     15  C   UNL d   1     -46.259  12.654  23.166  0.00  0.00     0.094 A 
ATOM     16  C   UNL d   1     -46.041  13.434  23.029  0.00  0.00     0.021 A 
ATOM     17  C   UNL d   1     -45.414  13.590  22.493  0.00  0.00     0.021 A 
ATOM     18  C   UNL d   1     -45.033  12.959  22.121  0.00  0.00     0.085 A 
ATOM     19  C   UNL d   1     -45.275  12.187  22.281  0.00  0.00     0.021 A 
ATOM     20  C   UNL d   1     -45.886  12.035  22.801  0.00  0.00     0.021 A 
BRANCH  18  21
ATOM     21  N   UNL d   1     -44.399  13.120  21.579  0.00  0.00    -0.208 NA
ATOM     22  C   UNL d   1     -43.665  12.700  21.650  0.00  0.00     0.279 C 
ATOM     23  O   UNL d   1     -43.555  12.131  22.244  0.00  0.00    -0.265 OA
ATOM     24  C   UNL d   1     -43.075  12.869  21.123  0.00  0.00     0.068 C 
ENDBRANCH  18  21
ENDBRANCH  14  15
ENDBRANCH   1  14
TORSDOF 4
ENDMDL
MODEL 2
REMARK VINA RESULT:      -7.7      1.364      1.949
REMARK  4 active torsions:
REMARK  status: ('A' for Active; 'I' for Inactive)
REMARK    1  A    between atoms: C_2  and  S_1 
REMARK    2  A    between atoms: N_3  and  S_1 
REMARK    3  A    between atoms: C_14  and  N_3 
REMARK       I    between atoms: C_7  and  N_8 
REMARK    4  A    between atoms: N_8  and  C_15 
ROOT
ATOM      1  S   UNL d   1     -47.442  13.745  22.651  0.00  0.00     0.285 S 
ATOM      2  O   UNL d   1     -47.232  13.728  21.845  0.00  0.00    -0.198 OA
ATOM      3  O   UNL d   1     -47.640  13.760  23.456  0.00  0.00    -0.198 OA
ENDROOT
BRANCH   1   4
ATOM      4  C   UNL d   1     -48.249  13.827  22.428  0.00  0.00     0.105 A 
ATOM      5  C   UNL d   1     -48.674  13.197  22.154  0.00  0.00     0.013 A 
ATOM      6  C   UNL d   1     -49.465  13.288  21.939  0.00  0.00     0.001 A 
ATOM      7  C   UNL d   1     -49.890  12.611  21.654  0.00  0.00     0.000 A 
ATOM      8  C   UNL d   1     -49.837  14.010  21.994  0.00  0.00     0.000 A 
ATOM      9  C   UNL d   1     -50.679  12.671  21.432  0.00  0.00     0.000 A 
ATOM     10  C   UNL d   1     -51.064  13.428  21.492  0.00  0.00     0.000 A 
ATOM     11  C   UNL d   1     -50.637  14.091  21.774  0.00  0.00     0.000 A 
ATOM     12  C   UNL d   1     -49.394  14.682  22.283  0.00  0.00     0.001 A 
ATOM     13  C   UNL d   1     -48.608  14.569  22.492  0.00  0.00     0.013 A 
ENDBRANCH   1   4
BRANCH   1  14
ATOM     14  N   UNL d   1     -46.641  13.663  22.861  0.00  0.00    -0.158 NA
BRANCH  14  15
ATOM     15  C   UNL d   1     -46.351  12.917  23.047  0.00  0.00     0.094 A 
ATOM     16  C   UNL d   1     -45.624  12.712  22.724  0.00  0.00     0.021 A 
ATOM     17  C   UNL d   1     -45.304  11.955  22.898  0.00  0.00     0.021 A 
ATOM     18  C   UNL d   1     -45.725  11.441  23.387  0.00  0.00     0.085 A 
ATOM     19  C   UNL d   1     -46.453  11.677  23.696  0.00  0.00     0.021 A 
ATOM     20  C   UNL d   1     -46.764  12.412  23.526  0.00  0.00     0.021 A 
BRANCH  18  21
ATOM     21  N   UNL d   1     -45.399  10.676  23.561  0.00  0.00    -0.208 NA
ATOM     22  C   UNL d   1     -44.562  10.551  23.513  0.00  0.00     0.279 C 
ATOM     23  O   UNL d   1     -44.051  11.168  23.296  0.00  0.00    -0.265 OA
ATOM     24  C   UNL d   1     -44.274   9.814  23.684  0.00  0.00     0.068 C 
ENDBRANCH  18  21
ENDBRANCH  14  15
ENDBRANCH   1  14
TORSDOF 4
ENDMDL
MODEL 3
REMARK VINA RESULT:      -7.5      7.844      9.521
REMARK  4 active torsions:
REMARK  status: ('A' for Active; 'I' for Inactive)
REMARK    1  A    between atoms: C_2  and  S_1 
REMARK    2  A    between atoms: N_3  and  S_1 
REMARK    3  A    between atoms: C_14  and  N_3 
REMARK       I    between atoms: C_7  and  N_8 
REMARK    4  A    between atoms: N_8  and  C_15 
ROOT
ATOM      1  S   UNL d   1     -40.502  14.788  18.468  0.00  0.00     0.285 S 
ATOM      2  O   UNL d   1     -40.224  15.573  18.443  0.00  0.00    -0.198 OA
ATOM      3  O   UNL d   1     -40.784  14.009  18.501  0.00  0.00    -0.198 OA
ENDROOT
BRANCH   1   4
ATOM      4  C   UNL d   1     -39.983  14.596  17.834  0.00  0.00     0.105 A 
ATOM      5  C   UNL d   1     -39.479  13.967  17.880  0.00  0.00     0.013 A 
ATOM      6  C   UNL d   1     -38.975  13.787  17.253  0.00  0.00     0.001 A 
ATOM      7  C   UNL d   1     -38.455  13.120  17.327  0.00  0.00     0.000 A 
ATOM      8  C   UNL d   1     -38.970  14.235  16.574  0.00  0.00     0.000 A 
ATOM      9  C   UNL d   1     -37.941  12.917  16.719  0.00  0.00     0.000 A 
ATOM     10  C   UNL d   1     -37.940  13.389  16.010  0.00  0.00     0.000 A 
ATOM     11  C   UNL d   1     -38.456  14.045  15.946  0.00  0.00     0.000 A 
ATOM     12  C   UNL d   1     -39.500  14.903  16.516  0.00  0.00     0.001 A 
ATOM     13  C   UNL d   1     -39.994  15.064  17.152  0.00  0.00     0.013 A 
ENDBRANCH   1   4
BRANCH   1  14
ATOM     14  N   UNL d   1     -41.011  14.988  19.095  0.00  0.00    -0.158 NA
BRANCH  14  15
ATOM     15  C   UNL d   1     -40.701  15.062  19.852  0.00  0.00     0.094 A 
ATOM     16  C   UNL d   1     -40.471  15.816  20.084  0.00  0.00     0.021 A 
ATOM     17  C   UNL d   1     -40.151  15.922  20.853  0.00  0.00     0.021 A 
ATOM     18  C   UNL d   1     -40.077  15.269  21.353  0.00  0.00     0.085 A 
ATOM     19  C   UNL d   1     -40.317  14.525  21.090  0.00  0.00     0.021 A 
ATOM     20  C   UNL d   1     -40.628  14.423  20.342  0.00  0.00     0.021 A 
BRANCH  18  21
ATOM     21  N   UNL d   1     -39.753  15.378  22.131  0.00  0.00    -0.208 NA
ATOM     22  C   UNL d   1     -38.931  15.224  22.274  0.00  0.00     0.279 C 
ATOM     23  O   UNL d   1     -38.433  14.967  21.661  0.00  0.00    -0.265 OA
ATOM     24  C   UNL d   1     -38.645  15.335  23.022  0.00  0.00     0.068 C 
ENDBRANCH  18  21
ENDBRANCH  14  15
ENDBRANCH   1  14
TORSDOF 4
ENDMDL
MODEL 4
REMARK VINA RESULT:      -7.0      8.192      9.228
REMARK  4 active torsions:
REMARK  status: ('A' for Active; 'I' for Inactive)
REMARK    1  A    between atoms: C_2  and  S_1 
REMARK    2  A    between atoms: N_3  and  S_1 
REMARK    3  A    between atoms: C_14  and  N_3 
REMARK       I    between atoms: C_7  and  N_8 
REMARK    4  A    between atoms: N_8  and  C_15 
ROOT
ATOM      1  S   UNL d   1     -40.330  15.225  20.206  0.00  0.00     0.285 S 
ATOM      2  O   UNL d   1     -40.763  14.525  20.337  0.00  0.00    -0.198 OA
ATOM      3  O   UNL d   1     -39.904  15.922  20.067  0.00  0.00    -0.198 OA
ENDROOT
BRANCH   1   4
ATOM      4  C   UNL d   1     -39.918  15.091  20.927  0.00  0.00     0.105 A 
ATOM      5  C   UNL d   1     -39.607  14.366  21.104  0.00  0.00     0.013 A 
ATOM      6  C   UNL d   1     -39.205  14.245  21.814  0.00  0.00     0.001 A 
ATOM      7  C   UNL d   1     -38.887  13.475  21.976  0.00  0.00     0.000 A 
ATOM      8  C   UNL d   1     -39.110  14.847  22.353  0.00  0.00     0.000 A 
ATOM      9  C   UNL d   1     -38.482  13.325  22.674  0.00  0.00     0.000 A 
ATOM     10  C   UNL d   1     -38.385  13.957  23.235  0.00  0.00     0.000 A 
ATOM     11  C   UNL d   1     -38.701  14.714  23.067  0.00  0.00     0.000 A 
ATOM     12  C   UNL d   1     -39.436  15.617  22.174  0.00  0.00     0.001 A 
ATOM     13  C   UNL d   1     -39.832  15.716  21.462  0.00  0.00     0.013 A 
ENDBRANCH   1   4
BRANCH   1  14
ATOM     14  N   UNL d   1     -40.743  15.348  19.495  0.00  0.00    -0.158 NA
BRANCH  14  15
ATOM     15  C   UNL d   1     -40.379  15.156  18.784  0.00  0.00     0.094 A 
ATOM     16  C   UNL d   1     -40.574  14.429  18.454  0.00  0.00     0.021 A 
ATOM     17  C   UNL d   1     -40.217  14.206  17.727  0.00  0.00     0.021 A 
ATOM     18  C   UNL d   1     -39.683  14.721  17.365  0.00  0.00     0.085 A 
ATOM     19  C   UNL d   1     -39.508  15.444  17.722  0.00  0.00     0.021 A 
ATOM     20  C   UNL d   1     -39.855  15.660  18.428  0.00  0.00     0.021 A 
BRANCH  18  21
ATOM     21  N   UNL d   1     -39.323  14.494  16.629  0.00  0.00    -0.208 NA
ATOM     22  C   UNL d   1     -38.606  14.040  16.630  0.00  0.00     0.279 C 
ATOM     23  O   UNL d   1     -38.247  13.813  17.343  0.00  0.00    -0.265 OA
ATOM     24  C   UNL d   1     -38.282  13.835  15.918  0.00  0.00     0.068 C 
ENDBRANCH  18  21
ENDBRANCH  14  15
ENDBRANCH   1  14
TORSDOF 4
ENDMDL
MODEL 5
REMARK VINA RESULT:      -7.0      1.759      4.732
REMARK  4 active torsions:
REMARK  status: ('A' for Active; 'I' for Inactive)
REMARK    1  A    between atoms: C_2  and  S_1 
REMARK    2  A    between atoms: N_3  and  S_1 
REMARK    3  A    between atoms: C_14  and  N_3 
REMARK       I    between atoms: C_7  and  N_8 
REMARK    4  A    between atoms: N_8  and  C_15 
ROOT
ATOM      1  S   UNL d   1     -46.209  13.136  22.873  0.00  0.00     0.285 S 
ATOM      2  O   UNL d   1     -46.329  13.296  23.682  0.00  0.00    -0.198 OA
ATOM      3  O   UNL d   1     -46.093  12.986  22.066  0.00  0.00    -0.198 OA
ENDROOT
BRANCH   1   4
ATOM      4  C   UNL d   1     -45.907  12.379  23.080  0.00  0.00     0.105 A 
ATOM      5  C   UNL d   1     -45.140  12.177  22.925  0.00  0.00     0.013 A 
ATOM      6  C   UNL d   1     -44.853  11.432  23.132  0.00  0.00     0.001 A 
ATOM      7  C   UNL d   1     -44.043  11.245  22.959  0.00  0.00     0.000 A 
ATOM      8  C   UNL d   1     -45.331  10.881  23.494  0.00  0.00     0.000 A 
ATOM      9  C   UNL d   1     -43.730  10.510  23.152  0.00  0.00     0.000 A 
ATOM     10  C   UNL d   1     -44.233   9.938  23.531  0.00  0.00     0.000 A 
ATOM     11  C   UNL d   1     -45.030  10.131  23.698  0.00  0.00     0.000 A 
ATOM     12  C   UNL d   1     -46.144  11.086  23.661  0.00  0.00     0.001 A 
ATOM     13  C   UNL d   1     -46.408  11.834  23.447  0.00  0.00     0.013 A 
ENDBRANCH   1   4
BRANCH   1  14
ATOM     14  N   UNL d   1     -46.509  13.887  22.680  0.00  0.00    -0.158 NA
BRANCH  14  15
ATOM     15  C   UNL d   1     -47.309  13.966  22.511  0.00  0.00     0.094 A 
ATOM     16  C   UNL d   1     -47.764  14.372  23.062  0.00  0.00     0.021 A 
ATOM     17  C   UNL d   1     -48.586  14.467  22.916  0.00  0.00     0.021 A 
ATOM     18  C   UNL d   1     -48.913  14.152  22.226  0.00  0.00     0.085 A 
ATOM     19  C   UNL d   1     -48.429  13.750  21.693  0.00  0.00     0.021 A 
ATOM     20  C   UNL d   1     -47.630  13.658  21.835  0.00  0.00     0.021 A 
BRANCH  18  21
ATOM     21  N   UNL d   1     -49.744  14.250  22.080  0.00  0.00    -0.208 NA
ATOM     22  C   UNL d   1     -50.277  13.605  22.217  0.00  0.00     0.279 C 
ATOM     23  O   UNL d   1     -49.998  12.873  22.493  0.00  0.00    -0.265 OA
ATOM     24  C   UNL d   1     -51.064  13.721  22.071  0.00  0.00     0.068 C 
ENDBRANCH  18  21
ENDBRANCH  14  15
ENDBRANCH   1  14
TORSDOF 4
ENDMDL
MODEL 6
REMARK VINA RESULT:      -6.3      8.738      9.696
REMARK  4 active torsions:
REMARK  status: ('A' for Active; 'I' for Inactive)
REMARK    1  A    between atoms: C_2  and  S_1 
REMARK    2  A    between atoms: N_3  and  S_1 
REMARK    3  A    between atoms: C_14  and  N_3 
REMARK       I    between atoms: C_7  and  N_8 
REMARK    4  A    between atoms: N_8  and  C_15 
ROOT
ATOM      1  S   UNL d   1     -38.397  14.336  19.498  0.00  0.00     0.285 S 
ATOM      2  O   UNL d   1     -38.180  15.081  19.802  0.00  0.00    -0.198 OA
ATOM      3  O   UNL d   1     -38.614  13.599  19.185  0.00  0.00    -0.198 OA
ENDROOT
BRANCH   1   4
ATOM      4  C   UNL d   1     -38.378  14.024  20.279  0.00  0.00     0.105 A 
ATOM      5  C   UNL d   1     -38.741  14.405  20.891  0.00  0.00     0.013 A 
ATOM      6  C   UNL d   1     -38.715  14.090  21.654  0.00  0.00     0.001 A 
ATOM      7  C   UNL d   1     -39.105  14.510  22.280  0.00  0.00     0.000 A 
ATOM      8  C   UNL d   1     -38.327  13.392  21.810  0.00  0.00     0.000 A 
ATOM      9  C   UNL d   1     -39.096  14.221  23.049  0.00  0.00     0.000 A 
ATOM     10  C   UNL d   1     -38.689  13.491  23.208  0.00  0.00     0.000 A 
ATOM     11  C   UNL d   1     -38.307  13.084  22.583  0.00  0.00     0.000 A 
ATOM     12  C   UNL d   1     -37.940  12.983  21.167  0.00  0.00     0.001 A 
ATOM     13  C   UNL d   1     -37.977  13.314  20.416  0.00  0.00     0.013 A 
ENDBRANCH   1   4
BRANCH   1  14
ATOM     14  N   UNL d   1     -38.414  14.655  18.729  0.00  0.00    -0.158 NA
BRANCH  14  15
ATOM     15  C   UNL d   1     -39.139  14.840  18.390  0.00  0.00     0.094 A 
ATOM     16  C   UNL d   1     -39.388  14.364  17.768  0.00  0.00     0.021 A 
ATOM     17  C   UNL d   1     -40.126  14.531  17.403  0.00  0.00     0.021 A 
ATOM     18  C   UNL d   1     -40.578  15.165  17.676  0.00  0.00     0.085 A 
ATOM     19  C   UNL d   1     -40.300  15.624  18.302  0.00  0.00     0.021 A 
ATOM     20  C   UNL d   1     -39.583  15.462  18.658  0.00  0.00     0.021 A 
BRANCH  18  21
ATOM     21  N   UNL d   1     -41.324  15.332  17.304  0.00  0.00    -0.208 NA
ATOM     22  C   UNL d   1     -41.344  15.707  16.544  0.00  0.00     0.279 C 
ATOM     23  O   UNL d   1     -40.642  15.916  16.153  0.00  0.00    -0.265 OA
ATOM     24  C   UNL d   1     -42.066  15.856  16.209  0.00  0.00     0.068 C 
ENDBRANCH  18  21
ENDBRANCH  14  15
ENDBRANCH   1  14
TORSDOF 4
ENDMDL
MODEL 7
REMARK VINA RESULT:      -5.4      8.598      9.407
REMARK  4 active torsions:
REMARK  status: ('A' for Active; 'I' for Inactive)
REMARK    1  A    between atoms: C_2  and  S_1 
REMARK    2  A    between atoms: N_3  and  S_1 
REMARK    3  A    between atoms: C_14  and  N_3 
REMARK       I    between atoms: C_7  and  N_8 
REMARK    4  A    between atoms: N_8  and  C_15 
ROOT
ATOM      1  S   UNL d   1     -38.989  13.977  18.560  0.00  0.00     0.285 S 
ATOM      2  O   UNL d   1     -39.615  13.428  18.564  0.00  0.00    -0.198 OA
ATOM      3  O   UNL d   1     -38.360  14.517  18.564  0.00  0.00    -0.198 OA
ENDROOT
BRANCH   1   4
ATOM      4  C   UNL d   1     -39.371  14.393  17.937  0.00  0.00     0.105 A 
ATOM      5  C   UNL d   1     -40.118  14.688  18.027  0.00  0.00     0.013 A 
ATOM      6  C   UNL d   1     -40.485  15.095  17.410  0.00  0.00     0.001 A 
ATOM      7  C   UNL d   1     -41.270  15.395  17.530  0.00  0.00     0.000 A 
ATOM      8  C   UNL d   1     -40.108  15.210  16.698  0.00  0.00     0.000 A 
ATOM      9  C   UNL d   1     -41.660  15.804  16.934  0.00  0.00     0.000 A 
ATOM     10  C   UNL d   1     -41.262  15.922  16.191  0.00  0.00     0.000 A 
ATOM     11  C   UNL d   1     -40.488  15.622  16.082  0.00  0.00     0.000 A 
ATOM     12  C   UNL d   1     -39.317  14.901  16.595  0.00  0.00     0.001 A 
ATOM     13  C   UNL d   1     -38.971  14.500  17.222  0.00  0.00     0.013 A 
ENDBRANCH   1   4
BRANCH   1  14
ATOM     14  N   UNL d   1     -38.618  13.558  19.176  0.00  0.00    -0.158 NA
BRANCH  14  15
ATOM     15  C   UNL d   1     -38.583  13.896  19.924  0.00  0.00     0.094 A 
ATOM     16  C   UNL d   1     -37.999  14.462  20.046  0.00  0.00     0.021 A 
ATOM     17  C   UNL d   1     -37.940  14.824  20.801  0.00  0.00     0.021 A 
ATOM     18  C   UNL d   1     -38.466  14.605  21.398  0.00  0.00     0.085 A 
ATOM     19  C   UNL d   1     -39.041  14.034  21.243  0.00  0.00     0.021 A 
ATOM     20  C   UNL d   1     -39.099  13.681  20.509  0.00  0.00     0.021 A 
BRANCH  18  21
ATOM     21  N   UNL d   1     -38.404  14.973  22.161  0.00  0.00    -0.208 NA
ATOM     22  C   UNL d   1     -38.956  15.576  22.386  0.00  0.00     0.279 C 
ATOM     23  O   UNL d   1     -39.561  15.814  21.870  0.00  0.00    -0.265 OA
ATOM     24  C   UNL d   1     -38.878  15.912  23.118  0.00  0.00     0.068 C 
ENDBRANCH  18  21
ENDBRANCH  14  15
ENDBRANCH   1  14
TORSDOF 4
ENDMDL
