MODEL 1
REMARK VINA RESULT:      17.9      0.000      0.000
REMARK  1 active torsions:
REMARK  status: ('A' for Active; 'I' for Inactive)
REMARK    1  A    between atoms: C_9  and  C_5 
ROOT
ATOM      1  C   UNL d   1     -51.364  25.621  33.314  0.00  0.00     0.062 A 
ATOM      2  C   UNL d   1     -52.164  25.493  33.313  0.00  0.00     0.197 A 
ATOM      3  C   UNL d   1     -50.842  24.950  33.317  0.00  0.00     0.044 A 
ATOM      4  C   UNL d   1     -51.072  26.401  33.312  0.00  0.00     0.112 A 
ATOM      5  C   UNL d   1     -50.245  26.493  33.314  0.00  0.00     0.084 A 
ATOM      6  C   UNL d   1     -51.142  24.182  33.318  0.00  0.00     0.196 A 
ATOM      7  C   UNL d   1     -52.488  24.707  33.315  0.00  0.00     0.042 A 
ATOM      8  C   UNL d   1     -51.984  24.060  33.317  0.00  0.00     0.042 A 
ATOM      9  C   UNL d   1     -50.023  25.054  33.318  0.00  0.00     0.004 A 
ATOM     10  C   UNL d   1     -49.700  25.793  33.316  0.00  0.00     0.008 A 
ATOM     11  O   UNL d   1     -52.686  26.164  33.310  0.00  0.00    -0.286 OA
ATOM     12  O   UNL d   1     -50.616  23.506  33.321  0.00  0.00    -0.287 OA
ATOM     13  N   UNL d   1     -51.567  27.036  33.310  0.00  0.00    -0.148 N 
ATOM     14  C   UNL d   1     -53.306  24.604  33.313  0.00  0.00     0.003 A 
ATOM     15  C   UNL d   1     -52.285  23.292  33.319  0.00  0.00     0.003 A 
ATOM     16  C   UNL d   1     -53.626  23.859  33.315  0.00  0.00     0.000 A 
ATOM     17  C   UNL d   1     -53.104  23.188  33.318  0.00  0.00     0.000 A 
ENDROOT
BRANCH   5  18
ATOM     18  C   UNL d   1     -49.975  27.264  33.312  0.00  0.00     0.212 C 
ATOM     19  O   UNL d   1     -49.172  27.375  33.312  0.00  0.00    -0.644 OA
ATOM     20  O   UNL d   1     -50.523  27.896  33.310  0.00  0.00    -0.644 OA
ENDBRANCH   5  18
TORSDOF 1
ENDMDL
