MODEL 1
REMARK VINA RESULT:      -6.2      0.000      0.000
REMARK  6 active torsions:
REMARK  status: ('A' for Active; 'I' for Inactive)
REMARK    1  A    between atoms: C_7  and  S_1 
REMARK    2  A    between atoms: N_11  and  S_1 
REMARK    3  A    between atoms: C_5  and  C_2 
REMARK    4  A    between atoms: C_6  and  C_15 
REMARK    5  A    between atoms: C_18  and  N_11 
REMARK    6  A    between atoms: C_15  and  C_18 
ROOT
ATOM      1  C   UNL d   1     -47.597  12.074  23.697  0.00  0.00     0.041 C 
ENDROOT
BRANCH   1   2
ATOM      2  C   UNL d   1     -48.386  12.181  23.463  0.00  0.00     0.090 A 
ATOM      3  N   UNL d   1     -48.685  12.848  23.070  0.00  0.00    -0.238 NA
ATOM      4  C   UNL d   1     -49.495  12.721  22.945  0.00  0.00     0.112 A 
ATOM      5  S   UNL d   1     -49.698  11.981  23.258  0.00  0.00    -0.066 SA
ATOM      6  C   UNL d   1     -49.006  11.646  23.580  0.00  0.00     0.056 A 
BRANCH   4   7
ATOM      7  C   UNL d   1     -50.025  13.246  22.568  0.00  0.00     0.043 A 
ATOM      8  C   UNL d   1     -50.345  13.881  22.985  0.00  0.00     0.101 A 
ATOM      9  N   UNL d   1     -50.861  14.392  22.618  0.00  0.00    -0.242 NA
ATOM     10  C   UNL d   1     -51.063  14.273  21.829  0.00  0.00     0.099 A 
ATOM     11  C   UNL d   1     -50.735  13.624  21.406  0.00  0.00     0.021 A 
ATOM     12  C   UNL d   1     -50.217  13.112  21.777  0.00  0.00     0.005 A 
ENDBRANCH   4   7
ENDBRANCH   1   2
BRANCH   1  13
ATOM     13  C   UNL d   1     -46.981  12.370  23.239  0.00  0.00     0.114 C 
BRANCH  13  14
ATOM     14  N   UNL d   1     -46.209  12.437  23.570  0.00  0.00    -0.157 NA
BRANCH  14  15
ATOM     15  S   UNL d   1     -45.554  12.476  23.065  0.00  0.00     0.285 S 
ATOM     16  O   UNL d   1     -45.765  13.258  22.862  0.00  0.00    -0.198 OA
ATOM     17  O   UNL d   1     -45.341  11.698  23.265  0.00  0.00    -0.198 OA
BRANCH  15  18
ATOM     18  C   UNL d   1     -44.903  12.525  22.559  0.00  0.00     0.105 A 
ATOM     19  C   UNL d   1     -44.298  11.973  22.632  0.00  0.00     0.015 A 
ATOM     20  C   UNL d   1     -43.639  12.019  22.123  0.00  0.00     0.030 A 
ATOM     21  C   UNL d   1     -43.598  12.608  21.557  0.00  0.00     0.140 A 
ATOM     22  C   UNL d   1     -44.206  13.155  21.490  0.00  0.00     0.030 A 
ATOM     23  F   UNL d   1     -42.947  12.657  21.051  0.00  0.00    -0.204 F 
ATOM     24  C   UNL d   1     -44.862  13.124  21.983  0.00  0.00     0.015 A 
ENDBRANCH  15  18
ENDBRANCH  14  15
ENDBRANCH  13  14
ENDBRANCH   1  13
TORSDOF 6
ENDMDL
MODEL 2
REMARK VINA RESULT:      -6.1      1.740      2.087
REMARK  6 active torsions:
REMARK  status: ('A' for Active; 'I' for Inactive)
REMARK    1  A    between atoms: C_7  and  S_1 
REMARK    2  A    between atoms: N_11  and  S_1 
REMARK    3  A    between atoms: C_5  and  C_2 
REMARK    4  A    between atoms: C_6  and  C_15 
REMARK    5  A    between atoms: C_18  and  N_11 
REMARK    6  A    between atoms: C_15  and  C_18 
ROOT
ATOM      1  C   UNL d   1     -47.059  13.644  22.210  0.00  0.00     0.041 C 
ENDROOT
BRANCH   1   2
ATOM      2  C   UNL d   1     -47.882  13.741  22.249  0.00  0.00     0.090 A 
ATOM      3  N   UNL d   1     -48.278  14.303  22.714  0.00  0.00    -0.238 NA
ATOM      4  C   UNL d   1     -49.092  14.203  22.584  0.00  0.00     0.112 A 
ATOM      5  S   UNL d   1     -49.199  13.585  22.043  0.00  0.00    -0.066 SA
ATOM      6  C   UNL d   1     -48.444  13.298  21.836  0.00  0.00     0.056 A 
BRANCH   4   7
ATOM      7  C   UNL d   1     -49.706  14.648  22.936  0.00  0.00     0.043 A 
ATOM      8  C   UNL d   1     -49.685  15.472  22.912  0.00  0.00     0.101 A 
ATOM      9  N   UNL d   1     -50.284  15.905  23.255  0.00  0.00    -0.242 NA
ATOM     10  C   UNL d   1     -50.908  15.518  23.624  0.00  0.00     0.099 A 
ATOM     11  C   UNL d   1     -50.927  14.677  23.646  0.00  0.00     0.021 A 
ATOM     12  C   UNL d   1     -50.325  14.245  23.302  0.00  0.00     0.005 A 
ENDBRANCH   4   7
ENDBRANCH   1   2
BRANCH   1  13
ATOM     13  C   UNL d   1     -46.705  12.947  22.469  0.00  0.00     0.114 C 
BRANCH  13  14
ATOM     14  N   UNL d   1     -46.012  12.983  22.946  0.00  0.00    -0.157 NA
BRANCH  14  15
ATOM     15  S   UNL d   1     -45.570  12.294  23.070  0.00  0.00     0.285 S 
ATOM     16  O   UNL d   1     -46.184  11.994  23.549  0.00  0.00    -0.198 OA
ATOM     17  O   UNL d   1     -44.957  12.590  22.593  0.00  0.00    -0.198 OA
BRANCH  15  18
ATOM     18  C   UNL d   1     -45.136  11.602  23.199  0.00  0.00     0.105 A 
ATOM     19  C   UNL d   1     -44.354  11.569  22.950  0.00  0.00     0.015 A 
ATOM     20  C   UNL d   1     -43.913  10.873  23.079  0.00  0.00     0.030 A 
ATOM     21  C   UNL d   1     -44.259  10.231  23.450  0.00  0.00     0.140 A 
ATOM     22  C   UNL d   1     -45.041  10.272  23.696  0.00  0.00     0.030 A 
ATOM     23  F   UNL d   1     -43.825   9.539  23.579  0.00  0.00    -0.204 F 
ATOM     24  C   UNL d   1     -45.489  10.950  23.576  0.00  0.00     0.015 A 
ENDBRANCH  15  18
ENDBRANCH  14  15
ENDBRANCH  13  14
ENDBRANCH   1  13
TORSDOF 6
ENDMDL
MODEL 3
REMARK VINA RESULT:      -5.9      8.343      9.524
REMARK  6 active torsions:
REMARK  status: ('A' for Active; 'I' for Inactive)
REMARK    1  A    between atoms: C_7  and  S_1 
REMARK    2  A    between atoms: N_11  and  S_1 
REMARK    3  A    between atoms: C_5  and  C_2 
REMARK    4  A    between atoms: C_6  and  C_15 
REMARK    5  A    between atoms: C_18  and  N_11 
REMARK    6  A    between atoms: C_15  and  C_18 
ROOT
ATOM      1  C   UNL d   1     -40.520  14.892  19.976  0.00  0.00     0.041 C 
ENDROOT
BRANCH   1   2
ATOM      2  C   UNL d   1     -40.183  15.038  20.720  0.00  0.00     0.090 A 
ATOM      3  N   UNL d   1     -39.748  14.490  21.166  0.00  0.00    -0.238 NA
ATOM      4  C   UNL d   1     -39.518  14.867  21.868  0.00  0.00     0.112 A 
ATOM      5  S   UNL d   1     -39.807  15.643  21.857  0.00  0.00    -0.066 SA
ATOM      6  C   UNL d   1     -40.221  15.748  21.141  0.00  0.00     0.056 A 
BRANCH   4   7
ATOM      7  C   UNL d   1     -39.069  14.529  22.487  0.00  0.00     0.043 A 
ATOM      8  C   UNL d   1     -38.623  15.011  22.985  0.00  0.00     0.101 A 
ATOM      9  N   UNL d   1     -38.186  14.682  23.588  0.00  0.00    -0.242 NA
ATOM     10  C   UNL d   1     -38.191  13.867  23.698  0.00  0.00     0.099 A 
ATOM     11  C   UNL d   1     -38.647  13.377  23.188  0.00  0.00     0.021 A 
ATOM     12  C   UNL d   1     -39.085  13.710  22.583  0.00  0.00     0.005 A 
ENDBRANCH   4   7
ENDBRANCH   1   2
BRANCH   1  13
ATOM     13  C   UNL d   1     -40.062  14.933  19.293  0.00  0.00     0.114 C 
BRANCH  13  14
ATOM     14  N   UNL d   1     -40.405  14.740  18.548  0.00  0.00    -0.157 NA
BRANCH  14  15
ATOM     15  S   UNL d   1     -39.911  14.532  17.917  0.00  0.00     0.285 S 
ATOM     16  O   UNL d   1     -40.252  13.770  17.909  0.00  0.00    -0.198 OA
ATOM     17  O   UNL d   1     -39.570  15.290  17.923  0.00  0.00    -0.198 OA
BRANCH  15  18
ATOM     18  C   UNL d   1     -39.422  14.316  17.287  0.00  0.00     0.105 A 
ATOM     19  C   UNL d   1     -39.431  14.768  16.601  0.00  0.00     0.015 A 
ATOM     20  C   UNL d   1     -38.938  14.553  15.963  0.00  0.00     0.030 A 
ATOM     21  C   UNL d   1     -38.452  13.897  16.023  0.00  0.00     0.140 A 
ATOM     22  C   UNL d   1     -38.450  13.451  16.711  0.00  0.00     0.030 A 
ATOM     23  F   UNL d   1     -37.963  13.681  15.393  0.00  0.00    -0.204 F 
ATOM     24  C   UNL d   1     -38.929  13.649  17.349  0.00  0.00     0.015 A 
ENDBRANCH  15  18
ENDBRANCH  14  15
ENDBRANCH  13  14
ENDBRANCH   1  13
TORSDOF 6
ENDMDL
MODEL 4
REMARK VINA RESULT:      -5.5      2.440      5.495
REMARK  6 active torsions:
REMARK  status: ('A' for Active; 'I' for Inactive)
REMARK    1  A    between atoms: C_7  and  S_1 
REMARK    2  A    between atoms: N_11  and  S_1 
REMARK    3  A    between atoms: C_5  and  C_2 
REMARK    4  A    between atoms: C_6  and  C_15 
REMARK    5  A    between atoms: C_18  and  N_11 
REMARK    6  A    between atoms: C_15  and  C_18 
ROOT
ATOM      1  C   UNL d   1     -46.678  12.617  23.691  0.00  0.00     0.041 C 
ENDROOT
BRANCH   1   2
ATOM      2  C   UNL d   1     -46.252  11.908  23.631  0.00  0.00     0.090 A 
ATOM      3  N   UNL d   1     -45.433  11.849  23.508  0.00  0.00    -0.238 NA
ATOM      4  C   UNL d   1     -45.243  11.042  23.484  0.00  0.00     0.112 A 
ATOM      5  S   UNL d   1     -45.937  10.604  23.592  0.00  0.00    -0.066 SA
ATOM      6  C   UNL d   1     -46.565  11.145  23.684  0.00  0.00     0.056 A 
BRANCH   4   7
ATOM      7  C   UNL d   1     -44.481  10.717  23.371  0.00  0.00     0.043 A 
ATOM      8  C   UNL d   1     -43.915  11.133  22.940  0.00  0.00     0.101 A 
ATOM      9  N   UNL d   1     -43.172  10.816  22.829  0.00  0.00    -0.242 NA
ATOM     10  C   UNL d   1     -42.990  10.080  23.149  0.00  0.00     0.099 A 
ATOM     11  C   UNL d   1     -43.570   9.658  23.588  0.00  0.00     0.021 A 
ATOM     12  C   UNL d   1     -44.315   9.978  23.698  0.00  0.00     0.005 A 
ENDBRANCH   4   7
ENDBRANCH   1   2
BRANCH   1  13
ATOM     13  C   UNL d   1     -47.364  12.732  23.250  0.00  0.00     0.114 C 
BRANCH  13  14
ATOM     14  N   UNL d   1     -47.753  13.479  23.271  0.00  0.00    -0.157 NA
BRANCH  14  15
ATOM     15  S   UNL d   1     -48.422  13.600  22.798  0.00  0.00     0.285 S 
ATOM     16  O   UNL d   1     -48.002  14.175  22.363  0.00  0.00    -0.198 OA
ATOM     17  O   UNL d   1     -48.842  13.027  23.231  0.00  0.00    -0.198 OA
BRANCH  15  18
ATOM     18  C   UNL d   1     -49.085  13.727  22.322  0.00  0.00     0.105 A 
ATOM     19  C   UNL d   1     -49.166  13.296  21.627  0.00  0.00     0.015 A 
ATOM     20  C   UNL d   1     -49.835  13.422  21.143  0.00  0.00     0.030 A 
ATOM     21  C   UNL d   1     -50.401  13.970  21.362  0.00  0.00     0.140 A 
ATOM     22  C   UNL d   1     -50.313  14.396  22.057  0.00  0.00     0.030 A 
ATOM     23  F   UNL d   1     -51.064  14.097  20.885  0.00  0.00    -0.204 F 
ATOM     24  C   UNL d   1     -49.661  14.285  22.545  0.00  0.00     0.015 A 
ENDBRANCH  15  18
ENDBRANCH  14  15
ENDBRANCH  13  14
ENDBRANCH   1  13
TORSDOF 6
ENDMDL
MODEL 5
REMARK VINA RESULT:      -4.9      3.663      7.006
REMARK  6 active torsions:
REMARK  status: ('A' for Active; 'I' for Inactive)
REMARK    1  A    between atoms: C_7  and  S_1 
REMARK    2  A    between atoms: N_11  and  S_1 
REMARK    3  A    between atoms: C_5  and  C_2 
REMARK    4  A    between atoms: C_6  and  C_15 
REMARK    5  A    between atoms: C_18  and  N_11 
REMARK    6  A    between atoms: C_15  and  C_18 
ROOT
ATOM      1  C   UNL d   1     -42.384  12.929  21.171  0.00  0.00     0.041 C 
ENDROOT
BRANCH   1   2
ATOM      2  C   UNL d   1     -41.854  13.517  20.923  0.00  0.00     0.090 A 
ATOM      3  N   UNL d   1     -41.659  13.687  20.134  0.00  0.00    -0.238 NA
ATOM      4  C   UNL d   1     -41.112  14.311  20.142  0.00  0.00     0.112 A 
ATOM      5  S   UNL d   1     -40.970  14.527  20.929  0.00  0.00    -0.066 SA
ATOM      6  C   UNL d   1     -41.433  14.031  21.414  0.00  0.00     0.056 A 
BRANCH   4   7
ATOM      7  C   UNL d   1     -40.760  14.668  19.473  0.00  0.00     0.043 A 
ATOM      8  C   UNL d   1     -40.646  15.484  19.453  0.00  0.00     0.101 A 
ATOM      9  N   UNL d   1     -40.303  15.832  18.801  0.00  0.00    -0.242 NA
ATOM     10  C   UNL d   1     -40.071  15.367  18.164  0.00  0.00     0.099 A 
ATOM     11  C   UNL d   1     -40.189  14.534  18.188  0.00  0.00     0.021 A 
ATOM     12  C   UNL d   1     -40.533  14.187  18.843  0.00  0.00     0.005 A 
ENDBRANCH   4   7
ENDBRANCH   1   2
BRANCH   1  13
ATOM     13  C   UNL d   1     -43.143  13.126  21.419  0.00  0.00     0.114 C 
BRANCH  13  14
ATOM     14  N   UNL d   1     -43.717  12.520  21.531  0.00  0.00    -0.157 NA
BRANCH  14  15
ATOM     15  S   UNL d   1     -44.426  12.700  21.920  0.00  0.00     0.285 S 
ATOM     16  O   UNL d   1     -44.236  12.141  22.510  0.00  0.00    -0.198 OA
ATOM     17  O   UNL d   1     -44.617  13.258  21.333  0.00  0.00    -0.198 OA
BRANCH  15  18
ATOM     18  C   UNL d   1     -45.130  12.873  22.314  0.00  0.00     0.105 A 
ATOM     19  C   UNL d   1     -45.463  13.620  22.230  0.00  0.00     0.015 A 
ATOM     20  C   UNL d   1     -46.174  13.798  22.628  0.00  0.00     0.030 A 
ATOM     21  C   UNL d   1     -46.536  13.233  23.096  0.00  0.00     0.140 A 
ATOM     22  C   UNL d   1     -46.198  12.489  23.174  0.00  0.00     0.030 A 
ATOM     23  F   UNL d   1     -47.240  13.406  23.491  0.00  0.00    -0.204 F 
ATOM     24  C   UNL d   1     -45.497  12.297  22.790  0.00  0.00     0.015 A 
ENDBRANCH  15  18
ENDBRANCH  14  15
ENDBRANCH  13  14
ENDBRANCH   1  13
TORSDOF 6
ENDMDL
MODEL 6
REMARK VINA RESULT:      -4.2      2.934      4.147
REMARK  6 active torsions:
REMARK  status: ('A' for Active; 'I' for Inactive)
REMARK    1  A    between atoms: C_7  and  S_1 
REMARK    2  A    between atoms: N_11  and  S_1 
REMARK    3  A    between atoms: C_5  and  C_2 
REMARK    4  A    between atoms: C_6  and  C_15 
REMARK    5  A    between atoms: C_18  and  N_11 
REMARK    6  A    between atoms: C_15  and  C_18 
ROOT
ATOM      1  C   UNL d   1     -43.867  12.582  21.413  0.00  0.00     0.041 C 
ENDROOT
BRANCH   1   2
ATOM      2  C   UNL d   1     -44.539  12.658  21.894  0.00  0.00     0.090 A 
ATOM      3  N   UNL d   1     -45.138  13.224  21.797  0.00  0.00    -0.238 NA
ATOM      4  C   UNL d   1     -45.698  13.100  22.397  0.00  0.00     0.112 A 
ATOM      5  S   UNL d   1     -45.448  12.461  22.862  0.00  0.00    -0.066 SA
ATOM      6  C   UNL d   1     -44.726  12.187  22.547  0.00  0.00     0.056 A 
BRANCH   4   7
ATOM      7  C   UNL d   1     -46.398  13.539  22.519  0.00  0.00     0.043 A 
ATOM      8  C   UNL d   1     -46.354  14.331  22.744  0.00  0.00     0.101 A 
ATOM      9  N   UNL d   1     -47.037  14.760  22.862  0.00  0.00    -0.242 NA
ATOM     10  C   UNL d   1     -47.768  14.400  22.757  0.00  0.00     0.099 A 
ATOM     11  C   UNL d   1     -47.810  13.592  22.527  0.00  0.00     0.021 A 
ATOM     12  C   UNL d   1     -47.124  13.164  22.409  0.00  0.00     0.005 A 
ENDBRANCH   4   7
ENDBRANCH   1   2
BRANCH   1  13
ATOM     13  C   UNL d   1     -43.231  13.097  21.497  0.00  0.00     0.114 C 
BRANCH  13  14
ATOM     14  N   UNL d   1     -42.520  12.956  21.068  0.00  0.00    -0.157 NA
BRANCH  14  15
ATOM     15  S   UNL d   1     -41.943  13.548  21.035  0.00  0.00     0.285 S 
ATOM     16  O   UNL d   1     -42.009  13.557  20.203  0.00  0.00    -0.198 OA
ATOM     17  O   UNL d   1     -41.875  13.542  21.864  0.00  0.00    -0.198 OA
BRANCH  15  18
ATOM     18  C   UNL d   1     -41.368  14.140  20.992  0.00  0.00     0.105 A 
ATOM     19  C   UNL d   1     -41.596  14.906  20.799  0.00  0.00     0.015 A 
ATOM     20  C   UNL d   1     -41.017  15.506  20.755  0.00  0.00     0.030 A 
ATOM     21  C   UNL d   1     -40.232  15.330  20.903  0.00  0.00     0.140 A 
ATOM     22  C   UNL d   1     -40.013  14.563  21.095  0.00  0.00     0.030 A 
ATOM     23  F   UNL d   1     -39.657  15.922  20.860  0.00  0.00    -0.204 F 
ATOM     24  C   UNL d   1     -40.569  13.961  21.143  0.00  0.00     0.015 A 
ENDBRANCH  15  18
ENDBRANCH  14  15
ENDBRANCH  13  14
ENDBRANCH   1  13
TORSDOF 6
ENDMDL
