MODEL 1
REMARK VINA RESULT:      -3.6      0.000      0.000
REMARK  4 active torsions:
REMARK  status: ('A' for Active; 'I' for Inactive)
REMARK    1  A    between atoms: C_2  and  C_1 
REMARK    2  A    between atoms: C_3  and  C_2 
REMARK    3  A    between atoms: C_5  and  C_3 
REMARK    4  A    between atoms: C_13  and  C_5 
ROOT
ATOM      1  C   UNL d   1      32.561  18.507 -23.267  0.00  0.00     0.042 C 
ENDROOT
BRANCH   1   2
ATOM      2  C   UNL d   1      32.584  17.951 -23.877  0.00  0.00     0.199 C 
ATOM      3  O   UNL d   1      33.212  17.931 -24.396  0.00  0.00    -0.286 OA
BRANCH   2   4
ATOM      4  C   UNL d   1      31.968  17.419 -23.954  0.00  0.00     0.078 A 
ATOM      5  C   UNL d   1      32.017  16.651 -23.692  0.00  0.00     0.199 A 
ATOM      6  C   UNL d   1      31.405  16.135 -23.773  0.00  0.00     0.042 A 
ATOM      7  O   UNL d   1      32.768  16.388 -23.312  0.00  0.00    -0.286 OA
ATOM      8  C   UNL d   1      30.702  16.351 -24.119  0.00  0.00     0.003 A 
ATOM      9  C   UNL d   1      30.619  17.100 -24.388  0.00  0.00     0.000 A 
ATOM     10  C   UNL d   1      31.243  17.644 -24.311  0.00  0.00     0.006 A 
ATOM     11  C   UNL d   1      30.045  17.397 -24.709  0.00  0.00     0.000 C 
ENDBRANCH   2   4
ENDBRANCH   1   2
BRANCH   1  12
ATOM     12  C   UNL d   1      33.217  19.019 -23.316  0.00  0.00     0.003 C 
BRANCH  12  13
ATOM     13  C   UNL d   1      33.217  19.759 -22.804  0.00  0.00     0.002 A 
ATOM     14  C   UNL d   1      33.196  19.734 -22.010  0.00  0.00     0.027 A 
ATOM     15  C   UNL d   1      33.197  20.423 -21.558  0.00  0.00     0.123 A 
ATOM     16  O   UNL d   1      33.175  20.400 -20.701  0.00  0.00    -0.301 OA
ATOM     17  C   UNL d   1      33.219  21.205 -21.921  0.00  0.00     0.123 A 
ATOM     18  C   UNL d   1      33.175  21.072 -20.236  0.00  0.00     0.149 A 
ATOM     19  C   UNL d   1      33.198  21.872 -20.617  0.00  0.00     0.149 A 
ATOM     20  O   UNL d   1      33.219  21.910 -21.436  0.00  0.00    -0.301 OA
ATOM     21  C   UNL d   1      33.241  21.247 -22.761  0.00  0.00     0.027 A 
ATOM     22  C   UNL d   1      33.240  20.555 -23.201  0.00  0.00     0.002 A 
ENDBRANCH  12  13
ENDBRANCH   1  12
TORSDOF 4
ENDMDL
MODEL 2
REMARK VINA RESULT:      -3.0      0.915      1.491
REMARK  4 active torsions:
REMARK  status: ('A' for Active; 'I' for Inactive)
REMARK    1  A    between atoms: C_2  and  C_1 
REMARK    2  A    between atoms: C_3  and  C_2 
REMARK    3  A    between atoms: C_5  and  C_3 
REMARK    4  A    between atoms: C_13  and  C_5 
ROOT
ATOM      1  C   UNL d   1      31.824  17.532 -24.013  0.00  0.00     0.042 C 
ENDROOT
BRANCH   1   2
ATOM      2  C   UNL d   1      31.710  16.715 -24.054  0.00  0.00     0.199 C 
ATOM      3  O   UNL d   1      32.340  16.216 -24.192  0.00  0.00    -0.286 OA
BRANCH   2   4
ATOM      4  C   UNL d   1      30.958  16.412 -23.955  0.00  0.00     0.078 A 
ATOM      5  C   UNL d   1      30.796  15.800 -23.447  0.00  0.00     0.199 A 
ATOM      6  C   UNL d   1      30.051  15.509 -23.357  0.00  0.00     0.042 A 
ATOM      7  O   UNL d   1      31.463  15.453 -22.986  0.00  0.00    -0.286 OA
ATOM      8  C   UNL d   1      29.418  15.809 -23.768  0.00  0.00     0.003 A 
ATOM      9  C   UNL d   1      29.542  16.413 -24.278  0.00  0.00     0.000 A 
ATOM     10  C   UNL d   1      30.306  16.724 -24.381  0.00  0.00     0.006 A 
ATOM     11  C   UNL d   1      29.057  16.754 -24.691  0.00  0.00     0.000 C 
ENDBRANCH   2   4
ENDBRANCH   1   2
BRANCH   1  12
ATOM     12  C   UNL d   1      32.569  17.706 -23.682  0.00  0.00     0.003 C 
BRANCH  12  13
ATOM     13  C   UNL d   1      32.741  18.557 -23.448  0.00  0.00     0.002 A 
ATOM     14  C   UNL d   1      32.739  18.807 -22.694  0.00  0.00     0.027 A 
ATOM     15  C   UNL d   1      32.899  19.592 -22.501  0.00  0.00     0.123 A 
ATOM     16  O   UNL d   1      32.898  19.865 -21.687  0.00  0.00    -0.301 OA
ATOM     17  C   UNL d   1      33.077  20.182 -23.104  0.00  0.00     0.123 A 
ATOM     18  C   UNL d   1      33.054  20.639 -21.476  0.00  0.00     0.149 A 
ATOM     19  C   UNL d   1      33.236  21.239 -22.102  0.00  0.00     0.149 A 
ATOM     20  O   UNL d   1      33.241  20.993 -22.884  0.00  0.00    -0.301 OA
ATOM     21  C   UNL d   1      33.082  19.932 -23.906  0.00  0.00     0.027 A 
ATOM     22  C   UNL d   1      32.921  19.149 -24.088  0.00  0.00     0.002 A 
ENDBRANCH  12  13
ENDBRANCH   1  12
TORSDOF 4
ENDMDL
MODEL 3
REMARK VINA RESULT:      -3.0      1.602      5.427
REMARK  4 active torsions:
REMARK  status: ('A' for Active; 'I' for Inactive)
REMARK    1  A    between atoms: C_2  and  C_1 
REMARK    2  A    between atoms: C_3  and  C_2 
REMARK    3  A    between atoms: C_5  and  C_3 
REMARK    4  A    between atoms: C_13  and  C_5 
ROOT
ATOM      1  C   UNL d   1      32.893  21.500 -21.571  0.00  0.00     0.042 C 
ENDROOT
BRANCH   1   2
ATOM      2  C   UNL d   1      32.872  22.325 -21.582  0.00  0.00     0.199 C 
ATOM      3  O   UNL d   1      33.043  22.734 -22.266  0.00  0.00    -0.286 OA
BRANCH   2   4
ATOM      4  C   UNL d   1      32.676  22.729 -20.898  0.00  0.00     0.078 A 
ATOM      5  C   UNL d   1      32.110  23.311 -20.881  0.00  0.00     0.199 A 
ATOM      6  C   UNL d   1      31.924  23.702 -20.202  0.00  0.00     0.042 A 
ATOM      7  O   UNL d   1      31.694  23.512 -21.633  0.00  0.00    -0.286 OA
ATOM      8  C   UNL d   1      32.291  23.538 -19.496  0.00  0.00     0.003 A 
ATOM      9  C   UNL d   1      32.854  22.970 -19.478  0.00  0.00     0.000 A 
ATOM     10  C   UNL d   1      33.056  22.558 -20.170  0.00  0.00     0.006 A 
ATOM     11  C   UNL d   1      33.240  22.744 -18.911  0.00  0.00     0.000 C 
ENDBRANCH   2   4
ENDBRANCH   1   2
BRANCH   1  12
ATOM     12  C   UNL d   1      33.232  21.208 -22.273  0.00  0.00     0.003 C 
BRANCH  12  13
ATOM     13  C   UNL d   1      33.224  20.319 -22.410  0.00  0.00     0.002 A 
ATOM     14  C   UNL d   1      33.202  19.994 -23.136  0.00  0.00     0.027 A 
ATOM     15  C   UNL d   1      33.195  19.177 -23.240  0.00  0.00     0.123 A 
ATOM     16  O   UNL d   1      33.171  18.823 -24.022  0.00  0.00    -0.301 OA
ATOM     17  C   UNL d   1      33.211  18.632 -22.572  0.00  0.00     0.123 A 
ATOM     18  C   UNL d   1      33.163  18.015 -24.146  0.00  0.00     0.149 A 
ATOM     19  C   UNL d   1      33.180  17.463 -23.454  0.00  0.00     0.149 A 
ATOM     20  O   UNL d   1      33.203  17.786 -22.701  0.00  0.00    -0.301 OA
ATOM     21  C   UNL d   1      33.234  18.962 -21.799  0.00  0.00     0.027 A 
ATOM     22  C   UNL d   1      33.241  19.777 -21.705  0.00  0.00     0.002 A 
ENDBRANCH  12  13
ENDBRANCH   1  12
TORSDOF 4
ENDMDL
MODEL 4
REMARK VINA RESULT:      -2.7      1.131      4.870
REMARK  4 active torsions:
REMARK  status: ('A' for Active; 'I' for Inactive)
REMARK    1  A    between atoms: C_2  and  C_1 
REMARK    2  A    between atoms: C_3  and  C_2 
REMARK    3  A    between atoms: C_5  and  C_3 
REMARK    4  A    between atoms: C_13  and  C_5 
ROOT
ATOM      1  C   UNL d   1      32.891  19.307 -22.885  0.00  0.00     0.042 C 
ENDROOT
BRANCH   1   2
ATOM      2  C   UNL d   1      33.092  20.093 -23.036  0.00  0.00     0.199 C 
ATOM      3  O   UNL d   1      33.241  20.343 -23.798  0.00  0.00    -0.286 OA
BRANCH   2   4
ATOM      4  C   UNL d   1      33.141  20.619 -22.412  0.00  0.00     0.078 A 
ATOM      5  C   UNL d   1      33.191  21.423 -22.521  0.00  0.00     0.199 A 
ATOM      6  C   UNL d   1      33.239  21.933 -21.900  0.00  0.00     0.042 A 
ATOM      7  O   UNL d   1      33.192  21.733 -23.347  0.00  0.00    -0.286 OA
ATOM      8  C   UNL d   1      33.240  21.674 -21.129  0.00  0.00     0.003 A 
ATOM      9  C   UNL d   1      33.192  20.888 -20.987  0.00  0.00     0.000 A 
ATOM     10  C   UNL d   1      33.142  20.350 -21.618  0.00  0.00     0.006 A 
ATOM     11  C   UNL d   1      33.185  20.552 -20.348  0.00  0.00     0.000 C 
ENDBRANCH   2   4
ENDBRANCH   1   2
BRANCH   1  12
ATOM     12  C   UNL d   1      32.945  18.853 -23.582  0.00  0.00     0.003 C 
BRANCH  12  13
ATOM     13  C   UNL d   1      32.611  18.018 -23.572  0.00  0.00     0.002 A 
ATOM     14  C   UNL d   1      31.863  17.849 -23.782  0.00  0.00     0.027 A 
ATOM     15  C   UNL d   1      31.576  17.077 -23.766  0.00  0.00     0.123 A 
ATOM     16  O   UNL d   1      30.770  16.892 -23.992  0.00  0.00    -0.301 OA
ATOM     17  C   UNL d   1      32.069  16.414 -23.521  0.00  0.00     0.123 A 
ATOM     18  C   UNL d   1      30.466  16.133 -23.983  0.00  0.00     0.149 A 
ATOM     19  C   UNL d   1      30.980  15.456 -23.729  0.00  0.00     0.149 A 
ATOM     20  O   UNL d   1      31.753  15.618 -23.510  0.00  0.00    -0.301 OA
ATOM     21  C   UNL d   1      32.862  16.577 -23.295  0.00  0.00     0.027 A 
ATOM     22  C   UNL d   1      33.139  17.349 -23.315  0.00  0.00     0.002 A 
ENDBRANCH  12  13
ENDBRANCH   1  12
TORSDOF 4
ENDMDL
