MODEL 1
REMARK VINA RESULT:      32.0      0.000      0.000
REMARK  7 active torsions:
REMARK  status: ('A' for Active; 'I' for Inactive)
REMARK    1  A    between atoms: C_2  and  S_1 
REMARK    2  A    between atoms: N_6  and  S_1 
REMARK    3  A    between atoms: O_14  and  C_5 
REMARK    4  A    between atoms: C_15  and  N_6 
REMARK    5  A    between atoms: O_16  and  C_7 
REMARK    6  A    between atoms: C_11  and  C_19 
REMARK    7  A    between atoms: C_19  and  C_15 
ROOT
ATOM      1  C   UNL d   1      15.207  13.941  -0.615  0.00  0.00     0.112 C 
ENDROOT
BRANCH   1   2
ATOM      2  N   UNL d   1      14.798  13.261  -0.403  0.00  0.00    -0.157 NA
BRANCH   2   3
ATOM      3  S   UNL d   1      15.120  12.514  -0.547  0.00  0.00     0.285 S 
ATOM      4  O   UNL d   1      15.827  12.766  -0.204  0.00  0.00    -0.198 OA
ATOM      5  O   UNL d   1      15.449  11.779  -0.685  0.00  0.00    -0.198 OA
BRANCH   3   6
ATOM      6  C   UNL d   1      14.409  12.270  -0.889  0.00  0.00     0.105 A 
ATOM      7  C   UNL d   1      14.318  12.263  -1.712  0.00  0.00     0.013 A 
ATOM      8  C   UNL d   1      13.605  12.018  -2.045  0.00  0.00     0.001 A 
ATOM      9  C   UNL d   1      13.512  12.010  -2.864  0.00  0.00     0.000 C 
ATOM     10  C   UNL d   1      12.981  11.780  -1.557  0.00  0.00     0.000 A 
ATOM     11  C   UNL d   1      13.073  11.788  -0.738  0.00  0.00     0.001 A 
ATOM     12  C   UNL d   1      13.786  12.033  -0.405  0.00  0.00     0.013 A 
ENDBRANCH   3   6
ENDBRANCH   2   3
ENDBRANCH   1   2
BRANCH   1  13
ATOM     13  C   UNL d   1      15.190  14.589  -0.116  0.00  0.00     0.022 C 
BRANCH  13  14
ATOM     14  C   UNL d   1      15.267  15.342  -0.428  0.00  0.00     0.004 A 
ATOM     15  C   UNL d   1      14.917  15.534  -1.150  0.00  0.00     0.026 A 
ATOM     16  C   UNL d   1      14.996  16.294  -1.461  0.00  0.00     0.116 A 
ATOM     17  C   UNL d   1      15.435  16.867  -1.037  0.00  0.00     0.116 A 
ATOM     18  C   UNL d   1      15.778  16.673  -0.325  0.00  0.00     0.026 A 
ATOM     19  C   UNL d   1      15.700  15.917  -0.014  0.00  0.00     0.002 A 
BRANCH  16  20
ATOM     20  O   UNL d   1      14.645  16.483  -2.183  0.00  0.00    -0.326 OA
ATOM     21  C   UNL d   1      14.756  16.094  -2.956  0.00  0.00     0.181 C 
ENDBRANCH  16  20
BRANCH  17  22
ATOM     22  O   UNL d   1      15.522  17.610  -1.325  0.00  0.00    -0.326 OA
ATOM     23  C   UNL d   1      15.019  18.210  -1.101  0.00  0.00     0.181 C 
ENDBRANCH  17  22
ENDBRANCH  13  14
ENDBRANCH   1  13
TORSDOF 7
ENDMDL
