MODEL 1
REMARK VINA RESULT:     174.6      0.000      0.000
REMARK  8 active torsions:
REMARK  status: ('A' for Active; 'I' for Inactive)
REMARK    1  A    between atoms: C_14  and  C_1 
REMARK    2  A    between atoms: C_6  and  C_2 
REMARK    3  A    between atoms: C_19  and  C_4 
REMARK       I    between atoms: N_13  and  C_6 
REMARK    4  A    between atoms: C_7  and  S_18 
REMARK    5  A    between atoms: C_26  and  N_13 
REMARK    6  A    between atoms: C_22  and  C_14 
REMARK    7  A    between atoms: S_18  and  C_22 
REMARK    8  A    between atoms: O_31  and  C_27 
ROOT
ATOM      1  C   UNL d   1      61.110  45.346  51.606  0.00  0.00     0.076 A 
ATOM      2  C   UNL d   1      61.292  46.304  50.587  0.00  0.00     0.092 A 
ATOM      3  C   UNL d   1      61.338  45.533  50.843  0.00  0.00     0.018 A 
ATOM      4  C   UNL d   1      61.018  46.891  51.091  0.00  0.00     0.120 A 
ATOM      5  N   UNL d   1      60.790  46.709  51.850  0.00  0.00    -0.238 NA
ATOM      6  C   UNL d   1      60.836  45.934  52.110  0.00  0.00     0.087 A 
ATOM      7  C   UNL d   1      61.520  46.491  49.824  0.00  0.00     0.103 C 
ATOM      8  N   UNL d   1      61.745  46.676  49.073  0.00  0.00    -0.191 NA
ATOM      9  C   UNL d   1      60.621  45.744  52.837  0.00  0.00     0.021 C 
ENDROOT
BRANCH   4  10
ATOM     10  S   UNL d   1      60.973  47.667  50.831  0.00  0.00    -0.063 SA
BRANCH  10  11
ATOM     11  C   UNL d   1      60.718  48.254  51.336  0.00  0.00     0.079 C 
BRANCH  11  12
ATOM     12  C   UNL d   1      60.469  48.970  51.041  0.00  0.00     0.207 C 
ATOM     13  O   UNL d   1      60.855  49.701  51.307  0.00  0.00    -0.286 OA
BRANCH  12  14
ATOM     14  C   UNL d   1      59.921  49.191  50.531  0.00  0.00     0.103 A 
ATOM     15  C   UNL d   1      59.931  49.514  49.790  0.00  0.00     0.303 A 
ATOM     16  O   UNL d   1      59.229  49.675  49.416  0.00  0.00    -0.273 OA
ATOM     17  O   UNL d   1      60.663  49.697  49.373  0.00  0.00    -0.259 OA
ATOM     18  C   UNL d   1      58.517  49.513  49.784  0.00  0.00     0.103 A 
ATOM     19  C   UNL d   1      58.502  49.191  50.524  0.00  0.00     0.023 A 
ATOM     20  C   UNL d   1      57.796  49.685  49.386  0.00  0.00     0.025 A 
ATOM     21  C   UNL d   1      59.213  49.026  50.905  0.00  0.00     0.011 A 
ATOM     22  C   UNL d   1      57.775  49.022  50.907  0.00  0.00     0.002 A 
ATOM     23  C   UNL d   1      57.060  49.187  50.525  0.00  0.00     0.000 A 
ATOM     24  C   UNL d   1      57.074  49.522  49.756  0.00  0.00     0.002 A 
ENDBRANCH  12  14
ENDBRANCH  11  12
ENDBRANCH  10  11
ENDBRANCH   4  10
BRANCH   3  25
ATOM     25  C   UNL d   1      61.611  44.948  50.341  0.00  0.00     0.001 A 
ATOM     26  C   UNL d   1      62.413  44.903  50.149  0.00  0.00     0.002 A 
ATOM     27  C   UNL d   1      62.689  44.310  49.641  0.00  0.00     0.024 A 
ATOM     28  C   UNL d   1      62.163  43.762  49.326  0.00  0.00     0.094 A 
ATOM     29  C   UNL d   1      61.361  43.801  49.513  0.00  0.00     0.024 A 
ATOM     30  C   UNL d   1      61.085  44.394  50.022  0.00  0.00     0.002 A 
BRANCH  28  31
ATOM     31  O   UNL d   1      62.457  43.191  48.831  0.00  0.00    -0.328 OA
ATOM     32  C   UNL d   1      62.772  42.430  49.234  0.00  0.00     0.181 C 
ENDBRANCH  28  31
ENDBRANCH   3  25
BRANCH   1  33
ATOM     33  C   UNL d   1      61.139  44.380  52.010  0.00  0.00     0.281 C 
ATOM     34  N   UNL d   1      61.615  43.918  52.421  0.00  0.00    -0.208 NA
ATOM     35  O   UNL d   1      60.399  43.808  51.891  0.00  0.00    -0.265 OA
BRANCH  34  36
ATOM     36  C   UNL d   1      61.361  43.166  52.604  0.00  0.00     0.085 A 
ATOM     37  C   UNL d   1      61.920  42.577  52.754  0.00  0.00     0.019 A 
ATOM     38  C   UNL d   1      61.673  41.805  52.942  0.00  0.00     0.002 A 
ATOM     39  C   UNL d   1      60.857  41.630  52.978  0.00  0.00     0.000 A 
ATOM     40  C   UNL d   1      60.291  42.227  52.827  0.00  0.00     0.002 A 
ATOM     41  C   UNL d   1      60.554  42.995  52.640  0.00  0.00     0.019 A 
ENDBRANCH  34  36
ENDBRANCH   1  33
TORSDOF 8
ENDMDL
