MODEL 1
REMARK VINA RESULT:      45.1      0.000      0.000
REMARK  4 active torsions:
REMARK  status: ('A' for Active; 'I' for Inactive)
REMARK    1  A    between atoms: C_3  and  S_1 
REMARK    2  A    between atoms: N_4  and  S_1 
REMARK    3  A    between atoms: C_2  and  C_8 
REMARK       I    between atoms: N_5  and  C_2 
REMARK    4  A    between atoms: C_14  and  N_5 
ROOT
ATOM      1  C   UNL d   1     -55.530-102.316 -38.101  0.00  0.00     0.104 A 
ATOM      2  C   UNL d   1     -55.321-102.201 -39.762  0.00  0.00     0.058 A 
ATOM      3  C   UNL d   1     -55.921-102.795 -38.600  0.00  0.00     0.013 A 
ATOM      4  C   UNL d   1     -55.025-101.769 -38.421  0.00  0.00     0.013 A 
ATOM      5  C   UNL d   1     -54.900-101.688 -39.232  0.00  0.00     0.005 A 
ATOM      6  C   UNL d   1     -55.820-102.741 -39.422  0.00  0.00     0.005 A 
ENDROOT
BRANCH   2   7
ATOM      7  C   UNL d   1     -55.217-102.146 -40.602  0.00  0.00     0.279 C 
ATOM      8  N   UNL d   1     -55.114-101.463 -40.969  0.00  0.00    -0.208 NA
ATOM      9  O   UNL d   1     -55.230-102.879 -41.035  0.00  0.00    -0.265 OA
BRANCH   8  10
ATOM     10  C   UNL d   1     -55.015-101.438 -41.789  0.00  0.00     0.085 A 
ATOM     11  C   UNL d   1     -55.116-100.738 -42.178  0.00  0.00     0.020 A 
ATOM     12  C   UNL d   1     -55.017-100.714 -42.997  0.00  0.00     0.013 A 
ATOM     13  C   UNL d   1     -54.818-101.391 -43.425  0.00  0.00     0.058 A 
ATOM     14  C   UNL d   1     -54.716-102.111 -43.011  0.00  0.00     0.013 A 
ATOM     15 CL   UNL d   1     -54.724-101.316 -44.296  0.00  0.00    -0.082 Cl
ATOM     16  C   UNL d   1     -54.816-102.129 -42.193  0.00  0.00     0.020 A 
ENDBRANCH   8  10
ENDBRANCH   2   7
BRANCH   1  17
ATOM     17  S   UNL d   1     -55.591-102.320 -37.214  0.00  0.00     0.271 S 
ATOM     18  O   UNL d   1     -56.274-102.814 -37.193  0.00  0.00    -0.200 OA
ATOM     19  O   UNL d   1     -54.938-101.848 -37.239  0.00  0.00    -0.200 OA
BRANCH  17  20
ATOM     20  N   UNL d   1     -55.592-102.282 -36.336  0.00  0.00    -0.226 N 
ATOM     21  C   UNL d   1     -54.883-102.416 -35.913  0.00  0.00     0.111 C 
ATOM     22  C   UNL d   1     -56.291-102.113 -35.929  0.00  0.00     0.111 C 
ENDBRANCH  17  20
ENDBRANCH   1  17
TORSDOF 4
ENDMDL
MODEL 2
REMARK VINA RESULT:      48.1      1.232      1.739
REMARK  4 active torsions:
REMARK  status: ('A' for Active; 'I' for Inactive)
REMARK    1  A    between atoms: C_3  and  S_1 
REMARK    2  A    between atoms: N_4  and  S_1 
REMARK    3  A    between atoms: C_2  and  C_8 
REMARK       I    between atoms: N_5  and  C_2 
REMARK    4  A    between atoms: C_14  and  N_5 
ROOT
ATOM      1  C   UNL d   1     -55.435-102.253 -39.719  0.00  0.00     0.104 A 
ATOM      2  C   UNL d   1     -55.215-102.058 -41.371  0.00  0.00     0.058 A 
ATOM      3  C   UNL d   1     -55.244-101.547 -40.029  0.00  0.00     0.013 A 
ATOM      4  C   UNL d   1     -55.521-102.878 -40.228  0.00  0.00     0.013 A 
ATOM      5  C   UNL d   1     -55.419-102.815 -41.045  0.00  0.00     0.005 A 
ATOM      6  C   UNL d   1     -55.135-101.447 -40.846  0.00  0.00     0.005 A 
ENDROOT
BRANCH   2   7
ATOM      7  C   UNL d   1     -55.103-101.956 -42.207  0.00  0.00     0.279 C 
ATOM      8  N   UNL d   1     -55.181-101.264 -42.561  0.00  0.00    -0.208 NA
ATOM      9  O   UNL d   1     -54.898-102.655 -42.649  0.00  0.00    -0.265 OA
BRANCH   8  10
ATOM     10  C   UNL d   1     -55.066-101.194 -43.375  0.00  0.00     0.085 A 
ATOM     11  C   UNL d   1     -55.189-100.480 -43.733  0.00  0.00     0.020 A 
ATOM     12  C   UNL d   1     -55.073-100.411 -44.546  0.00  0.00     0.013 A 
ATOM     13  C   UNL d   1     -54.836-101.056 -45.002  0.00  0.00     0.058 A 
ATOM     14  C   UNL d   1     -54.713-101.791 -44.622  0.00  0.00     0.013 A 
ATOM     15 CL   UNL d   1     -54.727-100.934 -45.866  0.00  0.00    -0.082 Cl
ATOM     16  C   UNL d   1     -54.829-101.855 -43.808  0.00  0.00     0.020 A 
ENDBRANCH   8  10
ENDBRANCH   2   7
BRANCH   1  17
ATOM     17  S   UNL d   1     -55.567-102.430 -38.858  0.00  0.00     0.271 S 
ATOM     18  O   UNL d   1     -56.372-102.661 -38.957  0.00  0.00    -0.200 OA
ATOM     19  O   UNL d   1     -54.797-102.208 -38.769  0.00  0.00    -0.200 OA
BRANCH  17  20
ATOM     20  N   UNL d   1     -55.629-102.585 -37.995  0.00  0.00    -0.226 N 
ATOM     21  C   UNL d   1     -54.972-102.436 -37.499  0.00  0.00     0.111 C 
ATOM     22  C   UNL d   1     -56.332-102.878 -37.675  0.00  0.00     0.111 C 
ENDBRANCH  17  20
ENDBRANCH   1  17
TORSDOF 4
ENDMDL
