MODEL 1
REMARK VINA RESULT:      -8.0      0.000      0.000
REMARK  5 active torsions:
REMARK  status: ('A' for Active; 'I' for Inactive)
REMARK    1  A    between atoms: C_2  and  S_1 
REMARK    2  A    between atoms: N_3  and  S_1 
REMARK    3  A    between atoms: C_6  and  C_7 
REMARK    4  A    between atoms: C_7  and  C_8 
REMARK    5  A    between atoms: C_8  and  C_12 
ROOT
ATOM      1  C   UNL d   1     -47.906  13.750  22.561  0.00  0.00     0.104 A 
ATOM      2  C   UNL d   1     -47.793  14.545  22.660  0.00  0.00     0.012 A 
ATOM      3  C   UNL d   1     -47.278  13.237  22.535  0.00  0.00     0.013 A 
ATOM      4  C   UNL d   1     -46.497  13.537  22.613  0.00  0.00     0.001 A 
ATOM      5  C   UNL d   1     -47.012  14.845  22.737  0.00  0.00     0.001 A 
ATOM      6  C   UNL d   1     -46.386  14.334  22.711  0.00  0.00     0.000 A 
ATOM      7  C   UNL d   1     -48.448  15.068  22.686  0.00  0.00     0.001 C 
ENDROOT
BRANCH   1   8
ATOM      8  S   UNL d   1     -48.686  13.450  22.484  0.00  0.00     0.271 S 
ATOM      9  O   UNL d   1     -48.749  13.403  23.298  0.00  0.00    -0.200 OA
ATOM     10  O   UNL d   1     -48.622  13.498  21.648  0.00  0.00    -0.200 OA
BRANCH   8  11
ATOM     11  N   UNL d   1     -49.446  13.158  22.417  0.00  0.00    -0.229 N 
ATOM     12  C   UNL d   1     -49.787  12.767  23.055  0.00  0.00     0.092 A 
ATOM     13  C   UNL d   1     -50.558  12.471  22.986  0.00  0.00     0.020 A 
ATOM     14  C   UNL d   1     -50.985  12.568  22.277  0.00  0.00     0.003 A 
ATOM     15  C   UNL d   1     -50.623  12.960  21.659  0.00  0.00     0.020 A 
ATOM     16  C   UNL d   1     -49.855  13.256  21.724  0.00  0.00     0.092 A 
ENDBRANCH   8  11
ENDBRANCH   1   8
BRANCH   4  17
ATOM     17  C   UNL d   1     -45.842  12.993  22.585  0.00  0.00     0.006 C 
BRANCH  17  18
ATOM     18  C   UNL d   1     -45.149  13.164  22.150  0.00  0.00     0.070 C 
BRANCH  18  19
ATOM     19  C   UNL d   1     -44.533  12.626  22.127  0.00  0.00     0.211 C 
ATOM     20  O   UNL d   1     -44.484  12.021  22.697  0.00  0.00    -0.644 OA
ATOM     21  O   UNL d   1     -43.961  12.677  21.545  0.00  0.00    -0.644 OA
ENDBRANCH  18  19
ENDBRANCH  17  18
ENDBRANCH   4  17
TORSDOF 5
ENDMDL
MODEL 2
REMARK VINA RESULT:      -7.7      1.113      1.713
REMARK  5 active torsions:
REMARK  status: ('A' for Active; 'I' for Inactive)
REMARK    1  A    between atoms: C_2  and  S_1 
REMARK    2  A    between atoms: N_3  and  S_1 
REMARK    3  A    between atoms: C_6  and  C_7 
REMARK    4  A    between atoms: C_7  and  C_8 
REMARK    5  A    between atoms: C_8  and  C_12 
ROOT
ATOM      1  C   UNL d   1     -48.203  12.502  22.973  0.00  0.00     0.104 A 
ATOM      2  C   UNL d   1     -48.204  11.821  23.410  0.00  0.00     0.012 A 
ATOM      3  C   UNL d   1     -47.512  12.893  22.808  0.00  0.00     0.013 A 
ATOM      4  C   UNL d   1     -46.785  12.586  23.096  0.00  0.00     0.001 A 
ATOM      5  C   UNL d   1     -47.477  11.514  23.698  0.00  0.00     0.001 A 
ATOM      6  C   UNL d   1     -46.788  11.903  23.534  0.00  0.00     0.000 A 
ATOM      7  C   UNL d   1     -48.924  11.423  23.576  0.00  0.00     0.001 C 
ENDROOT
BRANCH   1   8
ATOM      8  S   UNL d   1     -48.930  12.809  22.685  0.00  0.00     0.271 S 
ATOM      9  O   UNL d   1     -48.862  12.342  22.017  0.00  0.00    -0.200 OA
ATOM     10  O   UNL d   1     -48.998  13.289  23.371  0.00  0.00    -0.200 OA
BRANCH   8  11
ATOM     11  N   UNL d   1     -49.636  13.104  22.399  0.00  0.00    -0.229 N 
ATOM     12  C   UNL d   1     -50.096  13.586  22.878  0.00  0.00     0.092 A 
ATOM     13  C   UNL d   1     -50.813  13.885  22.586  0.00  0.00     0.020 A 
ATOM     14  C   UNL d   1     -51.064  13.698  21.814  0.00  0.00     0.003 A 
ATOM     15  C   UNL d   1     -50.587  13.216  21.360  0.00  0.00     0.020 A 
ATOM     16  C   UNL d   1     -49.874  12.917  21.647  0.00  0.00     0.092 A 
ENDBRANCH   8  11
ENDBRANCH   1   8
BRANCH   4  17
ATOM     17  C   UNL d   1     -46.062  13.002  22.919  0.00  0.00     0.006 C 
BRANCH  17  18
ATOM     18  C   UNL d   1     -45.599  12.808  22.251  0.00  0.00     0.070 C 
BRANCH  18  19
ATOM     19  C   UNL d   1     -44.905  13.215  22.099  0.00  0.00     0.211 C 
ATOM     20  O   UNL d   1     -44.870  14.040  22.207  0.00  0.00    -0.644 OA
ATOM     21  O   UNL d   1     -44.241  12.816  21.840  0.00  0.00    -0.644 OA
ENDBRANCH  18  19
ENDBRANCH  17  18
ENDBRANCH   4  17
TORSDOF 5
ENDMDL
MODEL 3
REMARK VINA RESULT:      -6.6      1.924      4.009
REMARK  5 active torsions:
REMARK  status: ('A' for Active; 'I' for Inactive)
REMARK    1  A    between atoms: C_2  and  S_1 
REMARK    2  A    between atoms: N_3  and  S_1 
REMARK    3  A    between atoms: C_6  and  C_7 
REMARK    4  A    between atoms: C_7  and  C_8 
REMARK    5  A    between atoms: C_8  and  C_12 
ROOT
ATOM      1  C   UNL d   1     -47.405  13.703  22.937  0.00  0.00     0.104 A 
ATOM      2  C   UNL d   1     -46.899  14.220  22.576  0.00  0.00     0.012 A 
ATOM      3  C   UNL d   1     -48.168  13.916  23.113  0.00  0.00     0.013 A 
ATOM      4  C   UNL d   1     -48.436  14.687  22.916  0.00  0.00     0.001 A 
ATOM      5  C   UNL d   1     -47.167  14.992  22.379  0.00  0.00     0.001 A 
ATOM      6  C   UNL d   1     -47.927  15.204  22.554  0.00  0.00     0.000 A 
ATOM      7  C   UNL d   1     -46.111  13.992  22.398  0.00  0.00     0.001 C 
ENDROOT
BRANCH   1   8
ATOM      8  S   UNL d   1     -47.136  12.932  23.134  0.00  0.00     0.271 S 
ATOM      9  O   UNL d   1     -47.651  12.612  22.584  0.00  0.00    -0.200 OA
ATOM     10  O   UNL d   1     -46.607  13.260  23.698  0.00  0.00    -0.200 OA
BRANCH   8  11
ATOM     11  N   UNL d   1     -46.880  12.179  23.320  0.00  0.00    -0.229 N 
ATOM     12  C   UNL d   1     -46.076  12.012  23.312  0.00  0.00     0.092 A 
ATOM     13  C   UNL d   1     -45.817  11.247  23.501  0.00  0.00     0.020 A 
ATOM     14  C   UNL d   1     -46.367  10.652  23.698  0.00  0.00     0.003 A 
ATOM     15  C   UNL d   1     -47.160  10.846  23.698  0.00  0.00     0.020 A 
ATOM     16  C   UNL d   1     -47.421  11.606  23.510  0.00  0.00     0.092 A 
ENDBRANCH   8  11
ENDBRANCH   1   8
BRANCH   4  17
ATOM     17  C   UNL d   1     -49.239  14.904  23.103  0.00  0.00     0.006 C 
BRANCH  17  18
ATOM     18  C   UNL d   1     -49.703  15.359  22.577  0.00  0.00     0.070 C 
BRANCH  18  19
ATOM     19  C   UNL d   1     -50.496  15.487  22.733  0.00  0.00     0.211 C 
ATOM     20  O   UNL d   1     -51.061  15.398  22.128  0.00  0.00    -0.644 OA
ATOM     21  O   UNL d   1     -50.740  15.703  23.482  0.00  0.00    -0.644 OA
ENDBRANCH  18  19
ENDBRANCH  17  18
ENDBRANCH   4  17
TORSDOF 5
ENDMDL
MODEL 4
REMARK VINA RESULT:      -6.4      1.616      4.427
REMARK  5 active torsions:
REMARK  status: ('A' for Active; 'I' for Inactive)
REMARK    1  A    between atoms: C_2  and  S_1 
REMARK    2  A    between atoms: N_3  and  S_1 
REMARK    3  A    between atoms: C_6  and  C_7 
REMARK    4  A    between atoms: C_7  and  C_8 
REMARK    5  A    between atoms: C_8  and  C_12 
ROOT
ATOM      1  C   UNL d   1     -48.470  12.848  23.046  0.00  0.00     0.104 A 
ATOM      2  C   UNL d   1     -48.666  12.163  23.427  0.00  0.00     0.012 A 
ATOM      3  C   UNL d   1     -49.037  13.389  22.836  0.00  0.00     0.013 A 
ATOM      4  C   UNL d   1     -49.842  13.233  23.019  0.00  0.00     0.001 A 
ATOM      5  C   UNL d   1     -49.471  12.007  23.610  0.00  0.00     0.001 A 
ATOM      6  C   UNL d   1     -50.037  12.545  23.401  0.00  0.00     0.000 A 
ATOM      7  C   UNL d   1     -48.072  11.609  23.641  0.00  0.00     0.001 C 
ENDROOT
BRANCH   1   8
ATOM      8  S   UNL d   1     -47.665  13.004  22.863  0.00  0.00     0.271 S 
ATOM      9  O   UNL d   1     -47.798  12.781  22.087  0.00  0.00    -0.200 OA
ATOM     10  O   UNL d   1     -47.528  13.232  23.660  0.00  0.00    -0.200 OA
BRANCH   8  11
ATOM     11  N   UNL d   1     -46.883  13.153  22.678  0.00  0.00    -0.229 N 
ATOM     12  C   UNL d   1     -46.418  12.549  22.372  0.00  0.00     0.092 A 
ATOM     13  C   UNL d   1     -45.625  12.701  22.184  0.00  0.00     0.020 A 
ATOM     14  C   UNL d   1     -45.301  13.459  22.304  0.00  0.00     0.003 A 
ATOM     15  C   UNL d   1     -45.786  14.041  22.609  0.00  0.00     0.020 A 
ATOM     16  C   UNL d   1     -46.576  13.893  22.797  0.00  0.00     0.092 A 
ENDBRANCH   8  11
ENDBRANCH   1   8
BRANCH   4  17
ATOM     17  C   UNL d   1     -50.433  13.805  22.796  0.00  0.00     0.006 C 
BRANCH  17  18
ATOM     18  C   UNL d   1     -50.615  14.459  23.284  0.00  0.00     0.070 C 
BRANCH  18  19
ATOM     19  C   UNL d   1     -50.913  15.147  22.956  0.00  0.00     0.211 C 
ATOM     20  O   UNL d   1     -51.064  15.191  22.138  0.00  0.00    -0.644 OA
ATOM     21  O   UNL d   1     -51.064  15.797  23.428  0.00  0.00    -0.644 OA
ENDBRANCH  18  19
ENDBRANCH  17  18
ENDBRANCH   4  17
TORSDOF 5
ENDMDL
MODEL 5
REMARK VINA RESULT:      -6.2      1.623      4.252
REMARK  5 active torsions:
REMARK  status: ('A' for Active; 'I' for Inactive)
REMARK    1  A    between atoms: C_2  and  S_1 
REMARK    2  A    between atoms: N_3  and  S_1 
REMARK    3  A    between atoms: C_6  and  C_7 
REMARK    4  A    between atoms: C_7  and  C_8 
REMARK    5  A    between atoms: C_8  and  C_12 
ROOT
ATOM      1  C   UNL d   1     -47.190  13.372  22.730  0.00  0.00     0.104 A 
ATOM      2  C   UNL d   1     -47.311  14.163  22.845  0.00  0.00     0.012 A 
ATOM      3  C   UNL d   1     -47.810  12.849  22.727  0.00  0.00     0.013 A 
ATOM      4  C   UNL d   1     -48.591  13.135  22.846  0.00  0.00     0.001 A 
ATOM      5  C   UNL d   1     -48.092  14.449  22.964  0.00  0.00     0.001 A 
ATOM      6  C   UNL d   1     -48.710  13.929  22.961  0.00  0.00     0.000 A 
ATOM      7  C   UNL d   1     -46.663  14.698  22.846  0.00  0.00     0.001 C 
ENDROOT
BRANCH   1   8
ATOM      8  S   UNL d   1     -46.409  13.086  22.611  0.00  0.00     0.271 S 
ATOM      9  O   UNL d   1     -46.496  13.187  21.803  0.00  0.00    -0.200 OA
ATOM     10  O   UNL d   1     -46.321  12.983  23.439  0.00  0.00    -0.200 OA
BRANCH   8  11
ATOM     11  N   UNL d   1     -45.651  12.809  22.487  0.00  0.00    -0.229 N 
ATOM     12  C   UNL d   1     -45.181  13.160  21.912  0.00  0.00     0.092 A 
ATOM     13  C   UNL d   1     -44.412  12.879  21.787  0.00  0.00     0.020 A 
ATOM     14  C   UNL d   1     -44.116  12.245  22.240  0.00  0.00     0.003 A 
ATOM     15  C   UNL d   1     -44.604  11.915  22.805  0.00  0.00     0.020 A 
ATOM     16  C   UNL d   1     -45.370  12.192  22.932  0.00  0.00     0.092 A 
ENDBRANCH   8  11
ENDBRANCH   1   8
BRANCH   4  17
ATOM     17  C   UNL d   1     -49.238  12.580  22.842  0.00  0.00     0.006 C 
BRANCH  17  18
ATOM     18  C   UNL d   1     -49.621  12.349  23.548  0.00  0.00     0.070 C 
BRANCH  18  19
ATOM     19  C   UNL d   1     -50.210  11.782  23.531  0.00  0.00     0.211 C 
ATOM     20  O   UNL d   1     -50.993  11.996  23.343  0.00  0.00    -0.644 OA
ATOM     21  O   UNL d   1     -50.037  11.001  23.698  0.00  0.00    -0.644 OA
ENDBRANCH  18  19
ENDBRANCH  17  18
ENDBRANCH   4  17
TORSDOF 5
ENDMDL
MODEL 6
REMARK VINA RESULT:      -5.6      8.448      9.840
REMARK  5 active torsions:
REMARK  status: ('A' for Active; 'I' for Inactive)
REMARK    1  A    between atoms: C_2  and  S_1 
REMARK    2  A    between atoms: N_3  and  S_1 
REMARK    3  A    between atoms: C_6  and  C_7 
REMARK    4  A    between atoms: C_7  and  C_8 
REMARK    5  A    between atoms: C_8  and  C_12 
ROOT
ATOM      1  C   UNL d   1     -39.626  14.267  18.595  0.00  0.00     0.104 A 
ATOM      2  C   UNL d   1     -40.415  14.439  18.556  0.00  0.00     0.012 A 
ATOM      3  C   UNL d   1     -39.239  14.238  19.307  0.00  0.00     0.013 A 
ATOM      4  C   UNL d   1     -39.665  14.390  20.015  0.00  0.00     0.001 A 
ATOM      5  C   UNL d   1     -40.842  14.591  19.263  0.00  0.00     0.001 A 
ATOM      6  C   UNL d   1     -40.456  14.563  19.973  0.00  0.00     0.000 A 
ATOM      7  C   UNL d   1     -40.809  14.467  17.814  0.00  0.00     0.001 C 
ENDROOT
BRANCH   1   8
ATOM      8  S   UNL d   1     -39.200  14.115  17.888  0.00  0.00     0.271 S 
ATOM      9  O   UNL d   1     -38.945  14.892  17.875  0.00  0.00    -0.200 OA
ATOM     10  O   UNL d   1     -39.463  13.317  17.901  0.00  0.00    -0.200 OA
BRANCH   8  11
ATOM     11  N   UNL d   1     -38.783  13.975  17.199  0.00  0.00    -0.229 N 
ATOM     12  C   UNL d   1     -38.441  13.239  17.077  0.00  0.00     0.092 A 
ATOM     13  C   UNL d   1     -38.018  13.098  16.378  0.00  0.00     0.020 A 
ATOM     14  C   UNL d   1     -37.940  13.697  15.804  0.00  0.00     0.003 A 
ATOM     15  C   UNL d   1     -38.290  14.419  15.951  0.00  0.00     0.020 A 
ATOM     16  C   UNL d   1     -38.712  14.563  16.645  0.00  0.00     0.092 A 
ENDBRANCH   8  11
ENDBRANCH   1   8
BRANCH   4  17
ATOM     17  C   UNL d   1     -39.252  14.358  20.760  0.00  0.00     0.006 C 
BRANCH  17  18
ATOM     18  C   UNL d   1     -39.579  13.973  21.425  0.00  0.00     0.070 C 
BRANCH  18  19
ATOM     19  C   UNL d   1     -39.147  13.907  22.117  0.00  0.00     0.211 C 
ATOM     20  O   UNL d   1     -39.013  14.577  22.594  0.00  0.00    -0.644 OA
ATOM     21  O   UNL d   1     -38.842  13.184  22.346  0.00  0.00    -0.644 OA
ENDBRANCH  18  19
ENDBRANCH  17  18
ENDBRANCH   4  17
TORSDOF 5
ENDMDL
MODEL 7
REMARK VINA RESULT:      -5.5      7.964      8.997
REMARK  5 active torsions:
REMARK  status: ('A' for Active; 'I' for Inactive)
REMARK    1  A    between atoms: C_2  and  S_1 
REMARK    2  A    between atoms: N_3  and  S_1 
REMARK    3  A    between atoms: C_6  and  C_7 
REMARK    4  A    between atoms: C_7  and  C_8 
REMARK    5  A    between atoms: C_8  and  C_12 
ROOT
ATOM      1  C   UNL d   1     -40.088  14.840  20.528  0.00  0.00     0.104 A 
ATOM      2  C   UNL d   1     -40.507  15.473  20.806  0.00  0.00     0.012 A 
ATOM      3  C   UNL d   1     -40.115  14.629  19.745  0.00  0.00     0.013 A 
ATOM      4  C   UNL d   1     -40.588  15.078  19.214  0.00  0.00     0.001 A 
ATOM      5  C   UNL d   1     -40.980  15.921  20.276  0.00  0.00     0.001 A 
ATOM      6  C   UNL d   1     -41.007  15.712  19.496  0.00  0.00     0.000 A 
ATOM      7  C   UNL d   1     -40.473  15.683  21.618  0.00  0.00     0.001 C 
ENDROOT
BRANCH   1   8
ATOM      8  S   UNL d   1     -39.615  14.391  21.059  0.00  0.00     0.271 S 
ATOM      9  O   UNL d   1     -38.984  14.893  20.920  0.00  0.00    -0.200 OA
ATOM     10  O   UNL d   1     -40.263  13.876  21.201  0.00  0.00    -0.200 OA
BRANCH   8  11
ATOM     11  N   UNL d   1     -39.149  13.960  21.573  0.00  0.00    -0.229 N 
ATOM     12  C   UNL d   1     -38.411  13.698  21.326  0.00  0.00     0.092 A 
ATOM     13  C   UNL d   1     -37.940  13.260  21.849  0.00  0.00     0.020 A 
ATOM     14  C   UNL d   1     -38.210  13.088  22.618  0.00  0.00     0.003 A 
ATOM     15  C   UNL d   1     -38.947  13.361  22.837  0.00  0.00     0.020 A 
ATOM     16  C   UNL d   1     -39.420  13.797  22.320  0.00  0.00     0.092 A 
ENDBRANCH   8  11
ENDBRANCH   1   8
BRANCH   4  17
ATOM     17  C   UNL d   1     -40.613  14.852  18.393  0.00  0.00     0.006 C 
BRANCH  17  18
ATOM     18  C   UNL d   1     -40.626  15.422  17.783  0.00  0.00     0.070 C 
BRANCH  18  19
ATOM     19  C   UNL d   1     -40.671  15.188  17.000  0.00  0.00     0.211 C 
ATOM     20  O   UNL d   1     -40.006  15.253  16.504  0.00  0.00    -0.644 OA
ATOM     21  O   UNL d   1     -41.369  14.887  16.699  0.00  0.00    -0.644 OA
ENDBRANCH  18  19
ENDBRANCH  17  18
ENDBRANCH   4  17
TORSDOF 5
ENDMDL
