MODEL 1
REMARK VINA RESULT:      26.1      0.000      0.000
REMARK  8 active torsions:
REMARK  status: ('A' for Active; 'I' for Inactive)
REMARK    1  A    between atoms: N_6  and  C_1 
REMARK    2  A    between atoms: N_2  and  C_3 
REMARK       I    between atoms: C_4  and  N_2 
REMARK    3  A    between atoms: C_3  and  N_6 
REMARK    4  A    between atoms: C_10  and  C_4 
REMARK    5  A    between atoms: C_9  and  C_7 
REMARK    6  A    between atoms: C_12  and  C_9 
REMARK    7  A    between atoms: O_17  and  C_12 
REMARK    8  A    between atoms: C_21  and  O_17 
ROOT
ATOM      1  C   UNL d   1      14.112  12.262  -1.482  0.00  0.00     0.225 C 
ATOM      2  S   UNL d   1      13.762  11.788  -0.904  0.00  0.00    -0.037 SA
ENDROOT
BRANCH   1   3
ATOM      3  N   UNL d   1      13.670  12.493  -2.179  0.00  0.00    -0.179 NA
ATOM      4  C   UNL d   1      13.943  12.251  -2.933  0.00  0.00     0.281 C 
ATOM      5  O   UNL d   1      14.654  11.780  -2.994  0.00  0.00    -0.265 OA
BRANCH   4   6
ATOM      6  C   UNL d   1      13.553  12.448  -3.618  0.00  0.00     0.058 A 
ATOM      7  C   UNL d   1      13.272  13.192  -3.748  0.00  0.00     0.005 A 
ATOM      8  C   UNL d   1      13.380  13.771  -3.172  0.00  0.00     0.000 C 
ATOM      9  C   UNL d   1      12.885  13.369  -4.441  0.00  0.00     0.000 A 
ATOM     10  C   UNL d   1      12.778  12.778  -5.021  0.00  0.00     0.000 A 
ATOM     11  C   UNL d   1      13.056  12.002  -4.915  0.00  0.00     0.000 A 
ATOM     12  C   UNL d   1      13.456  11.821  -4.200  0.00  0.00     0.005 A 
ENDBRANCH   4   6
ENDBRANCH   1   3
BRANCH   1  13
ATOM     13  N   UNL d   1      14.889  12.531  -1.418  0.00  0.00    -0.192 NA
BRANCH  13  14
ATOM     14  C   UNL d   1      15.021  13.237  -0.992  0.00  0.00     0.196 A 
ATOM     15  N   UNL d   1      15.556  13.869  -1.127  0.00  0.00    -0.220 NA
ATOM     16  C   UNL d   1      15.452  14.419  -0.539  0.00  0.00     0.095 A 
ATOM     17  C   UNL d   1      14.846  14.149  -0.014  0.00  0.00     0.058 A 
ATOM     18  S   UNL d   1      14.593  13.419  -0.311  0.00  0.00    -0.046 SA
BRANCH  16  19
ATOM     19  C   UNL d   1      15.858  15.131  -0.447  0.00  0.00     0.088 C 
BRANCH  19  20
ATOM     20  C   UNL d   1      15.529  15.844  -0.661  0.00  0.00     0.302 C 
ATOM     21  O   UNL d   1      15.331  16.410  -0.104  0.00  0.00    -0.259 OA
BRANCH  20  22
ATOM     22  O   UNL d   1      15.387  16.014  -1.463  0.00  0.00    -0.271 OA
BRANCH  22  23
ATOM     23  C   UNL d   1      15.003  16.768  -1.645  0.00  0.00     0.126 C 
ATOM     24  C   UNL d   1      14.687  16.837  -2.278  0.00  0.00     0.029 C 
ENDBRANCH  22  23
ENDBRANCH  20  22
ENDBRANCH  19  20
ENDBRANCH  16  19
ENDBRANCH  13  14
ENDBRANCH   1  13
TORSDOF 8
ENDMDL
