MODEL 1
REMARK VINA RESULT:      -2.0      0.000      0.000
REMARK  2 active torsions:
REMARK  status: ('A' for Active; 'I' for Inactive)
REMARK    1  A    between atoms: N_5  and  C_1 
REMARK    2  A    between atoms: C_8  and  C_4 
ROOT
ATOM      1  C   UNL d   1      31.129  17.465 -24.459  0.00  0.00     0.166 A 
ATOM      2  N   UNL d   1      30.431  17.809 -24.679  0.00  0.00    -0.225 NA
ATOM      3  N   UNL d   1      30.437  16.219 -24.399  0.00  0.00    -0.241 NA
ATOM      4  C   UNL d   1      31.132  16.655 -24.316  0.00  0.00     0.116 A 
ATOM      5  C   UNL d   1      29.734  17.404 -24.768  0.00  0.00     0.101 A 
ATOM      6  C   UNL d   1      29.737  16.595 -24.626  0.00  0.00     0.099 A 
ATOM      7  C   UNL d   1      29.035  17.749 -24.989  0.00  0.00     0.021 A 
ATOM      8  C   UNL d   1      29.042  16.159 -24.709  0.00  0.00     0.021 A 
ATOM      9  C   UNL d   1      28.371  16.536 -24.928  0.00  0.00     0.002 A 
ATOM     10  C   UNL d   1      28.367  17.345 -25.071  0.00  0.00     0.002 A 
ENDROOT
BRANCH   1  11
ATOM     11  N   UNL d   1      31.823  17.869 -24.371  0.00  0.00    -0.284 N 
ATOM     12  C   UNL d   1      32.295  17.981 -25.042  0.00  0.00     0.108 A 
ATOM     13  C   UNL d   1      33.017  18.400 -24.958  0.00  0.00     0.142 A 
ATOM     14  O   UNL d   1      33.237  18.686 -24.221  0.00  0.00    -0.300 OA
ATOM     15  C   UNL d   1      32.759  18.567 -23.568  0.00  0.00     0.142 A 
ATOM     16  C   UNL d   1      32.043  18.158 -23.623  0.00  0.00     0.108 A 
ENDBRANCH   1  11
BRANCH   4  17
ATOM     17  C   UNL d   1      31.829  16.279 -24.091  0.00  0.00     0.021 A 
ATOM     18  C   UNL d   1      32.343  15.982 -24.665  0.00  0.00     0.002 A 
ATOM     19  C   UNL d   1      33.042  15.605 -24.440  0.00  0.00     0.000 A 
ATOM     20  C   UNL d   1      33.228  15.526 -23.640  0.00  0.00     0.000 A 
ATOM     21  C   UNL d   1      32.714  15.823 -23.065  0.00  0.00     0.000 A 
ATOM     22  C   UNL d   1      32.015  16.200 -23.291  0.00  0.00     0.002 A 
ENDBRANCH   4  17
TORSDOF 2
ENDMDL
MODEL 2
REMARK VINA RESULT:      -0.6      1.693      4.060
REMARK  2 active torsions:
REMARK  status: ('A' for Active; 'I' for Inactive)
REMARK    1  A    between atoms: N_5  and  C_1 
REMARK    2  A    between atoms: C_8  and  C_4 
ROOT
ATOM      1  C   UNL d   1      30.082  16.213 -23.955  0.00  0.00     0.166 A 
ATOM      2  N   UNL d   1      30.702  15.717 -23.802  0.00  0.00    -0.225 NA
ATOM      3  N   UNL d   1      31.010  17.296 -23.932  0.00  0.00    -0.241 NA
ATOM      4  C   UNL d   1      30.239  17.017 -24.021  0.00  0.00     0.116 A 
ATOM      5  C   UNL d   1      31.468  15.963 -23.710  0.00  0.00     0.101 A 
ATOM      6  C   UNL d   1      31.625  16.767 -23.776  0.00  0.00     0.099 A 
ATOM      7  C   UNL d   1      32.089  15.466 -23.557  0.00  0.00     0.021 A 
ATOM      8  C   UNL d   1      32.397  17.045 -23.687  0.00  0.00     0.021 A 
ATOM      9  C   UNL d   1      32.984  16.522 -23.537  0.00  0.00     0.002 A 
ATOM     10  C   UNL d   1      32.827  15.718 -23.470  0.00  0.00     0.002 A 
ENDROOT
BRANCH   1  11
ATOM     11  N   UNL d   1      29.318  15.966 -24.046  0.00  0.00    -0.284 N 
ATOM     12  C   UNL d   1      28.845  15.907 -23.368  0.00  0.00     0.108 A 
ATOM     13  C   UNL d   1      28.051  15.651 -23.456  0.00  0.00     0.142 A 
ATOM     14  O   UNL d   1      27.764  15.467 -24.202  0.00  0.00    -0.300 OA
ATOM     15  C   UNL d   1      28.244  15.531 -24.861  0.00  0.00     0.142 A 
ATOM     16  C   UNL d   1      29.030  15.780 -24.804  0.00  0.00     0.108 A 
ENDBRANCH   1  11
BRANCH   4  17
ATOM     17  C   UNL d   1      29.626  17.545 -24.176  0.00  0.00     0.021 A 
ATOM     18  C   UNL d   1      29.522  17.844 -24.938  0.00  0.00     0.002 A 
ATOM     19  C   UNL d   1      28.907  18.374 -25.095  0.00  0.00     0.000 A 
ATOM     20  C   UNL d   1      28.397  18.604 -24.489  0.00  0.00     0.000 A 
ATOM     21  C   UNL d   1      28.502  18.305 -23.725  0.00  0.00     0.000 A 
ATOM     22  C   UNL d   1      29.116  17.775 -23.570  0.00  0.00     0.002 A 
ENDBRANCH   4  17
TORSDOF 2
ENDMDL
MODEL 3
REMARK VINA RESULT:       0.6      5.619      7.695
REMARK  2 active torsions:
REMARK  status: ('A' for Active; 'I' for Inactive)
REMARK    1  A    between atoms: N_5  and  C_1 
REMARK    2  A    between atoms: C_8  and  C_4 
ROOT
ATOM      1  C   UNL d   1      32.737  22.060 -20.092  0.00  0.00     0.166 A 
ATOM      2  N   UNL d   1      32.871  21.815 -19.334  0.00  0.00    -0.225 NA
ATOM      3  N   UNL d   1      32.755  23.401 -19.608  0.00  0.00    -0.241 NA
ATOM      4  C   UNL d   1      32.677  22.868 -20.232  0.00  0.00     0.116 A 
ATOM      5  C   UNL d   1      32.951  22.317 -18.702  0.00  0.00     0.101 A 
ATOM      6  C   UNL d   1      32.892  23.125 -18.842  0.00  0.00     0.099 A 
ATOM      7  C   UNL d   1      33.086  22.071 -17.942  0.00  0.00     0.021 A 
ATOM      8  C   UNL d   1      32.969  23.658 -18.217  0.00  0.00     0.021 A 
ATOM      9  C   UNL d   1      33.101  23.376 -17.480  0.00  0.00     0.002 A 
ATOM     10  C   UNL d   1      33.161  22.568 -17.340  0.00  0.00     0.002 A 
ENDROOT
BRANCH   1  11
ATOM     11  N   UNL d   1      32.657  21.559 -20.721  0.00  0.00    -0.284 N 
ATOM     12  C   UNL d   1      33.238  21.581 -21.311  0.00  0.00     0.108 A 
ATOM     13  C   UNL d   1      33.162  21.063 -21.967  0.00  0.00     0.142 A 
ATOM     14  O   UNL d   1      32.522  20.552 -22.009  0.00  0.00    -0.300 OA
ATOM     15  C   UNL d   1      31.957  20.543 -21.417  0.00  0.00     0.142 A 
ATOM     16  C   UNL d   1      32.007  21.043 -20.760  0.00  0.00     0.108 A 
ENDBRANCH   1  11
BRANCH   4  17
ATOM     17  C   UNL d   1      32.541  23.145 -20.996  0.00  0.00     0.021 A 
ATOM     18  C   UNL d   1      33.171  23.408 -21.459  0.00  0.00     0.002 A 
ATOM     19  C   UNL d   1      33.036  23.686 -22.224  0.00  0.00     0.000 A 
ATOM     20  C   UNL d   1      32.268  23.701 -22.527  0.00  0.00     0.000 A 
ATOM     21  C   UNL d   1      31.637  23.438 -22.064  0.00  0.00     0.000 A 
ATOM     22  C   UNL d   1      31.773  23.160 -21.298  0.00  0.00     0.002 A 
ENDBRANCH   4  17
TORSDOF 2
ENDMDL
