MODEL 1
REMARK VINA RESULT:      -8.6      0.000      0.000
REMARK  4 active torsions:
REMARK  status: ('A' for Active; 'I' for Inactive)
REMARK    1  A    between atoms: C_6  and  C_1 
REMARK    2  A    between atoms: C_16  and  C_6 
REMARK    3  A    between atoms: C_9  and  O_12 
REMARK    4  A    between atoms: O_12  and  C_10 
ROOT
ATOM      1  C   UNL d   1     -49.392  12.497  23.230  0.00  0.00     0.139 A 
ATOM      2  C   UNL d   1     -48.206  11.943  23.500  0.00  0.00     0.064 A 
ATOM      3  C   UNL d   1     -49.021  11.795  23.463  0.00  0.00     0.220 A 
ATOM      4  C   UNL d   1     -48.075  12.729  23.292  0.00  0.00     0.105 A 
ATOM      5  O   UNL d   1     -48.807  13.077  23.124  0.00  0.00    -0.304 OA
ATOM      6  C   UNL d   1     -47.307  13.029  23.282  0.00  0.00     0.050 A 
ATOM      7  C   UNL d   1     -47.569  11.458  23.698  0.00  0.00     0.007 A 
ATOM      8  C   UNL d   1     -46.678  12.541  23.479  0.00  0.00     0.105 A 
ATOM      9  O   UNL d   1     -49.391  11.077  23.629  0.00  0.00    -0.284 OA
ATOM     10  C   UNL d   1     -46.797  11.758  23.688  0.00  0.00     0.025 A 
ENDROOT
BRANCH   1  11
ATOM     11  C   UNL d   1     -50.201  12.603  23.122  0.00  0.00     0.028 C 
BRANCH  11  12
ATOM     12  C   UNL d   1     -50.490  13.270  22.720  0.00  0.00     0.005 A 
ATOM     13  C   UNL d   1     -50.687  13.939  23.151  0.00  0.00     0.021 A 
ATOM     14  C   UNL d   1     -50.975  14.606  22.761  0.00  0.00     0.099 A 
ATOM     15  N   UNL d   1     -51.064  14.597  21.939  0.00  0.00    -0.242 NA
ATOM     16  C   UNL d   1     -50.865  13.921  21.511  0.00  0.00     0.099 A 
ATOM     17  C   UNL d   1     -50.578  13.257  21.901  0.00  0.00     0.021 A 
ENDBRANCH  11  12
ENDBRANCH   1  11
BRANCH   8  18
ATOM     18  O   UNL d   1     -45.909  12.844  23.468  0.00  0.00    -0.273 OA
BRANCH  18  19
ATOM     19  C   UNL d   1     -45.430  12.748  22.795  0.00  0.00     0.300 C 
ATOM     20  O   UNL d   1     -44.928  12.098  22.744  0.00  0.00    -0.259 OA
ATOM     21  C   UNL d   1     -45.462  13.304  22.185  0.00  0.00     0.074 C 
ENDBRANCH  18  19
ENDBRANCH   8  18
TORSDOF 4
ENDMDL
MODEL 2
REMARK VINA RESULT:      -7.4      1.425      2.115
REMARK  4 active torsions:
REMARK  status: ('A' for Active; 'I' for Inactive)
REMARK    1  A    between atoms: C_6  and  C_1 
REMARK    2  A    between atoms: C_16  and  C_6 
REMARK    3  A    between atoms: C_9  and  O_12 
REMARK    4  A    between atoms: O_12  and  C_10 
ROOT
ATOM      1  C   UNL d   1     -49.000  14.254  22.945  0.00  0.00     0.139 A 
ATOM      2  C   UNL d   1     -47.744  14.639  22.706  0.00  0.00     0.064 A 
ATOM      3  C   UNL d   1     -48.538  14.868  22.640  0.00  0.00     0.220 A 
ATOM      4  C   UNL d   1     -47.716  13.891  23.049  0.00  0.00     0.105 A 
ATOM      5  O   UNL d   1     -48.493  13.648  23.199  0.00  0.00    -0.304 OA
ATOM      6  C   UNL d   1     -46.989  13.527  23.181  0.00  0.00     0.050 A 
ATOM      7  C   UNL d   1     -47.044  15.022  22.496  0.00  0.00     0.007 A 
ATOM      8  C   UNL d   1     -46.297  13.912  22.970  0.00  0.00     0.105 A 
ATOM      9  O   UNL d   1     -48.813  15.579  22.327  0.00  0.00    -0.284 OA
ATOM     10  C   UNL d   1     -46.312  14.657  22.628  0.00  0.00     0.025 A 
ENDROOT
BRANCH   1  11
ATOM     11  C   UNL d   1     -49.822  14.244  22.990  0.00  0.00     0.028 C 
BRANCH  11  12
ATOM     12  C   UNL d   1     -50.239  13.525  22.980  0.00  0.00     0.005 A 
ATOM     13  C   UNL d   1     -50.496  13.207  23.691  0.00  0.00     0.021 A 
ATOM     14  C   UNL d   1     -50.910  12.494  23.692  0.00  0.00     0.099 A 
ATOM     15  N   UNL d   1     -51.063  12.104  22.979  0.00  0.00    -0.242 NA
ATOM     16  C   UNL d   1     -50.801  12.430  22.267  0.00  0.00     0.099 A 
ATOM     17  C   UNL d   1     -50.389  13.140  22.269  0.00  0.00     0.021 A 
ENDBRANCH  11  12
ENDBRANCH   1  11
BRANCH   8  18
ATOM     18  O   UNL d   1     -45.569  13.544  23.103  0.00  0.00    -0.273 OA
BRANCH  18  19
ATOM     19  C   UNL d   1     -45.318  12.920  22.613  0.00  0.00     0.300 C 
ATOM     20  O   UNL d   1     -45.452  12.142  22.844  0.00  0.00    -0.259 OA
ATOM     21  C   UNL d   1     -44.939  13.087  21.899  0.00  0.00     0.074 C 
ENDBRANCH  18  19
ENDBRANCH   8  18
TORSDOF 4
ENDMDL
MODEL 3
REMARK VINA RESULT:      -6.8      2.058      4.517
REMARK  4 active torsions:
REMARK  status: ('A' for Active; 'I' for Inactive)
REMARK    1  A    between atoms: C_6  and  C_1 
REMARK    2  A    between atoms: C_16  and  C_6 
REMARK    3  A    between atoms: C_9  and  O_12 
REMARK    4  A    between atoms: O_12  and  C_10 
ROOT
ATOM      1  C   UNL d   1     -47.485  14.352  22.937  0.00  0.00     0.139 A 
ATOM      2  C   UNL d   1     -48.759  14.675  22.699  0.00  0.00     0.064 A 
ATOM      3  C   UNL d   1     -47.975  14.920  22.589  0.00  0.00     0.220 A 
ATOM      4  C   UNL d   1     -48.753  13.963  23.111  0.00  0.00     0.105 A 
ATOM      5  O   UNL d   1     -47.966  13.757  23.262  0.00  0.00    -0.304 OA
ATOM      6  C   UNL d   1     -49.465  13.590  23.298  0.00  0.00     0.050 A 
ATOM      7  C   UNL d   1     -49.476  15.015  22.474  0.00  0.00     0.007 A 
ATOM      8  C   UNL d   1     -50.174  13.933  23.072  0.00  0.00     0.105 A 
ATOM      9  O   UNL d   1     -47.731  15.606  22.202  0.00  0.00    -0.284 OA
ATOM     10  C   UNL d   1     -50.192  14.642  22.661  0.00  0.00     0.025 A 
ENDROOT
BRANCH   1  11
ATOM     11  C   UNL d   1     -46.662  14.371  22.959  0.00  0.00     0.028 C 
BRANCH  11  12
ATOM     12  C   UNL d   1     -46.219  13.677  22.846  0.00  0.00     0.005 A 
ATOM     13  C   UNL d   1     -45.736  13.619  22.186  0.00  0.00     0.021 A 
ATOM     14  C   UNL d   1     -45.292  12.934  22.064  0.00  0.00     0.099 A 
ATOM     15  N   UNL d   1     -45.336  12.312  22.607  0.00  0.00    -0.242 NA
ATOM     16  C   UNL d   1     -45.824  12.377  23.269  0.00  0.00     0.099 A 
ATOM     17  C   UNL d   1     -46.265  13.060  23.388  0.00  0.00     0.021 A 
ENDBRANCH  11  12
ENDBRANCH   1  11
BRANCH   8  18
ATOM     18  O   UNL d   1     -50.886  13.557  23.260  0.00  0.00    -0.273 OA
BRANCH  18  19
ATOM     19  C   UNL d   1     -51.006  12.760  23.057  0.00  0.00     0.300 C 
ATOM     20  O   UNL d   1     -51.064  12.547  22.264  0.00  0.00    -0.259 OA
ATOM     21  C   UNL d   1     -51.064  12.189  23.650  0.00  0.00     0.074 C 
ENDBRANCH  18  19
ENDBRANCH   8  18
TORSDOF 4
ENDMDL
MODEL 4
REMARK VINA RESULT:      -6.1      9.147     10.540
REMARK  4 active torsions:
REMARK  status: ('A' for Active; 'I' for Inactive)
REMARK    1  A    between atoms: C_6  and  C_1 
REMARK    2  A    between atoms: C_16  and  C_6 
REMARK    3  A    between atoms: C_9  and  O_12 
REMARK    4  A    between atoms: O_12  and  C_10 
ROOT
ATOM      1  C   UNL d   1     -40.181  14.944  17.864  0.00  0.00     0.139 A 
ATOM      2  C   UNL d   1     -40.457  14.695  19.147  0.00  0.00     0.064 A 
ATOM      3  C   UNL d   1     -40.550  14.409  18.376  0.00  0.00     0.220 A 
ATOM      4  C   UNL d   1     -40.035  15.401  19.114  0.00  0.00     0.105 A 
ATOM      5  O   UNL d   1     -39.861  15.560  18.321  0.00  0.00    -0.304 OA
ATOM      6  C   UNL d   1     -39.861  15.810  19.809  0.00  0.00     0.050 A 
ATOM      7  C   UNL d   1     -40.706  14.398  19.876  0.00  0.00     0.007 A 
ATOM      8  C   UNL d   1     -40.111  15.510  20.529  0.00  0.00     0.105 A 
ATOM      9  O   UNL d   1     -40.940  13.715  18.160  0.00  0.00    -0.284 OA
ATOM     10  C   UNL d   1     -40.532  14.808  20.575  0.00  0.00     0.025 A 
ENDROOT
BRANCH   1  11
ATOM     11  C   UNL d   1     -40.138  14.879  17.045  0.00  0.00     0.028 C 
BRANCH  11  12
ATOM     12  C   UNL d   1     -39.422  15.014  16.646  0.00  0.00     0.005 A 
ATOM     13  C   UNL d   1     -39.266  15.764  16.354  0.00  0.00     0.021 A 
ATOM     14  C   UNL d   1     -38.558  15.909  15.957  0.00  0.00     0.099 A 
ATOM     15  N   UNL d   1     -38.010  15.297  15.855  0.00  0.00    -0.242 NA
ATOM     16  C   UNL d   1     -38.172  14.545  16.152  0.00  0.00     0.099 A 
ATOM     17  C   UNL d   1     -38.879  14.403  16.547  0.00  0.00     0.021 A 
ENDBRANCH  11  12
ENDBRANCH   1  11
BRANCH   8  18
ATOM     18  O   UNL d   1     -39.936  15.922  21.224  0.00  0.00    -0.273 OA
BRANCH  18  19
ATOM     19  C   UNL d   1     -39.255  15.734  21.662  0.00  0.00     0.300 C 
ATOM     20  O   UNL d   1     -38.512  15.922  21.361  0.00  0.00    -0.259 OA
ATOM     21  C   UNL d   1     -39.328  15.360  22.395  0.00  0.00     0.074 C 
ENDBRANCH  18  19
ENDBRANCH   8  18
TORSDOF 4
ENDMDL
MODEL 5
REMARK VINA RESULT:      -5.8      9.016     10.259
REMARK  4 active torsions:
REMARK  status: ('A' for Active; 'I' for Inactive)
REMARK    1  A    between atoms: C_6  and  C_1 
REMARK    2  A    between atoms: C_16  and  C_6 
REMARK    3  A    between atoms: C_9  and  O_12 
REMARK    4  A    between atoms: O_12  and  C_10 
ROOT
ATOM      1  C   UNL d   1     -40.320  14.764  20.119  0.00  0.00     0.139 A 
ATOM      2  C   UNL d   1     -40.407  14.985  18.804  0.00  0.00     0.064 A 
ATOM      3  C   UNL d   1     -40.647  15.263  19.547  0.00  0.00     0.220 A 
ATOM      4  C   UNL d   1     -39.935  14.320  18.916  0.00  0.00     0.105 A 
ATOM      5  O   UNL d   1     -39.877  14.178  19.729  0.00  0.00    -0.304 OA
ATOM      6  C   UNL d   1     -39.617  13.927  18.265  0.00  0.00     0.050 A 
ATOM      7  C   UNL d   1     -40.560  15.257  18.041  0.00  0.00     0.007 A 
ATOM      8  C   UNL d   1     -39.773  14.202  17.509  0.00  0.00     0.105 A 
ATOM      9  O   UNL d   1     -41.127  15.920  19.686  0.00  0.00    -0.284 OA
ATOM     10  C   UNL d   1     -40.241  14.863  17.385  0.00  0.00     0.025 A 
ENDROOT
BRANCH   1  11
ATOM     11  C   UNL d   1     -40.415  14.834  20.933  0.00  0.00     0.028 C 
BRANCH  11  12
ATOM     12  C   UNL d   1     -39.782  14.675  21.449  0.00  0.00     0.005 A 
ATOM     13  C   UNL d   1     -39.710  13.923  21.768  0.00  0.00     0.021 A 
ATOM     14  C   UNL d   1     -39.086  13.755  22.280  0.00  0.00     0.099 A 
ATOM     15  N   UNL d   1     -38.538  14.345  22.470  0.00  0.00    -0.242 NA
ATOM     16  C   UNL d   1     -38.616  15.100  22.146  0.00  0.00     0.099 A 
ATOM     17  C   UNL d   1     -39.239  15.264  21.635  0.00  0.00     0.021 A 
ENDBRANCH  11  12
ENDBRANCH   1  11
BRANCH   8  18
ATOM     18  O   UNL d   1     -39.453  13.806  16.857  0.00  0.00    -0.273 OA
BRANCH  18  19
ATOM     19  C   UNL d   1     -38.680  13.977  16.601  0.00  0.00     0.300 C 
ATOM     20  O   UNL d   1     -38.528  14.687  16.213  0.00  0.00    -0.259 OA
ATOM     21  C   UNL d   1     -38.073  13.435  16.738  0.00  0.00     0.074 C 
ENDBRANCH  18  19
ENDBRANCH   8  18
TORSDOF 4
ENDMDL
