MODEL 1
REMARK VINA RESULT:      -6.2      0.000      0.000
REMARK  11 active torsions:
REMARK  status: ('A' for Active; 'I' for Inactive)
REMARK    1  A    between atoms: N_2  and  S_1 
REMARK    2  A    between atoms: C_4  and  S_1 
REMARK    3  A    between atoms: C_22  and  N_2 
REMARK    4  A    between atoms: C_3  and  C_8 
REMARK       I    between atoms: N_16  and  C_3 
REMARK    5  A    between atoms: O_28  and  C_7 
REMARK    6  A    between atoms: C_9  and  C_10 
REMARK    7  A    between atoms: O_29  and  C_11 
REMARK    8  A    between atoms: C_30  and  N_16 
REMARK    9  A    between atoms: C_24  and  C_22 
REMARK   10  A    between atoms: C_23  and  C_34 
REMARK   11  A    between atoms: C_34  and  C_30 
ROOT
ATOM      1  C   UNL d   1     -42.604  13.393  21.295  0.00  0.00     0.058 A 
ATOM      2  C   UNL d   1     -43.176  13.961  21.432  0.00  0.00     0.005 A 
ATOM      3  C   UNL d   1     -42.797  12.588  21.400  0.00  0.00     0.005 A 
ATOM      4  C   UNL d   1     -44.129  12.948  21.774  0.00  0.00     0.020 A 
ATOM      5  C   UNL d   1     -43.940  13.746  21.672  0.00  0.00     0.002 A 
ATOM      6  C   UNL d   1     -43.560  12.374  21.639  0.00  0.00     0.002 A 
ENDROOT
BRANCH   1   7
ATOM      7  C   UNL d   1     -41.847  13.602  21.059  0.00  0.00     0.279 C 
ATOM      8  O   UNL d   1     -41.191  13.289  21.457  0.00  0.00    -0.265 OA
ATOM      9  N   UNL d   1     -41.739  14.120  20.430  0.00  0.00    -0.206 NA
BRANCH   9  10
ATOM     10  C   UNL d   1     -40.975  14.327  20.196  0.00  0.00     0.102 C 
BRANCH  10  11
ATOM     11  C   UNL d   1     -40.861  15.018  19.775  0.00  0.00     0.021 C 
BRANCH  11  12
ATOM     12  C   UNL d   1     -40.392  15.011  19.111  0.00  0.00     0.004 A 
ATOM     13  C   UNL d   1     -40.722  15.091  18.359  0.00  0.00     0.026 A 
ATOM     14  C   UNL d   1     -40.244  15.082  17.698  0.00  0.00     0.116 A 
ATOM     15  C   UNL d   1     -39.420  14.992  17.782  0.00  0.00     0.116 A 
ATOM     16  C   UNL d   1     -39.091  14.912  18.521  0.00  0.00     0.026 A 
ATOM     17  C   UNL d   1     -39.576  14.921  19.191  0.00  0.00     0.002 A 
BRANCH  14  18
ATOM     18  O   UNL d   1     -40.579  15.163  16.947  0.00  0.00    -0.326 OA
ATOM     19  C   UNL d   1     -41.304  15.599  16.728  0.00  0.00     0.181 C 
ENDBRANCH  14  18
BRANCH  15  20
ATOM     20  O   UNL d   1     -38.930  14.981  17.135  0.00  0.00    -0.326 OA
ATOM     21  C   UNL d   1     -38.144  14.800  17.218  0.00  0.00     0.181 C 
ENDBRANCH  15  20
ENDBRANCH  11  12
ENDBRANCH  10  11
ENDBRANCH   9  10
ENDBRANCH   1   7
BRANCH   4  22
ATOM     22  C   UNL d   1     -44.893  12.734  22.013  0.00  0.00     0.112 C 
BRANCH  22  23
ATOM     23  N   UNL d   1     -45.366  13.269  22.414  0.00  0.00    -0.157 NA
BRANCH  23  24
ATOM     24  S   UNL d   1     -46.137  13.072  22.643  0.00  0.00     0.285 S 
ATOM     25  O   UNL d   1     -45.919  13.120  23.431  0.00  0.00    -0.198 OA
ATOM     26  O   UNL d   1     -46.348  13.025  21.843  0.00  0.00    -0.198 OA
BRANCH  24  27
ATOM     27  C   UNL d   1     -46.904  12.875  22.854  0.00  0.00     0.105 A 
ATOM     28  C   UNL d   1     -47.517  13.393  22.663  0.00  0.00     0.013 A 
ATOM     29  C   UNL d   1     -48.300  13.200  22.875  0.00  0.00    -0.004 A 
ATOM     30  C   UNL d   1     -48.452  12.490  23.276  0.00  0.00    -0.023 A 
ATOM     31  C   UNL d   1     -47.837  11.979  23.463  0.00  0.00    -0.004 A 
ATOM     32  C   UNL d   1     -47.061  12.175  23.251  0.00  0.00     0.013 A 
BRANCH  30  33
ATOM     33  C   UNL d   1     -49.228  12.297  23.486  0.00  0.00     0.019 C 
ATOM     34  C   UNL d   1     -49.464  13.070  23.322  0.00  0.00     0.004 C 
ATOM     35  C   UNL d   1     -48.983  11.528  23.648  0.00  0.00     0.004 C 
ATOM     36  C   UNL d   1     -50.000  12.107  23.696  0.00  0.00     0.004 C 
ENDBRANCH  30  33
ENDBRANCH  24  27
ENDBRANCH  23  24
ENDBRANCH  22  23
ENDBRANCH   4  22
TORSDOF 11
ENDMDL
MODEL 2
REMARK VINA RESULT:      -6.0      1.655      8.398
REMARK  11 active torsions:
REMARK  status: ('A' for Active; 'I' for Inactive)
REMARK    1  A    between atoms: N_2  and  S_1 
REMARK    2  A    between atoms: C_4  and  S_1 
REMARK    3  A    between atoms: C_22  and  N_2 
REMARK    4  A    between atoms: C_3  and  C_8 
REMARK       I    between atoms: N_16  and  C_3 
REMARK    5  A    between atoms: O_28  and  C_7 
REMARK    6  A    between atoms: C_9  and  C_10 
REMARK    7  A    between atoms: O_29  and  C_11 
REMARK    8  A    between atoms: C_30  and  N_16 
REMARK    9  A    between atoms: C_24  and  C_22 
REMARK   10  A    between atoms: C_23  and  C_34 
REMARK   11  A    between atoms: C_34  and  C_30 
ROOT
ATOM      1  C   UNL d   1     -43.311  13.089  21.547  0.00  0.00     0.058 A 
ATOM      2  C   UNL d   1     -42.708  12.566  21.368  0.00  0.00     0.005 A 
ATOM      3  C   UNL d   1     -43.227  13.892  21.336  0.00  0.00     0.005 A 
ATOM      4  C   UNL d   1     -41.941  13.619  20.773  0.00  0.00     0.020 A 
ATOM      5  C   UNL d   1     -42.022  12.823  20.982  0.00  0.00     0.002 A 
ATOM      6  C   UNL d   1     -42.541  14.149  20.950  0.00  0.00     0.002 A 
ENDROOT
BRANCH   1   7
ATOM      7  C   UNL d   1     -43.991  12.838  21.929  0.00  0.00     0.279 C 
ATOM      8  O   UNL d   1     -44.017  12.080  22.265  0.00  0.00    -0.265 OA
ATOM      9  N   UNL d   1     -44.645  13.333  21.979  0.00  0.00    -0.206 NA
BRANCH   9  10
ATOM     10  C   UNL d   1     -45.327  13.074  22.365  0.00  0.00     0.102 C 
BRANCH  10  11
ATOM     11  C   UNL d   1     -45.860  13.626  22.646  0.00  0.00     0.021 C 
BRANCH  11  12
ATOM     12  C   UNL d   1     -46.626  13.402  22.799  0.00  0.00     0.004 A 
ATOM     13  C   UNL d   1     -47.259  13.889  22.592  0.00  0.00     0.026 A 
ATOM     14  C   UNL d   1     -48.025  13.655  22.750  0.00  0.00     0.116 A 
ATOM     15  C   UNL d   1     -48.169  12.923  23.121  0.00  0.00     0.116 A 
ATOM     16  C   UNL d   1     -47.547  12.440  23.326  0.00  0.00     0.026 A 
ATOM     17  C   UNL d   1     -46.771  12.677  23.166  0.00  0.00     0.002 A 
BRANCH  14  18
ATOM     18  O   UNL d   1     -48.656  14.146  22.541  0.00  0.00    -0.326 OA
ATOM     19  C   UNL d   1     -48.649  15.014  22.444  0.00  0.00     0.181 C 
ENDBRANCH  14  18
BRANCH  15  20
ATOM     20  O   UNL d   1     -48.924  12.676  23.285  0.00  0.00    -0.326 OA
ATOM     21  C   UNL d   1     -49.063  11.914  23.525  0.00  0.00     0.181 C 
ENDBRANCH  15  20
ENDBRANCH  11  12
ENDBRANCH  10  11
ENDBRANCH   9  10
ENDBRANCH   1   7
BRANCH   4  22
ATOM     22  C   UNL d   1     -41.255  13.876  20.387  0.00  0.00     0.112 C 
BRANCH  22  23
ATOM     23  N   UNL d   1     -41.309  14.344  19.716  0.00  0.00    -0.157 NA
BRANCH  23  24
ATOM     24  S   UNL d   1     -40.735  14.306  19.121  0.00  0.00     0.285 S 
ATOM     25  O   UNL d   1     -40.195  14.676  19.614  0.00  0.00    -0.198 OA
ATOM     26  O   UNL d   1     -41.287  13.933  18.630  0.00  0.00    -0.198 OA
BRANCH  24  27
ATOM     27  C   UNL d   1     -40.177  14.262  18.523  0.00  0.00     0.105 A 
ATOM     28  C   UNL d   1     -40.373  14.539  17.771  0.00  0.00     0.013 A 
ATOM     29  C   UNL d   1     -39.810  14.498  17.157  0.00  0.00    -0.004 A 
ATOM     30  C   UNL d   1     -39.060  14.178  17.310  0.00  0.00    -0.023 A 
ATOM     31  C   UNL d   1     -38.871  13.904  18.062  0.00  0.00    -0.004 A 
ATOM     32  C   UNL d   1     -39.433  13.947  18.668  0.00  0.00     0.013 A 
BRANCH  30  33
ATOM     33  C   UNL d   1     -38.501  14.136  16.703  0.00  0.00     0.019 C 
ATOM     34  C   UNL d   1     -38.436  13.323  16.819  0.00  0.00     0.004 C 
ATOM     35  C   UNL d   1     -38.572  14.949  16.594  0.00  0.00     0.004 C 
ATOM     36  C   UNL d   1     -37.945  14.093  16.099  0.00  0.00     0.004 C 
ENDBRANCH  30  33
ENDBRANCH  24  27
ENDBRANCH  23  24
ENDBRANCH  22  23
ENDBRANCH   4  22
TORSDOF 11
ENDMDL
MODEL 3
REMARK VINA RESULT:      -5.8      1.277      1.904
REMARK  11 active torsions:
REMARK  status: ('A' for Active; 'I' for Inactive)
REMARK    1  A    between atoms: N_2  and  S_1 
REMARK    2  A    between atoms: C_4  and  S_1 
REMARK    3  A    between atoms: C_22  and  N_2 
REMARK    4  A    between atoms: C_3  and  C_8 
REMARK       I    between atoms: N_16  and  C_3 
REMARK    5  A    between atoms: O_28  and  C_7 
REMARK    6  A    between atoms: C_9  and  C_10 
REMARK    7  A    between atoms: O_29  and  C_11 
REMARK    8  A    between atoms: C_30  and  N_16 
REMARK    9  A    between atoms: C_24  and  C_22 
REMARK   10  A    between atoms: C_23  and  C_34 
REMARK   11  A    between atoms: C_34  and  C_30 
ROOT
ATOM      1  C   UNL d   1     -43.546  13.010  21.485  0.00  0.00     0.058 A 
ATOM      2  C   UNL d   1     -44.117  13.592  21.430  0.00  0.00     0.005 A 
ATOM      3  C   UNL d   1     -43.719  12.309  21.903  0.00  0.00     0.005 A 
ATOM      4  C   UNL d   1     -45.030  12.799  22.197  0.00  0.00     0.020 A 
ATOM      5  C   UNL d   1     -44.860  13.494  21.783  0.00  0.00     0.002 A 
ATOM      6  C   UNL d   1     -44.461  12.211  22.256  0.00  0.00     0.002 A 
ENDROOT
BRANCH   1   7
ATOM      7  C   UNL d   1     -42.809  13.105  21.137  0.00  0.00     0.279 C 
ATOM      8  O   UNL d   1     -42.516  12.517  20.630  0.00  0.00    -0.265 OA
ATOM      9  N   UNL d   1     -42.363  13.778  21.288  0.00  0.00    -0.206 NA
BRANCH   9  10
ATOM     10  C   UNL d   1     -41.623  13.868  20.935  0.00  0.00     0.102 C 
BRANCH  10  11
ATOM     11  C   UNL d   1     -41.197  14.551  21.072  0.00  0.00     0.021 C 
BRANCH  11  12
ATOM     12  C   UNL d   1     -40.474  14.652  20.712  0.00  0.00     0.004 A 
ATOM     13  C   UNL d   1     -39.784  14.370  21.063  0.00  0.00     0.026 A 
ATOM     14  C   UNL d   1     -39.063  14.476  20.694  0.00  0.00     0.116 A 
ATOM     15  C   UNL d   1     -39.025  14.870  19.961  0.00  0.00     0.116 A 
ATOM     16  C   UNL d   1     -39.704  15.150  19.612  0.00  0.00     0.026 A 
ATOM     17  C   UNL d   1     -40.434  15.042  19.986  0.00  0.00     0.002 A 
BRANCH  14  18
ATOM     18  O   UNL d   1     -38.373  14.192  21.049  0.00  0.00    -0.326 OA
ATOM     19  C   UNL d   1     -38.270  13.452  21.502  0.00  0.00     0.181 C 
ENDBRANCH  14  18
BRANCH  15  20
ATOM     20  O   UNL d   1     -38.318  14.984  19.581  0.00  0.00    -0.326 OA
ATOM     21  C   UNL d   1     -38.299  15.139  18.785  0.00  0.00     0.181 C 
ENDBRANCH  15  20
ENDBRANCH  11  12
ENDBRANCH  10  11
ENDBRANCH   9  10
ENDBRANCH   1   7
BRANCH   4  22
ATOM     22  C   UNL d   1     -45.773  12.700  22.550  0.00  0.00     0.112 C 
BRANCH  22  23
ATOM     23  N   UNL d   1     -46.328  13.302  22.519  0.00  0.00    -0.157 NA
BRANCH  23  24
ATOM     24  S   UNL d   1     -47.119  13.165  22.721  0.00  0.00     0.285 S 
ATOM     25  O   UNL d   1     -47.067  13.727  23.316  0.00  0.00    -0.198 OA
ATOM     26  O   UNL d   1     -47.163  12.600  22.118  0.00  0.00    -0.198 OA
BRANCH  24  27
ATOM     27  C   UNL d   1     -47.903  13.020  22.911  0.00  0.00     0.105 A 
ATOM     28  C   UNL d   1     -48.469  13.593  22.738  0.00  0.00     0.013 A 
ATOM     29  C   UNL d   1     -49.269  13.453  22.928  0.00  0.00    -0.004 A 
ATOM     30  C   UNL d   1     -49.484  12.737  23.290  0.00  0.00    -0.023 A 
ATOM     31  C   UNL d   1     -48.914  12.170  23.459  0.00  0.00    -0.004 A 
ATOM     32  C   UNL d   1     -48.121  12.314  23.268  0.00  0.00     0.013 A 
BRANCH  30  33
ATOM     33  C   UNL d   1     -50.276  12.596  23.479  0.00  0.00     0.019 C 
ATOM     34  C   UNL d   1     -50.372  13.392  23.670  0.00  0.00     0.004 C 
ATOM     35  C   UNL d   1     -50.171  11.803  23.286  0.00  0.00     0.004 C 
ATOM     36  C   UNL d   1     -51.064  12.457  23.668  0.00  0.00     0.004 C 
ENDBRANCH  30  33
ENDBRANCH  24  27
ENDBRANCH  23  24
ENDBRANCH  22  23
ENDBRANCH   4  22
TORSDOF 11
ENDMDL
MODEL 4
REMARK VINA RESULT:      -5.5      1.720      8.420
REMARK  11 active torsions:
REMARK  status: ('A' for Active; 'I' for Inactive)
REMARK    1  A    between atoms: N_2  and  S_1 
REMARK    2  A    between atoms: C_4  and  S_1 
REMARK    3  A    between atoms: C_22  and  N_2 
REMARK    4  A    between atoms: C_3  and  C_8 
REMARK       I    between atoms: N_16  and  C_3 
REMARK    5  A    between atoms: O_28  and  C_7 
REMARK    6  A    between atoms: C_9  and  C_10 
REMARK    7  A    between atoms: O_29  and  C_11 
REMARK    8  A    between atoms: C_30  and  N_16 
REMARK    9  A    between atoms: C_24  and  C_22 
REMARK   10  A    between atoms: C_23  and  C_34 
REMARK   11  A    between atoms: C_34  and  C_30 
ROOT
ATOM      1  C   UNL d   1     -44.872  12.868  22.206  0.00  0.00     0.058 A 
ATOM      2  C   UNL d   1     -44.689  13.579  21.845  0.00  0.00     0.005 A 
ATOM      3  C   UNL d   1     -44.301  12.259  22.216  0.00  0.00     0.005 A 
ATOM      4  C   UNL d   1     -43.386  13.095  21.503  0.00  0.00     0.020 A 
ATOM      5  C   UNL d   1     -43.949  13.699  21.492  0.00  0.00     0.002 A 
ATOM      6  C   UNL d   1     -43.562  12.379  21.863  0.00  0.00     0.002 A 
ENDROOT
BRANCH   1   7
ATOM      7  C   UNL d   1     -45.603  12.746  22.556  0.00  0.00     0.279 C 
ATOM      8  O   UNL d   1     -45.661  12.263  23.228  0.00  0.00    -0.265 OA
ATOM      9  N   UNL d   1     -46.275  13.100  22.244  0.00  0.00    -0.206 NA
BRANCH   9  10
ATOM     10  C   UNL d   1     -47.009  12.974  22.601  0.00  0.00     0.102 C 
BRANCH  10  11
ATOM     11  C   UNL d   1     -47.690  13.122  22.175  0.00  0.00     0.021 C 
BRANCH  11  12
ATOM     12  C   UNL d   1     -48.333  13.452  22.548  0.00  0.00     0.004 A 
ATOM     13  C   UNL d   1     -48.922  12.977  22.874  0.00  0.00     0.026 A 
ATOM     14  C   UNL d   1     -49.564  13.317  23.247  0.00  0.00     0.116 A 
ATOM     15  C   UNL d   1     -49.624  14.146  23.298  0.00  0.00     0.116 A 
ATOM     16  C   UNL d   1     -49.045  14.618  22.978  0.00  0.00     0.026 A 
ATOM     17  C   UNL d   1     -48.394  14.274  22.600  0.00  0.00     0.002 A 
BRANCH  14  18
ATOM     18  O   UNL d   1     -50.153  12.836  23.572  0.00  0.00    -0.326 OA
ATOM     19  C   UNL d   1     -50.451  12.074  23.267  0.00  0.00     0.181 C 
ENDBRANCH  14  18
BRANCH  15  20
ATOM     20  O   UNL d   1     -50.255  14.500  23.665  0.00  0.00    -0.326 OA
ATOM     21  C   UNL d   1     -50.311  15.308  23.698  0.00  0.00     0.181 C 
ENDBRANCH  15  20
ENDBRANCH  11  12
ENDBRANCH  10  11
ENDBRANCH   9  10
ENDBRANCH   1   7
BRANCH   4  22
ATOM     22  C   UNL d   1     -42.646  13.215  21.150  0.00  0.00     0.112 C 
BRANCH  22  23
ATOM     23  N   UNL d   1     -42.159  13.822  21.407  0.00  0.00    -0.157 NA
BRANCH  23  24
ATOM     24  S   UNL d   1     -41.455  14.002  21.011  0.00  0.00     0.285 S 
ATOM     25  O   UNL d   1     -41.719  14.767  20.882  0.00  0.00    -0.198 OA
ATOM     26  O   UNL d   1     -41.195  13.227  21.146  0.00  0.00    -0.198 OA
BRANCH  24  27
ATOM     27  C   UNL d   1     -40.753  14.167  20.621  0.00  0.00     0.105 A 
ATOM     28  C   UNL d   1     -40.766  14.281  19.805  0.00  0.00     0.013 A 
ATOM     29  C   UNL d   1     -40.056  14.449  19.401  0.00  0.00    -0.004 A 
ATOM     30  C   UNL d   1     -39.345  14.499  19.826  0.00  0.00    -0.023 A 
ATOM     31  C   UNL d   1     -39.339  14.384  20.640  0.00  0.00    -0.004 A 
ATOM     32  C   UNL d   1     -40.047  14.218  21.036  0.00  0.00     0.013 A 
BRANCH  30  33
ATOM     33  C   UNL d   1     -38.641  14.665  19.428  0.00  0.00     0.019 C 
ATOM     34  C   UNL d   1     -38.681  15.448  19.684  0.00  0.00     0.004 C 
ATOM     35  C   UNL d   1     -38.609  13.883  19.177  0.00  0.00     0.004 C 
ATOM     36  C   UNL d   1     -37.940  14.833  19.032  0.00  0.00     0.004 C 
ENDBRANCH  30  33
ENDBRANCH  24  27
ENDBRANCH  23  24
ENDBRANCH  22  23
ENDBRANCH   4  22
TORSDOF 11
ENDMDL
