MODEL 1
REMARK VINA RESULT:      39.3      0.000      0.000
REMARK  4 active torsions:
REMARK  status: ('A' for Active; 'I' for Inactive)
REMARK       I    between atoms: C_3  and  N_7 
REMARK    1  A    between atoms: C_6  and  C_3 
REMARK    2  A    between atoms: C_8  and  C_6 
REMARK    3  A    between atoms: N_7  and  C_9 
REMARK    4  A    between atoms: C_13  and  C_8 
ROOT
ATOM      1  C   UNL d   1     -51.293  25.835  33.665  0.00  0.00     0.279 C 
ATOM      2  N   UNL d   1     -52.024  25.472  33.802  0.00  0.00    -0.207 NA
ATOM      3  O   UNL d   1     -50.684  25.407  33.326  0.00  0.00    -0.265 OA
ENDROOT
BRANCH   1   4
ATOM      4  C   UNL d   1     -51.185  26.627  33.870  0.00  0.00     0.062 C 
BRANCH   4   5
ATOM      5  C   UNL d   1     -50.920  27.165  33.310  0.00  0.00     0.005 C 
BRANCH   5   6
ATOM      6  C   UNL d   1     -50.355  27.726  33.505  0.00  0.00     0.000 A 
ATOM      7  C   UNL d   1     -50.474  28.521  33.310  0.00  0.00     0.000 A 
ATOM      8  C   UNL d   1     -49.904  29.073  33.509  0.00  0.00     0.000 A 
ATOM      9  C   UNL d   1     -49.220  28.847  33.896  0.00  0.00     0.000 A 
ATOM     10  C   UNL d   1     -49.097  28.059  34.091  0.00  0.00     0.000 A 
ATOM     11  C   UNL d   1     -49.666  27.492  33.896  0.00  0.00     0.000 A 
ENDBRANCH   5   6
ENDBRANCH   4   5
ENDBRANCH   1   4
BRANCH   2  12
ATOM     12  C   UNL d   1     -52.131  24.686  33.598  0.00  0.00     0.097 A 
ATOM     13  C   UNL d   1     -52.889  24.725  33.924  0.00  0.00     0.118 A 
ATOM     14  S   UNL d   1     -53.245  23.981  33.836  0.00  0.00     0.213 S 
ATOM     15  O   UNL d   1     -53.712  24.548  34.208  0.00  0.00    -0.217 OA
ATOM     16  O   UNL d   1     -53.534  23.216  33.713  0.00  0.00    -0.217 OA
ATOM     17  C   UNL d   1     -52.704  23.483  33.454  0.00  0.00     0.100 A 
ATOM     18  C   UNL d   1     -52.018  23.913  33.307  0.00  0.00     0.032 A 
ENDBRANCH   2  12
TORSDOF 4
ENDMDL
MODEL 2
REMARK VINA RESULT:      41.3      3.271      5.298
REMARK  4 active torsions:
REMARK  status: ('A' for Active; 'I' for Inactive)
REMARK       I    between atoms: C_3  and  N_7 
REMARK    1  A    between atoms: C_6  and  C_3 
REMARK    2  A    between atoms: C_8  and  C_6 
REMARK    3  A    between atoms: N_7  and  C_9 
REMARK    4  A    between atoms: C_13  and  C_8 
ROOT
ATOM      1  C   UNL d   1     -49.056  27.789  34.105  0.00  0.00     0.279 C 
ATOM      2  N   UNL d   1     -48.818  28.114  34.827  0.00  0.00    -0.207 NA
ATOM      3  O   UNL d   1     -48.766  28.097  33.405  0.00  0.00    -0.265 OA
ENDROOT
BRANCH   1   4
ATOM      4  C   UNL d   1     -49.586  27.156  34.097  0.00  0.00     0.062 C 
BRANCH   4   5
ATOM      5  C   UNL d   1     -50.065  27.027  33.443  0.00  0.00     0.005 C 
BRANCH   5   6
ATOM      6  C   UNL d   1     -50.559  26.375  33.409  0.00  0.00     0.000 A 
ATOM      7  C   UNL d   1     -50.240  25.614  33.354  0.00  0.00     0.000 A 
ATOM      8  C   UNL d   1     -50.741  24.969  33.320  0.00  0.00     0.000 A 
ATOM      9  C   UNL d   1     -51.553  25.069  33.341  0.00  0.00     0.000 A 
ATOM     10  C   UNL d   1     -51.874  25.822  33.396  0.00  0.00     0.000 A 
ATOM     11  C   UNL d   1     -51.377  26.482  33.430  0.00  0.00     0.000 A 
ENDBRANCH   5   6
ENDBRANCH   4   5
ENDBRANCH   1   4
BRANCH   2  12
ATOM     12  C   UNL d   1     -48.292  28.743  34.835  0.00  0.00     0.097 A 
ATOM     13  C   UNL d   1     -48.352  28.758  35.659  0.00  0.00     0.118 A 
ATOM     14  S   UNL d   1     -47.866  29.367  35.941  0.00  0.00     0.213 S 
ATOM     15  O   UNL d   1     -48.269  28.947  36.522  0.00  0.00    -0.217 OA
ATOM     16  O   UNL d   1     -47.363  29.991  36.147  0.00  0.00    -0.217 OA
ATOM     17  C   UNL d   1     -47.506  29.729  35.288  0.00  0.00     0.100 A 
ATOM     18  C   UNL d   1     -47.766  29.348  34.607  0.00  0.00     0.032 A 
ENDBRANCH   2  12
TORSDOF 4
ENDMDL
MODEL 3
REMARK VINA RESULT:      42.0      3.512      5.573
REMARK  4 active torsions:
REMARK  status: ('A' for Active; 'I' for Inactive)
REMARK       I    between atoms: C_3  and  N_7 
REMARK    1  A    between atoms: C_6  and  C_3 
REMARK    2  A    between atoms: C_8  and  C_6 
REMARK    3  A    between atoms: N_7  and  C_9 
REMARK    4  A    between atoms: C_13  and  C_8 
ROOT
ATOM      1  C   UNL d   1     -48.882  28.046  34.695  0.00  0.00     0.279 C 
ATOM      2  N   UNL d   1     -48.588  28.819  34.687  0.00  0.00    -0.207 NA
ATOM      3  O   UNL d   1     -48.604  27.511  35.247  0.00  0.00    -0.265 OA
ENDROOT
BRANCH   1   4
ATOM      4  C   UNL d   1     -49.454  27.821  34.144  0.00  0.00     0.062 C 
BRANCH   4   5
ATOM      5  C   UNL d   1     -49.520  27.035  33.917  0.00  0.00     0.005 C 
BRANCH   5   6
ATOM      6  C   UNL d   1     -50.248  26.719  33.713  0.00  0.00     0.000 A 
ATOM      7  C   UNL d   1     -50.892  27.218  33.567  0.00  0.00     0.000 A 
ATOM      8  C   UNL d   1     -51.614  26.894  33.364  0.00  0.00     0.000 A 
ATOM      9  C   UNL d   1     -51.707  26.083  33.306  0.00  0.00     0.000 A 
ATOM     10  C   UNL d   1     -51.071  25.584  33.451  0.00  0.00     0.000 A 
ATOM     11  C   UNL d   1     -50.336  25.901  33.656  0.00  0.00     0.000 A 
ENDBRANCH   5   6
ENDBRANCH   4   5
ENDBRANCH   1   4
BRANCH   2  12
ATOM     12  C   UNL d   1     -48.020  29.042  35.234  0.00  0.00     0.097 A 
ATOM     13  C   UNL d   1     -48.123  29.826  34.992  0.00  0.00     0.118 A 
ATOM     14  S   UNL d   1     -47.611  30.302  35.438  0.00  0.00     0.213 S 
ATOM     15  O   UNL d   1     -48.073  30.707  34.891  0.00  0.00    -0.217 OA
ATOM     16  O   UNL d   1     -47.075  30.711  35.918  0.00  0.00    -0.217 OA
ATOM     17  C   UNL d   1     -47.191  29.809  35.956  0.00  0.00     0.100 A 
ATOM     18  C   UNL d   1     -47.440  29.035  35.833  0.00  0.00     0.032 A 
ENDBRANCH   2  12
TORSDOF 4
ENDMDL
