MODEL 1
REMARK VINA RESULT:      -4.4      0.000      0.000
REMARK  6 active torsions:
REMARK  status: ('A' for Active; 'I' for Inactive)
REMARK    1  A    between atoms: S_13  and  C_3 
REMARK    2  A    between atoms: C_21  and  C_4 
REMARK       I    between atoms: N_7  and  C_10 
REMARK    3  A    between atoms: C_10  and  C_20 
REMARK    4  A    between atoms: C_20  and  S_13 
REMARK    5  A    between atoms: O_24  and  C_16 
REMARK    6  A    between atoms: O_25  and  C_17 
ROOT
ATOM      1  N   UNL d   1     -46.243  12.637  22.848  0.00  0.00    -0.272 N 
ATOM      2  C   UNL d   1     -46.987  13.047  22.814  0.00  0.00     0.271 C 
ATOM      3  C   UNL d   1     -44.912  12.466  22.384  0.00  0.00     0.020 A 
ATOM      4  C   UNL d   1     -45.627  12.863  22.348  0.00  0.00     0.083 A 
ATOM      5  C   UNL d   1     -44.809  11.858  22.904  0.00  0.00     0.005 A 
ATOM      6  C   UNL d   1     -44.287  12.690  21.881  0.00  0.00     0.028 A 
ATOM      7  C   UNL d   1     -43.564  12.293  21.914  0.00  0.00     0.116 A 
ATOM      8  C   UNL d   1     -43.461  11.684  22.434  0.00  0.00     0.116 A 
ATOM      9  C   UNL d   1     -44.077  11.452  22.939  0.00  0.00     0.026 A 
ATOM     10  C   UNL d   1     -46.140  12.029  23.368  0.00  0.00     0.083 A 
ATOM     11  O   UNL d   1     -47.084  13.670  22.278  0.00  0.00    -0.266 OA
ATOM     12  C   UNL d   1     -45.417  11.625  23.407  0.00  0.00     0.019 A 
ENDROOT
BRANCH   2  13
ATOM     13  C   UNL d   1     -47.604  12.821  23.314  0.00  0.00     0.099 C 
BRANCH  13  14
ATOM     14  S   UNL d   1     -48.378  12.986  23.102  0.00  0.00    -0.043 SA
BRANCH  14  15
ATOM     15  C   UNL d   1     -48.991  12.460  23.316  0.00  0.00     0.202 A 
ATOM     16  N   UNL d   1     -49.768  12.661  23.392  0.00  0.00    -0.263 N 
ATOM     17  C   UNL d   1     -50.173  11.983  23.608  0.00  0.00     0.202 A 
ATOM     18  C   UNL d   1     -50.317  13.275  23.338  0.00  0.00     0.074 A 
ATOM     19  N   UNL d   1     -49.641  11.367  23.666  0.00  0.00    -0.121 NA
ATOM     20  S   UNL d   1     -50.975  12.172  23.690  0.00  0.00    -0.046 SA
ATOM     21  N   UNL d   1     -48.906  11.670  23.482  0.00  0.00    -0.121 NA
ATOM     22  C   UNL d   1     -51.064  12.976  23.522  0.00  0.00     0.056 A 
BRANCH  18  23
ATOM     23  C   UNL d   1     -50.143  14.048  23.135  0.00  0.00     0.017 A 
ATOM     24  C   UNL d   1     -50.259  14.303  22.348  0.00  0.00     0.002 A 
ATOM     25  C   UNL d   1     -50.085  15.070  22.155  0.00  0.00     0.000 A 
ATOM     26  C   UNL d   1     -49.799  15.603  22.707  0.00  0.00     0.000 A 
ATOM     27  C   UNL d   1     -49.687  15.336  23.491  0.00  0.00     0.000 A 
ATOM     28  C   UNL d   1     -49.859  14.570  23.690  0.00  0.00     0.002 A 
ENDBRANCH  18  23
ENDBRANCH  14  15
ENDBRANCH  13  14
ENDBRANCH   2  13
BRANCH   7  29
ATOM     29  O   UNL d   1     -42.957  12.529  21.408  0.00  0.00    -0.326 OA
ATOM     30  C   UNL d   1     -42.918  13.331  21.152  0.00  0.00     0.181 C 
ENDBRANCH   7  29
BRANCH   8  31
ATOM     31  O   UNL d   1     -42.745  11.281  22.475  0.00  0.00    -0.326 OA
ATOM     32  C   UNL d   1     -42.532  10.909  23.194  0.00  0.00     0.181 C 
ENDBRANCH   8  31
TORSDOF 6
ENDMDL
MODEL 2
REMARK VINA RESULT:      -2.7      3.667      7.609
REMARK  6 active torsions:
REMARK  status: ('A' for Active; 'I' for Inactive)
REMARK    1  A    between atoms: S_13  and  C_3 
REMARK    2  A    between atoms: C_21  and  C_4 
REMARK       I    between atoms: N_7  and  C_10 
REMARK    3  A    between atoms: C_10  and  C_20 
REMARK    4  A    between atoms: C_20  and  S_13 
REMARK    5  A    between atoms: O_24  and  C_16 
REMARK    6  A    between atoms: O_25  and  C_17 
ROOT
ATOM      1  N   UNL d   1     -43.439  12.968  21.557  0.00  0.00    -0.272 N 
ATOM      2  C   UNL d   1     -42.638  12.949  21.271  0.00  0.00     0.271 C 
ATOM      3  C   UNL d   1     -44.477  12.400  22.342  0.00  0.00     0.020 A 
ATOM      4  C   UNL d   1     -43.707  12.378  22.068  0.00  0.00     0.083 A 
ATOM      5  C   UNL d   1     -44.974  12.994  22.115  0.00  0.00     0.005 A 
ATOM      6  C   UNL d   1     -44.752  11.806  22.857  0.00  0.00     0.028 A 
ATOM      7  C   UNL d   1     -45.529  11.824  23.136  0.00  0.00     0.116 A 
ATOM      8  C   UNL d   1     -46.025  12.419  22.909  0.00  0.00     0.116 A 
ATOM      9  C   UNL d   1     -45.762  13.016  22.396  0.00  0.00     0.026 A 
ATOM     10  C   UNL d   1     -43.935  13.563  21.331  0.00  0.00     0.083 A 
ATOM     11  O   UNL d   1     -42.136  12.337  21.508  0.00  0.00    -0.266 OA
ATOM     12  C   UNL d   1     -44.717  13.588  21.607  0.00  0.00     0.019 A 
ENDROOT
BRANCH   2  13
ATOM     13  C   UNL d   1     -42.371  13.540  20.760  0.00  0.00     0.099 C 
BRANCH  13  14
ATOM     14  S   UNL d   1     -41.566  13.654  20.661  0.00  0.00    -0.043 SA
BRANCH  14  15
ATOM     15  C   UNL d   1     -41.264  13.879  19.913  0.00  0.00     0.202 A 
ATOM     16  N   UNL d   1     -40.544  14.216  19.788  0.00  0.00    -0.263 N 
ATOM     17  C   UNL d   1     -40.474  14.344  18.982  0.00  0.00     0.202 A 
ATOM     18  C   UNL d   1     -39.849  14.484  20.145  0.00  0.00     0.074 A 
ATOM     19  N   UNL d   1     -41.154  14.084  18.616  0.00  0.00    -0.121 NA
ATOM     20  S   UNL d   1     -39.737  14.692  18.835  0.00  0.00    -0.046 SA
ATOM     21  N   UNL d   1     -41.644  13.795  19.201  0.00  0.00    -0.121 NA
ATOM     22  C   UNL d   1     -39.348  14.778  19.559  0.00  0.00     0.056 A 
BRANCH  18  23
ATOM     23  C   UNL d   1     -39.690  14.458  20.947  0.00  0.00     0.017 A 
ATOM     24  C   UNL d   1     -39.293  13.797  21.267  0.00  0.00     0.002 A 
ATOM     25  C   UNL d   1     -39.139  13.778  22.061  0.00  0.00     0.000 A 
ATOM     26  C   UNL d   1     -39.361  14.388  22.562  0.00  0.00     0.000 A 
ATOM     27  C   UNL d   1     -39.758  15.045  22.230  0.00  0.00     0.000 A 
ATOM     28  C   UNL d   1     -39.914  15.068  21.436  0.00  0.00     0.002 A 
ENDBRANCH  18  23
ENDBRANCH  14  15
ENDBRANCH  13  14
ENDBRANCH   2  13
BRANCH   7  29
ATOM     29  O   UNL d   1     -45.783  11.228  23.645  0.00  0.00    -0.326 OA
ATOM     30  C   UNL d   1     -45.342  10.511  23.698  0.00  0.00     0.181 C 
ENDBRANCH   7  29
BRANCH   8  31
ATOM     31  O   UNL d   1     -46.801  12.447  23.181  0.00  0.00    -0.326 OA
ATOM     32  C   UNL d   1     -47.276  13.106  22.979  0.00  0.00     0.181 C 
ENDBRANCH   8  31
TORSDOF 6
ENDMDL
MODEL 3
REMARK VINA RESULT:      -2.5      4.015      7.843
REMARK  6 active torsions:
REMARK  status: ('A' for Active; 'I' for Inactive)
REMARK    1  A    between atoms: S_13  and  C_3 
REMARK    2  A    between atoms: C_21  and  C_4 
REMARK       I    between atoms: N_7  and  C_10 
REMARK    3  A    between atoms: C_10  and  C_20 
REMARK    4  A    between atoms: C_20  and  S_13 
REMARK    5  A    between atoms: O_24  and  C_16 
REMARK    6  A    between atoms: O_25  and  C_17 
ROOT
ATOM      1  N   UNL d   1     -42.965  13.379  21.469  0.00  0.00    -0.272 N 
ATOM      2  C   UNL d   1     -42.371  13.871  21.110  0.00  0.00     0.271 C 
ATOM      3  C   UNL d   1     -44.294  13.199  21.934  0.00  0.00     0.020 A 
ATOM      4  C   UNL d   1     -43.725  13.674  21.588  0.00  0.00     0.083 A 
ATOM      5  C   UNL d   1     -44.114  12.444  22.156  0.00  0.00     0.005 A 
ATOM      6  C   UNL d   1     -45.063  13.493  22.056  0.00  0.00     0.028 A 
ATOM      7  C   UNL d   1     -45.641  13.016  22.404  0.00  0.00     0.116 A 
ATOM      8  C   UNL d   1     -45.460  12.261  22.627  0.00  0.00     0.116 A 
ATOM      9  C   UNL d   1     -44.696  11.958  22.509  0.00  0.00     0.026 A 
ATOM     10  C   UNL d   1     -42.784  12.625  21.691  0.00  0.00     0.083 A 
ATOM     11  O   UNL d   1     -42.564  14.643  20.885  0.00  0.00    -0.266 OA
ATOM     12  C   UNL d   1     -43.359  12.139  22.041  0.00  0.00     0.019 A 
ENDROOT
BRANCH   2  13
ATOM     13  C   UNL d   1     -41.610  13.575  20.991  0.00  0.00     0.099 C 
BRANCH  13  14
ATOM     14  S   UNL d   1     -41.046  14.045  20.627  0.00  0.00    -0.043 SA
BRANCH  14  15
ATOM     15  C   UNL d   1     -40.250  14.018  20.884  0.00  0.00     0.202 A 
ATOM     16  N   UNL d   1     -39.613  14.231  20.440  0.00  0.00    -0.263 N 
ATOM     17  C   UNL d   1     -38.947  14.118  20.903  0.00  0.00     0.202 A 
ATOM     18  C   UNL d   1     -39.363  14.518  19.706  0.00  0.00     0.074 A 
ATOM     19  N   UNL d   1     -39.179  13.835  21.631  0.00  0.00    -0.121 NA
ATOM     20  S   UNL d   1     -38.281  14.334  20.460  0.00  0.00    -0.046 SA
ATOM     21  N   UNL d   1     -39.993  13.774  21.614  0.00  0.00    -0.121 NA
ATOM     22  C   UNL d   1     -38.540  14.582  19.716  0.00  0.00     0.056 A 
BRANCH  18  23
ATOM     23  C   UNL d   1     -39.855  14.704  19.080  0.00  0.00     0.017 A 
ATOM     24  C   UNL d   1     -40.131  15.488  18.993  0.00  0.00     0.002 A 
ATOM     25  C   UNL d   1     -40.617  15.665  18.371  0.00  0.00     0.000 A 
ATOM     26  C   UNL d   1     -40.847  15.100  17.823  0.00  0.00     0.000 A 
ATOM     27  C   UNL d   1     -40.564  14.320  17.920  0.00  0.00     0.000 A 
ATOM     28  C   UNL d   1     -40.077  14.137  18.542  0.00  0.00     0.002 A 
ENDBRANCH  18  23
ENDBRANCH  14  15
ENDBRANCH  13  14
ENDBRANCH   2  13
BRANCH   7  29
ATOM     29  O   UNL d   1     -46.397  13.324  22.518  0.00  0.00    -0.326 OA
ATOM     30  C   UNL d   1     -46.491  14.149  22.668  0.00  0.00     0.181 C 
ENDBRANCH   7  29
BRANCH   8  31
ATOM     31  O   UNL d   1     -46.027  11.777  22.975  0.00  0.00    -0.326 OA
ATOM     32  C   UNL d   1     -45.775  11.102  23.402  0.00  0.00     0.181 C 
ENDBRANCH   8  31
TORSDOF 6
ENDMDL
MODEL 4
REMARK VINA RESULT:      -2.4      3.070      4.872
REMARK  6 active torsions:
REMARK  status: ('A' for Active; 'I' for Inactive)
REMARK    1  A    between atoms: S_13  and  C_3 
REMARK    2  A    between atoms: C_21  and  C_4 
REMARK       I    between atoms: N_7  and  C_10 
REMARK    3  A    between atoms: C_10  and  C_20 
REMARK    4  A    between atoms: C_20  and  S_13 
REMARK    5  A    between atoms: O_24  and  C_16 
REMARK    6  A    between atoms: O_25  and  C_17 
ROOT
ATOM      1  N   UNL d   1     -42.270  13.399  21.068  0.00  0.00    -0.272 N 
ATOM      2  C   UNL d   1     -42.973  12.934  21.179  0.00  0.00     0.271 C 
ATOM      3  C   UNL d   1     -41.383  14.100  20.208  0.00  0.00     0.020 A 
ATOM      4  C   UNL d   1     -42.060  13.653  20.311  0.00  0.00     0.083 A 
ATOM      5  C   UNL d   1     -40.922  14.293  20.842  0.00  0.00     0.005 A 
ATOM      6  C   UNL d   1     -41.168  14.358  19.447  0.00  0.00     0.028 A 
ATOM      7  C   UNL d   1     -40.485  14.810  19.338  0.00  0.00     0.116 A 
ATOM      8  C   UNL d   1     -40.024  15.003  19.972  0.00  0.00     0.116 A 
ATOM      9  C   UNL d   1     -40.230  14.751  20.736  0.00  0.00     0.026 A 
ATOM     10  C   UNL d   1     -41.809  13.592  21.701  0.00  0.00     0.083 A 
ATOM     11  O   UNL d   1     -43.440  12.740  20.524  0.00  0.00    -0.266 OA
ATOM     12  C   UNL d   1     -41.122  14.046  21.600  0.00  0.00     0.019 A 
ENDROOT
BRANCH   2  13
ATOM     13  C   UNL d   1     -43.183  12.680  21.936  0.00  0.00     0.099 C 
BRANCH  13  14
ATOM     14  S   UNL d   1     -43.965  12.497  22.098  0.00  0.00    -0.043 SA
BRANCH  14  15
ATOM     15  C   UNL d   1     -44.149  11.830  22.568  0.00  0.00     0.202 A 
ATOM     16  N   UNL d   1     -44.859  11.697  22.924  0.00  0.00    -0.263 N 
ATOM     17  C   UNL d   1     -44.798  10.985  23.324  0.00  0.00     0.202 A 
ATOM     18  C   UNL d   1     -45.621  11.990  23.048  0.00  0.00     0.074 A 
ATOM     19  N   UNL d   1     -44.049  10.683  23.211  0.00  0.00    -0.121 NA
ATOM     20  S   UNL d   1     -45.522  10.832  23.698  0.00  0.00    -0.046 SA
ATOM     21  N   UNL d   1     -43.649  11.214  22.738  0.00  0.00    -0.121 NA
ATOM     22  C   UNL d   1     -46.033  11.458  23.525  0.00  0.00     0.056 A 
BRANCH  18  23
ATOM     23  C   UNL d   1     -45.912  12.692  22.744  0.00  0.00     0.017 A 
ATOM     24  C   UNL d   1     -45.857  13.390  23.198  0.00  0.00     0.002 A 
ATOM     25  C   UNL d   1     -46.147  14.081  22.892  0.00  0.00     0.000 A 
ATOM     26  C   UNL d   1     -46.493  14.116  22.150  0.00  0.00     0.000 A 
ATOM     27  C   UNL d   1     -46.543  13.410  21.705  0.00  0.00     0.000 A 
ATOM     28  C   UNL d   1     -46.254  12.716  22.007  0.00  0.00     0.002 A 
ENDBRANCH  18  23
ENDBRANCH  14  15
ENDBRANCH  13  14
ENDBRANCH   2  13
BRANCH   7  29
ATOM     29  O   UNL d   1     -40.288  15.056  18.576  0.00  0.00    -0.326 OA
ATOM     30  C   UNL d   1     -40.900  15.198  18.014  0.00  0.00     0.181 C 
ENDBRANCH   7  29
BRANCH   8  31
ATOM     31  O   UNL d   1     -39.342  15.453  19.876  0.00  0.00    -0.326 OA
ATOM     32  C   UNL d   1     -38.832  15.559  20.531  0.00  0.00     0.181 C 
ENDBRANCH   8  31
TORSDOF 6
ENDMDL
MODEL 5
REMARK VINA RESULT:      -2.1      4.685      8.399
REMARK  6 active torsions:
REMARK  status: ('A' for Active; 'I' for Inactive)
REMARK    1  A    between atoms: S_13  and  C_3 
REMARK    2  A    between atoms: C_21  and  C_4 
REMARK       I    between atoms: N_7  and  C_10 
REMARK    3  A    between atoms: C_10  and  C_20 
REMARK    4  A    between atoms: C_20  and  S_13 
REMARK    5  A    between atoms: O_24  and  C_16 
REMARK    6  A    between atoms: O_25  and  C_17 
ROOT
ATOM      1  N   UNL d   1     -42.044  13.866  21.104  0.00  0.00    -0.272 N 
ATOM      2  C   UNL d   1     -41.624  14.509  20.741  0.00  0.00     0.271 C 
ATOM      3  C   UNL d   1     -43.256  13.310  21.593  0.00  0.00     0.020 A 
ATOM      4  C   UNL d   1     -42.855  13.931  21.244  0.00  0.00     0.083 A 
ATOM      5  C   UNL d   1     -42.864  12.636  21.801  0.00  0.00     0.005 A 
ATOM      6  C   UNL d   1     -44.074  13.372  21.736  0.00  0.00     0.028 A 
ATOM      7  C   UNL d   1     -44.484  12.748  22.089  0.00  0.00     0.116 A 
ATOM      8  C   UNL d   1     -44.091  12.074  22.296  0.00  0.00     0.116 A 
ATOM      9  C   UNL d   1     -43.276  12.001  22.158  0.00  0.00     0.026 A 
ATOM     10  C   UNL d   1     -41.652  13.192  21.312  0.00  0.00     0.083 A 
ATOM     11  O   UNL d   1     -42.034  15.196  20.532  0.00  0.00    -0.266 OA
ATOM     12  C   UNL d   1     -42.056  12.560  21.666  0.00  0.00     0.019 A 
ENDROOT
BRANCH   2  13
ATOM     13  C   UNL d   1     -40.813  14.443  20.602  0.00  0.00     0.099 C 
BRANCH  13  14
ATOM     14  S   UNL d   1     -40.463  14.905  20.023  0.00  0.00    -0.043 SA
BRANCH  14  15
ATOM     15  C   UNL d   1     -39.666  15.144  20.103  0.00  0.00     0.202 A 
ATOM     16  N   UNL d   1     -39.180  15.345  19.493  0.00  0.00    -0.263 N 
ATOM     17  C   UNL d   1     -38.454  15.541  19.818  0.00  0.00     0.202 A 
ATOM     18  C   UNL d   1     -39.120  15.431  18.674  0.00  0.00     0.074 A 
ATOM     19  N   UNL d   1     -38.498  15.460  20.628  0.00  0.00    -0.121 NA
ATOM     20  S   UNL d   1     -37.940  15.751  19.203  0.00  0.00    -0.046 SA
ATOM     21  N   UNL d   1     -39.256  15.212  20.800  0.00  0.00    -0.121 NA
ATOM     22  C   UNL d   1     -38.355  15.682  18.491  0.00  0.00     0.056 A 
BRANCH  18  23
ATOM     23  C   UNL d   1     -39.722  15.291  18.139  0.00  0.00     0.017 A 
ATOM     24  C   UNL d   1     -40.215  15.921  17.900  0.00  0.00     0.002 A 
ATOM     25  C   UNL d   1     -40.810  15.775  17.370  0.00  0.00     0.000 A 
ATOM     26  C   UNL d   1     -40.942  15.027  17.061  0.00  0.00     0.000 A 
ATOM     27  C   UNL d   1     -40.442  14.405  17.307  0.00  0.00     0.000 A 
ATOM     28  C   UNL d   1     -39.846  14.546  17.838  0.00  0.00     0.002 A 
ENDBRANCH  18  23
ENDBRANCH  14  15
ENDBRANCH  13  14
ENDBRANCH   2  13
BRANCH   7  29
ATOM     29  O   UNL d   1     -45.293  12.827  22.222  0.00  0.00    -0.326 OA
ATOM     30  C   UNL d   1     -45.646  13.593  22.193  0.00  0.00     0.181 C 
ENDBRANCH   7  29
BRANCH   8  31
ATOM     31  O   UNL d   1     -44.488  11.445  22.647  0.00  0.00    -0.326 OA
ATOM     32  C   UNL d   1     -44.049  10.884  23.087  0.00  0.00     0.181 C 
ENDBRANCH   8  31
TORSDOF 6
ENDMDL
MODEL 6
REMARK VINA RESULT:      -1.8      4.041      7.867
REMARK  6 active torsions:
REMARK  status: ('A' for Active; 'I' for Inactive)
REMARK    1  A    between atoms: S_13  and  C_3 
REMARK    2  A    between atoms: C_21  and  C_4 
REMARK       I    between atoms: N_7  and  C_10 
REMARK    3  A    between atoms: C_10  and  C_20 
REMARK    4  A    between atoms: C_20  and  S_13 
REMARK    5  A    between atoms: O_24  and  C_16 
REMARK    6  A    between atoms: O_25  and  C_17 
ROOT
ATOM      1  N   UNL d   1     -43.041  13.451  21.337  0.00  0.00    -0.272 N 
ATOM      2  C   UNL d   1     -42.476  13.965  20.964  0.00  0.00     0.271 C 
ATOM      3  C   UNL d   1     -44.309  13.252  21.945  0.00  0.00     0.020 A 
ATOM      4  C   UNL d   1     -43.768  13.750  21.586  0.00  0.00     0.083 A 
ATOM      5  C   UNL d   1     -44.133  12.472  22.056  0.00  0.00     0.005 A 
ATOM      6  C   UNL d   1     -45.044  13.550  22.198  0.00  0.00     0.028 A 
ATOM      7  C   UNL d   1     -45.593  13.051  22.560  0.00  0.00     0.116 A 
ATOM      8  C   UNL d   1     -45.417  12.271  22.671  0.00  0.00     0.116 A 
ATOM      9  C   UNL d   1     -44.687  11.963  22.423  0.00  0.00     0.026 A 
ATOM     10  C   UNL d   1     -42.865  12.671  21.448  0.00  0.00     0.083 A 
ATOM     11  O   UNL d   1     -42.664  14.763  20.854  0.00  0.00    -0.266 OA
ATOM     12  C   UNL d   1     -43.411  12.163  21.812  0.00  0.00     0.019 A 
ENDROOT
BRANCH   2  13
ATOM     13  C   UNL d   1     -41.749  13.665  20.715  0.00  0.00     0.099 C 
BRANCH  13  14
ATOM     14  S   UNL d   1     -41.118  14.176  20.602  0.00  0.00    -0.043 SA
BRANCH  14  15
ATOM     15  C   UNL d   1     -40.637  14.101  19.921  0.00  0.00     0.202 A 
ATOM     16  N   UNL d   1     -39.865  14.326  19.875  0.00  0.00    -0.263 N 
ATOM     17  C   UNL d   1     -39.609  14.155  19.116  0.00  0.00     0.202 A 
ATOM     18  C   UNL d   1     -39.229  14.658  20.285  0.00  0.00     0.074 A 
ATOM     19  N   UNL d   1     -40.227  13.826  18.699  0.00  0.00    -0.121 NA
ATOM     20  S   UNL d   1     -38.814  14.380  19.050  0.00  0.00    -0.046 SA
ATOM     21  N   UNL d   1     -40.866  13.795  19.206  0.00  0.00    -0.121 NA
ATOM     22  C   UNL d   1     -38.578  14.692  19.778  0.00  0.00     0.056 A 
BRANCH  18  23
ATOM     23  C   UNL d   1     -39.248  14.908  21.064  0.00  0.00     0.017 A 
ATOM     24  C   UNL d   1     -39.053  14.371  21.673  0.00  0.00     0.002 A 
ATOM     25  C   UNL d   1     -39.074  14.626  22.441  0.00  0.00     0.000 A 
ATOM     26  C   UNL d   1     -39.281  15.394  22.639  0.00  0.00     0.000 A 
ATOM     27  C   UNL d   1     -39.474  15.922  22.020  0.00  0.00     0.000 A 
ATOM     28  C   UNL d   1     -39.454  15.672  21.250  0.00  0.00     0.002 A 
ENDBRANCH  18  23
ENDBRANCH  14  15
ENDBRANCH  13  14
ENDBRANCH   2  13
BRANCH   7  29
ATOM     29  O   UNL d   1     -46.316  13.363  22.804  0.00  0.00    -0.326 OA
ATOM     30  C   UNL d   1     -46.386  14.194  22.935  0.00  0.00     0.181 C 
ENDBRANCH   7  29
BRANCH   8  31
ATOM     31  O   UNL d   1     -45.956  11.764  23.031  0.00  0.00    -0.326 OA
ATOM     32  C   UNL d   1     -45.688  11.023  23.314  0.00  0.00     0.181 C 
ENDBRANCH   8  31
TORSDOF 6
ENDMDL
MODEL 7
REMARK VINA RESULT:      -1.6      2.053      3.217
REMARK  6 active torsions:
REMARK  status: ('A' for Active; 'I' for Inactive)
REMARK    1  A    between atoms: S_13  and  C_3 
REMARK    2  A    between atoms: C_21  and  C_4 
REMARK       I    between atoms: N_7  and  C_10 
REMARK    3  A    between atoms: C_10  and  C_20 
REMARK    4  A    between atoms: C_20  and  S_13 
REMARK    5  A    between atoms: O_24  and  C_16 
REMARK    6  A    between atoms: O_25  and  C_17 
ROOT
ATOM      1  N   UNL d   1     -43.719  13.465  21.634  0.00  0.00    -0.272 N 
ATOM      2  C   UNL d   1     -44.534  13.503  21.873  0.00  0.00     0.271 C 
ATOM      3  C   UNL d   1     -42.521  14.119  21.241  0.00  0.00     0.020 A 
ATOM      4  C   UNL d   1     -43.305  14.160  21.470  0.00  0.00     0.083 A 
ATOM      5  C   UNL d   1     -42.153  13.404  21.174  0.00  0.00     0.005 A 
ATOM      6  C   UNL d   1     -42.100  14.818  21.075  0.00  0.00     0.028 A 
ATOM      7  C   UNL d   1     -41.309  14.781  20.843  0.00  0.00     0.116 A 
ATOM      8  C   UNL d   1     -40.940  14.067  20.776  0.00  0.00     0.116 A 
ATOM      9  C   UNL d   1     -41.351  13.363  20.939  0.00  0.00     0.026 A 
ATOM     10  C   UNL d   1     -43.351  12.750  21.566  0.00  0.00     0.083 A 
ATOM     11  O   UNL d   1     -44.904  14.240  21.939  0.00  0.00    -0.266 OA
ATOM     12  C   UNL d   1     -42.556  12.705  21.334  0.00  0.00     0.019 A 
ENDROOT
BRANCH   2  13
ATOM     13  C   UNL d   1     -44.947  12.808  22.036  0.00  0.00     0.099 C 
BRANCH  13  14
ATOM     14  S   UNL d   1     -45.682  12.849  22.396  0.00  0.00    -0.043 SA
BRANCH  14  15
ATOM     15  C   UNL d   1     -45.971  12.196  22.833  0.00  0.00     0.202 A 
ATOM     16  N   UNL d   1     -46.740  12.087  23.046  0.00  0.00    -0.263 N 
ATOM     17  C   UNL d   1     -46.776  11.383  23.464  0.00  0.00     0.202 A 
ATOM     18  C   UNL d   1     -47.504  12.399  23.012  0.00  0.00     0.074 A 
ATOM     19  N   UNL d   1     -46.028  11.064  23.505  0.00  0.00    -0.121 NA
ATOM     20  S   UNL d   1     -47.563  11.255  23.691  0.00  0.00    -0.046 SA
ATOM     21  N   UNL d   1     -45.529  11.575  23.110  0.00  0.00    -0.121 NA
ATOM     22  C   UNL d   1     -48.015  11.887  23.410  0.00  0.00     0.056 A 
BRANCH  18  23
ATOM     23  C   UNL d   1     -47.712  13.099  22.644  0.00  0.00     0.017 A 
ATOM     24  C   UNL d   1     -47.837  13.108  21.819  0.00  0.00     0.002 A 
ATOM     25  C   UNL d   1     -48.043  13.804  21.461  0.00  0.00     0.000 A 
ATOM     26  C   UNL d   1     -48.133  14.501  21.885  0.00  0.00     0.000 A 
ATOM     27  C   UNL d   1     -48.006  14.479  22.710  0.00  0.00     0.000 A 
ATOM     28  C   UNL d   1     -47.799  13.785  23.072  0.00  0.00     0.002 A 
ENDBRANCH  18  23
ENDBRANCH  14  15
ENDBRANCH  13  14
ENDBRANCH   2  13
BRANCH   7  29
ATOM     29  O   UNL d   1     -40.908  15.484  20.683  0.00  0.00    -0.326 OA
ATOM     30  C   UNL d   1     -41.097  15.922  19.987  0.00  0.00     0.181 C 
ENDBRANCH   7  29
BRANCH   8  31
ATOM     31  O   UNL d   1     -40.152  14.018  20.546  0.00  0.00    -0.326 OA
ATOM     32  C   UNL d   1     -39.587  13.737  21.096  0.00  0.00     0.181 C 
ENDBRANCH   8  31
TORSDOF 6
ENDMDL
