MODEL 1
REMARK VINA RESULT:      32.7      0.000      0.000
REMARK  3 active torsions:
REMARK  status: ('A' for Active; 'I' for Inactive)
REMARK    1  A    between atoms: C_6  and  N_2 
REMARK    2  A    between atoms: C_7  and  C_6 
REMARK       I    between atoms: N_11  and  C_7 
REMARK    3  A    between atoms: C_14  and  N_11 
ROOT
ATOM      1  S   UNL d   1     -57.648 -98.763 -44.731  0.00  0.00     0.274 S 
ATOM      2  N   UNL d   1     -57.003 -98.759 -44.232  0.00  0.00    -0.192 N 
ATOM      3  C   UNL d   1     -57.275 -98.759 -43.450  0.00  0.00     0.275 A 
ATOM      4  C   UNL d   1     -58.093 -98.763 -43.483  0.00  0.00     0.069 A 
ATOM      5  C   UNL d   1     -58.320 -98.766 -44.265  0.00  0.00     0.109 A 
ATOM      6  O   UNL d   1     -56.896 -98.761 -45.071  0.00  0.00    -0.200 OA
ATOM      7  O   UNL d   1     -58.118 -98.767 -45.418  0.00  0.00    -0.200 OA
ATOM      8  O   UNL d   1     -56.821 -98.755 -42.771  0.00  0.00    -0.266 OA
ATOM      9  C   UNL d   1     -58.661 -98.764 -42.884  0.00  0.00     0.005 A 
ATOM     10  C   UNL d   1     -59.121 -98.770 -44.464  0.00  0.00     0.013 A 
ATOM     11  C   UNL d   1     -59.464 -98.768 -43.083  0.00  0.00     0.000 A 
ATOM     12  C   UNL d   1     -59.692 -98.771 -43.866  0.00  0.00     0.001 A 
ENDROOT
BRANCH   2  13
ATOM     13  C   UNL d   1     -56.206 -98.756 -44.464  0.00  0.00     0.157 C 
BRANCH  13  14
ATOM     14  C   UNL d   1     -55.826 -99.465 -44.608  0.00  0.00     0.298 C 
ATOM     15  N   UNL d   1     -55.846-100.063 -44.033  0.00  0.00    -0.207 NA
ATOM     16  O   UNL d   1     -55.426 -99.596 -45.311  0.00  0.00    -0.264 OA
BRANCH  15  17
ATOM     17  C   UNL d   1     -55.465-100.783 -44.169  0.00  0.00     0.085 A 
ATOM     18  C   UNL d   1     -55.251-101.244 -43.535  0.00  0.00     0.019 A 
ATOM     19  C   UNL d   1     -54.870-101.963 -43.671  0.00  0.00     0.002 A 
ATOM     20  C   UNL d   1     -54.712-102.206 -44.435  0.00  0.00     0.000 A 
ATOM     21  C   UNL d   1     -54.932-101.733 -45.075  0.00  0.00     0.002 A 
ATOM     22  C   UNL d   1     -55.305-101.029 -44.944  0.00  0.00     0.019 A 
ENDBRANCH  15  17
ENDBRANCH  13  14
ENDBRANCH   2  13
TORSDOF 3
ENDMDL
MODEL 2
REMARK VINA RESULT:      33.2      0.657      1.413
REMARK  3 active torsions:
REMARK  status: ('A' for Active; 'I' for Inactive)
REMARK    1  A    between atoms: C_6  and  N_2 
REMARK    2  A    between atoms: C_7  and  C_6 
REMARK       I    between atoms: N_11  and  C_7 
REMARK    3  A    between atoms: C_14  and  N_11 
ROOT
ATOM      1  S   UNL d   1     -57.259 -98.757 -43.974  0.00  0.00     0.274 S 
ATOM      2  N   UNL d   1     -56.818 -98.756 -44.659  0.00  0.00    -0.192 N 
ATOM      3  C   UNL d   1     -57.336 -98.756 -45.305  0.00  0.00     0.275 A 
ATOM      4  C   UNL d   1     -58.096 -98.757 -45.001  0.00  0.00     0.069 A 
ATOM      5  C   UNL d   1     -58.049 -98.757 -44.187  0.00  0.00     0.109 A 
ATOM      6  O   UNL d   1     -56.437 -98.756 -43.904  0.00  0.00    -0.200 OA
ATOM      7  O   UNL d   1     -57.472 -98.757 -43.169  0.00  0.00    -0.200 OA
ATOM      8  O   UNL d   1     -57.136 -98.756 -46.097  0.00  0.00    -0.266 OA
ATOM      9  C   UNL d   1     -58.832 -98.758 -45.375  0.00  0.00     0.005 A 
ATOM     10  C   UNL d   1     -58.736 -98.758 -43.731  0.00  0.00     0.013 A 
ATOM     11  C   UNL d   1     -59.522 -98.758 -44.918  0.00  0.00     0.000 A 
ATOM     12  C   UNL d   1     -59.474 -98.758 -44.104  0.00  0.00     0.001 A 
ENDROOT
BRANCH   2  13
ATOM     13  C   UNL d   1     -55.989 -98.755 -44.707  0.00  0.00     0.157 C 
BRANCH  13  14
ATOM     14  C   UNL d   1     -55.587 -99.466 -44.724  0.00  0.00     0.298 C 
ATOM     15  N   UNL d   1     -55.901-100.122 -44.325  0.00  0.00    -0.207 NA
ATOM     16  O   UNL d   1     -54.879 -99.542 -45.129  0.00  0.00    -0.264 OA
BRANCH  15  17
ATOM     17  C   UNL d   1     -55.501-100.845 -44.337  0.00  0.00     0.085 A 
ATOM     18  C   UNL d   1     -55.488-101.279 -45.024  0.00  0.00     0.019 A 
ATOM     19  C   UNL d   1     -55.088-102.002 -45.035  0.00  0.00     0.002 A 
ATOM     20  C   UNL d   1     -54.712-102.274 -44.363  0.00  0.00     0.000 A 
ATOM     21  C   UNL d   1     -54.729-101.827 -43.669  0.00  0.00     0.002 A 
ATOM     22  C   UNL d   1     -55.119-101.121 -43.655  0.00  0.00     0.019 A 
ENDBRANCH  15  17
ENDBRANCH  13  14
ENDBRANCH   2  13
TORSDOF 3
ENDMDL
