MODEL 1
REMARK VINA RESULT:      68.2      0.000      0.000
REMARK  3 active torsions:
REMARK  status: ('A' for Active; 'I' for Inactive)
REMARK    1  A    between atoms: N_4  and  C_2 
REMARK    2  A    between atoms: C_12  and  C_10 
REMARK    3  A    between atoms: C_19  and  C_11 
ROOT
ATOM      1  C   UNL d   1      59.949  49.405  51.286  0.00  0.00     0.152 A 
ATOM      2  C   UNL d   1      60.724  49.307  51.090  0.00  0.00     0.174 A 
ATOM      3  C   UNL d   1      59.739  49.559  52.073  0.00  0.00     0.111 A 
ATOM      4  O   UNL d   1      59.356  49.351  50.703  0.00  0.00    -0.302 OA
ATOM      5  N   UNL d   1      61.308  49.358  51.658  0.00  0.00    -0.207 NA
ATOM      6  C   UNL d   1      58.355  49.606  51.694  0.00  0.00     0.043 A 
ATOM      7  N   UNL d   1      60.309  49.613  52.650  0.00  0.00    -0.225 NA
ATOM      8  C   UNL d   1      58.562  49.454  50.917  0.00  0.00     0.102 A 
ATOM      9  C   UNL d   1      61.099  49.513  52.444  0.00  0.00     0.164 A 
ATOM     10  C   UNL d   1      57.565  49.707  51.900  0.00  0.00     0.004 A 
ATOM     11  C   UNL d   1      57.976  49.401  50.339  0.00  0.00     0.025 A 
ATOM     12  C   UNL d   1      56.977  49.655  51.327  0.00  0.00     0.000 A 
ATOM     13  C   UNL d   1      57.178  49.501  50.538  0.00  0.00     0.002 A 
ENDROOT
BRANCH   2  14
ATOM     14  N   UNL d   1      60.932  49.154  50.312  0.00  0.00    -0.284 N 
ATOM     15  C   UNL d   1      61.174  48.438  50.005  0.00  0.00     0.130 A 
ATOM     16  C   UNL d   1      61.324  48.535  49.208  0.00  0.00     0.025 A 
ATOM     17  C   UNL d   1      61.175  49.318  49.015  0.00  0.00     0.021 A 
ATOM     18  C   UNL d   1      60.931  49.707  49.699  0.00  0.00     0.082 A 
BRANCH  15  19
ATOM     19  C   UNL d   1      61.256  47.708  50.442  0.00  0.00     0.228 C 
ATOM     20  O   UNL d   1      62.027  47.436  50.670  0.00  0.00    -0.643 OA
ATOM     21  O   UNL d   1      60.568  47.258  50.647  0.00  0.00    -0.643 OA
ENDBRANCH  15  19
ENDBRANCH   2  14
BRANCH   9  22
ATOM     22  C   UNL d   1      61.711  49.567  53.042  0.00  0.00     0.039 C 
ATOM     23  C   UNL d   1      61.501  49.708  53.848  0.00  0.00     0.003 C 
ENDBRANCH   9  22
TORSDOF 3
ENDMDL
