MODEL 1
REMARK VINA RESULT:      89.2      0.000      0.000
REMARK  3 active torsions:
REMARK  status: ('A' for Active; 'I' for Inactive)
REMARK    1  A    between atoms: C_4  and  C_1 
REMARK    2  A    between atoms: C_12  and  N_3 
REMARK    3  A    between atoms: C_14  and  C_7 
ROOT
ATOM      1  N   UNL d   1     -55.397-101.062 -42.223  0.00  0.00    -0.165 NA
ATOM      2  N   UNL d   1     -55.287-100.978 -43.022  0.00  0.00    -0.230 N 
ATOM      3  C   UNL d   1     -55.511-101.828 -42.037  0.00  0.00     0.108 A 
ATOM      4  C   UNL d   1     -55.337-101.757 -43.360  0.00  0.00     0.084 A 
ATOM      5  C   UNL d   1     -55.476-102.285 -42.747  0.00  0.00     0.040 A 
ENDROOT
BRANCH   3   6
ATOM      6  C   UNL d   1     -55.637-102.086 -41.270  0.00  0.00     0.083 A 
ATOM      7  C   UNL d   1     -56.304-102.551 -41.101  0.00  0.00     0.302 A 
ATOM      8  O   UNL d   1     -56.435-102.815 -40.321  0.00  0.00    -0.273 OA
ATOM      9  O   UNL d   1     -56.834-102.749 -41.713  0.00  0.00    -0.259 OA
ATOM     10  C   UNL d   1     -55.909-102.617 -39.723  0.00  0.00     0.103 A 
ATOM     11  C   UNL d   1     -55.242-102.151 -39.892  0.00  0.00     0.023 A 
ATOM     12  C   UNL d   1     -56.045-102.879 -38.963  0.00  0.00     0.025 A 
ATOM     13  C   UNL d   1     -55.108-101.888 -40.658  0.00  0.00     0.009 A 
ATOM     14  C   UNL d   1     -54.718-101.952 -39.300  0.00  0.00     0.002 A 
ATOM     15  C   UNL d   1     -54.853-102.215 -38.535  0.00  0.00     0.000 A 
ATOM     16  C   UNL d   1     -55.520-102.681 -38.365  0.00  0.00     0.002 A 
ENDBRANCH   3   6
BRANCH   2  17
ATOM     17  C   UNL d   1     -55.156-100.265 -43.400  0.00  0.00     0.083 A 
ATOM     18  C   UNL d   1     -54.857 -99.625 -42.974  0.00  0.00     0.019 A 
ATOM     19  C   UNL d   1     -54.721 -98.898 -43.350  0.00  0.00     0.002 A 
ATOM     20  C   UNL d   1     -54.891 -98.823 -44.168  0.00  0.00     0.000 A 
ATOM     21  C   UNL d   1     -55.190 -99.464 -44.594  0.00  0.00     0.002 A 
ATOM     22  C   UNL d   1     -55.325-100.195 -44.210  0.00  0.00     0.019 A 
ENDBRANCH   2  17
BRANCH   4  23
ATOM     23  C   UNL d   1     -55.263-101.954 -44.143  0.00  0.00     0.018 A 
ATOM     24  C   UNL d   1     -54.786-102.573 -44.377  0.00  0.00     0.002 A 
ATOM     25  C   UNL d   1     -54.711-102.772 -45.170  0.00  0.00     0.000 A 
ATOM     26  C   UNL d   1     -55.119-102.347 -45.749  0.00  0.00     0.000 A 
ATOM     27  C   UNL d   1     -55.605-101.717 -45.517  0.00  0.00     0.000 A 
ATOM     28  C   UNL d   1     -55.675-101.521 -44.710  0.00  0.00     0.002 A 
ENDBRANCH   4  23
TORSDOF 3
ENDMDL
