MODEL 1
REMARK VINA RESULT:       4.0      0.000      0.000
REMARK  6 active torsions:
REMARK  status: ('A' for Active; 'I' for Inactive)
REMARK    1  A    between atoms: C_21  and  N_1 
REMARK       I    between atoms: N_7  and  C_10 
REMARK    2  A    between atoms: C_15  and  N_8 
REMARK    3  A    between atoms: C_10  and  C_27 
REMARK    4  A    between atoms: C_29  and  C_21 
REMARK    5  A    between atoms: O_28  and  C_24 
REMARK    6  A    between atoms: C_27  and  C_29 
ROOT
ATOM      1  N   UNL d   1     -41.607-122.807 -52.706  0.00  0.00    -0.269 N 
ATOM      2  N   UNL d   1     -41.868-122.262 -54.223  0.00  0.00    -0.301 N 
ATOM      3  C   UNL d   1     -41.476-123.079 -51.926  0.00  0.00     0.265 C 
ATOM      4  C   UNL d   1     -41.384-123.272 -53.337  0.00  0.00     0.102 A 
ATOM      5  C   UNL d   1     -41.958-122.072 -52.808  0.00  0.00     0.102 A 
ATOM      6  C   UNL d   1     -41.513-123.004 -54.109  0.00  0.00     0.100 A 
ATOM      7  C   UNL d   1     -42.089-121.800 -53.588  0.00  0.00     0.100 A 
ATOM      8  O   UNL d   1     -41.123-123.817 -51.788  0.00  0.00    -0.267 OA
ENDROOT
BRANCH   3   9
ATOM      9  C   UNL d   1     -41.710-122.590 -51.294  0.00  0.00     0.063 C 
BRANCH   9  10
ATOM     10  C   UNL d   1     -41.901-122.954 -50.562  0.00  0.00     0.024 C 
BRANCH  10  11
ATOM     11  C   UNL d   1     -42.380-122.535 -50.018  0.00  0.00     0.088 C 
BRANCH  11  12
ATOM     12  N   UNL d   1     -42.524-122.854 -49.260  0.00  0.00    -0.224 N 
ATOM     13  C   UNL d   1     -41.939-122.817 -48.664  0.00  0.00     0.276 A 
ATOM     14  C   UNL d   1     -42.097-123.137 -47.920  0.00  0.00     0.104 A 
ATOM     15  O   UNL d   1     -41.223-122.468 -48.823  0.00  0.00    -0.266 OA
ATOM     16  S   UNL d   1     -41.639-123.182 -47.238  0.00  0.00    -0.080 SA
ATOM     17  C   UNL d   1     -42.826-123.493 -47.759  0.00  0.00     0.097 A 
ATOM     18  C   UNL d   1     -42.081-123.557 -46.676  0.00  0.00     0.037 A 
ATOM     19  C   UNL d   1     -42.816-123.754 -46.983  0.00  0.00     0.027 A 
ATOM     20  N   UNL d   1     -43.402-123.529 -48.347  0.00  0.00    -0.191 NA
ATOM     21  C   UNL d   1     -43.258-123.213 -49.094  0.00  0.00     0.356 A 
ATOM     22  O   UNL d   1     -43.838-123.246 -49.695  0.00  0.00    -0.244 OA
ENDBRANCH  11  12
ENDBRANCH  10  11
ENDBRANCH   9  10
ENDBRANCH   3   9
BRANCH   2  23
ATOM     23  C   UNL d   1     -42.003-121.981 -54.989  0.00  0.00     0.064 A 
ATOM     24  C   UNL d   1     -42.583-122.306 -55.476  0.00  0.00     0.020 A 
ATOM     25  C   UNL d   1     -42.707-122.021 -56.230  0.00  0.00     0.026 A 
ATOM     26  C   UNL d   1     -42.252-121.399 -56.520  0.00  0.00     0.094 A 
ATOM     27  C   UNL d   1     -41.667-121.070 -56.031  0.00  0.00     0.026 A 
ATOM     28  C   UNL d   1     -41.541-121.358 -55.268  0.00  0.00     0.020 A 
BRANCH  26  29
ATOM     29  O   UNL d   1     -42.356-121.089 -57.282  0.00  0.00    -0.328 OA
ATOM     30  C   UNL d   1     -41.742-120.635 -57.620  0.00  0.00     0.181 C 
ENDBRANCH  26  29
ENDBRANCH   2  23
TORSDOF 6
ENDMDL
MODEL 2
REMARK VINA RESULT:       6.8      2.170      6.685
REMARK  6 active torsions:
REMARK  status: ('A' for Active; 'I' for Inactive)
REMARK    1  A    between atoms: C_21  and  N_1 
REMARK       I    between atoms: N_7  and  C_10 
REMARK    2  A    between atoms: C_15  and  N_8 
REMARK    3  A    between atoms: C_10  and  C_27 
REMARK    4  A    between atoms: C_29  and  C_21 
REMARK    5  A    between atoms: O_28  and  C_24 
REMARK    6  A    between atoms: C_27  and  C_29 
ROOT
ATOM      1  N   UNL d   1     -41.750-122.049 -51.426  0.00  0.00    -0.269 N 
ATOM      2  N   UNL d   1     -42.067-122.618 -49.929  0.00  0.00    -0.301 N 
ATOM      3  C   UNL d   1     -41.583-121.765 -52.195  0.00  0.00     0.265 C 
ATOM      4  C   UNL d   1     -42.198-121.596 -50.918  0.00  0.00     0.102 A 
ATOM      5  C   UNL d   1     -41.452-122.783 -51.209  0.00  0.00     0.102 A 
ATOM      6  C   UNL d   1     -42.364-121.877 -50.157  0.00  0.00     0.100 A 
ATOM      7  C   UNL d   1     -41.619-123.067 -50.441  0.00  0.00     0.100 A 
ATOM      8  O   UNL d   1     -41.869-121.026 -52.445  0.00  0.00    -0.267 OA
ENDROOT
BRANCH   3   9
ATOM      9  C   UNL d   1     -41.123-122.241 -52.700  0.00  0.00     0.063 C 
BRANCH   9  10
ATOM     10  C   UNL d   1     -41.170-122.100 -53.526  0.00  0.00     0.024 C 
BRANCH  10  11
ATOM     11  C   UNL d   1     -41.312-122.749 -54.036  0.00  0.00     0.088 C 
BRANCH  11  12
ATOM     12  N   UNL d   1     -41.867-122.676 -54.657  0.00  0.00    -0.224 N 
ATOM     13  C   UNL d   1     -41.790-122.070 -55.228  0.00  0.00     0.276 A 
ATOM     14  C   UNL d   1     -42.346-122.011 -55.834  0.00  0.00     0.104 A 
ATOM     15  O   UNL d   1     -41.171-121.546 -55.179  0.00  0.00    -0.266 OA
ATOM     16  S   UNL d   1     -42.413-121.484 -56.462  0.00  0.00    -0.080 SA
ATOM     17  C   UNL d   1     -42.976-122.545 -55.883  0.00  0.00     0.097 A 
ATOM     18  C   UNL d   1     -43.070-121.694 -56.882  0.00  0.00     0.037 A 
ATOM     19  C   UNL d   1     -43.428-122.346 -56.537  0.00  0.00     0.027 A 
ATOM     20  N   UNL d   1     -43.051-123.142 -55.320  0.00  0.00    -0.191 NA
ATOM     21  C   UNL d   1     -42.503-123.212 -54.709  0.00  0.00     0.356 A 
ATOM     22  O   UNL d   1     -42.572-123.815 -54.134  0.00  0.00    -0.244 OA
ENDBRANCH  11  12
ENDBRANCH  10  11
ENDBRANCH   9  10
ENDBRANCH   3   9
BRANCH   2  23
ATOM     23  C   UNL d   1     -42.225-122.912 -49.171  0.00  0.00     0.064 A 
ATOM     24  C   UNL d   1     -41.704-123.421 -48.785  0.00  0.00     0.020 A 
ATOM     25  C   UNL d   1     -41.869-123.704 -48.039  0.00  0.00     0.026 A 
ATOM     26  C   UNL d   1     -42.564-123.484 -47.655  0.00  0.00     0.094 A 
ATOM     27  C   UNL d   1     -43.089-122.971 -48.042  0.00  0.00     0.026 A 
ATOM     28  C   UNL d   1     -42.923-122.684 -48.797  0.00  0.00     0.020 A 
BRANCH  26  29
ATOM     29  O   UNL d   1     -42.758-123.756 -46.896  0.00  0.00    -0.328 OA
ATOM     30  C   UNL d   1     -43.562-123.802 -46.677  0.00  0.00     0.181 C 
ENDBRANCH  26  29
ENDBRANCH   2  23
TORSDOF 6
ENDMDL
