MODEL 1
REMARK VINA RESULT:      84.9      0.000      0.000
REMARK  4 active torsions:
REMARK  status: ('A' for Active; 'I' for Inactive)
REMARK    1  A    between atoms: C_13  and  N_3 
REMARK    2  A    between atoms: C_11  and  C_6 
REMARK    3  A    between atoms: O_22  and  C_11 
REMARK    4  A    between atoms: C_21  and  C_13 
ROOT
ATOM      1  C   UNL d   1      58.899  49.348  50.883  0.00  0.00     0.155 A 
ATOM      2  C   UNL d   1      58.883  49.370  50.060  0.00  0.00     0.091 A 
ATOM      3  N   UNL d   1      59.612  49.254  51.279  0.00  0.00    -0.274 N 
ATOM      4  N   UNL d   1      58.196  49.421  51.310  0.00  0.00    -0.210 NA
ATOM      5  N   UNL d   1      57.468  49.538  50.087  0.00  0.00    -0.258 N 
ATOM      6  C   UNL d   1      60.303  49.201  50.038  0.00  0.00     0.100 A 
ATOM      7  C   UNL d   1      57.475  49.517  50.913  0.00  0.00     0.152 A 
ATOM      8  C   UNL d   1      60.311  49.181  50.860  0.00  0.00     0.175 A 
ATOM      9  C   UNL d   1      58.170  49.465  49.652  0.00  0.00     0.269 A 
ATOM     10  C   UNL d   1      59.590  49.296  49.629  0.00  0.00     0.016 A 
ATOM     11  C   UNL d   1      56.776  49.590  51.336  0.00  0.00     0.035 A 
ATOM     12  C   UNL d   1      56.746  49.633  49.682  0.00  0.00     0.084 A 
ATOM     13  N   UNL d   1      61.032  49.085  51.261  0.00  0.00    -0.128 N 
ATOM     14  O   UNL d   1      58.155  49.486  48.829  0.00  0.00    -0.266 OA
ATOM     15  C   UNL d   1      56.048  49.706  50.117  0.00  0.00     0.019 A 
ATOM     16  C   UNL d   1      56.063  49.684  50.944  0.00  0.00     0.005 A 
ATOM     17  C   UNL d   1      56.800  49.567  52.163  0.00  0.00     0.003 C 
ENDROOT
BRANCH   3  18
ATOM     18  C   UNL d   1      59.623  49.232  52.102  0.00  0.00     0.084 C 
BRANCH  18  19
ATOM     19  C   UNL d   1      60.333  49.088  52.503  0.00  0.00     0.037 A 
ATOM     20  C   UNL d   1      60.731  49.708  52.857  0.00  0.00     0.100 A 
ATOM     21  N   UNL d   1      61.438  49.571  53.258  0.00  0.00    -0.242 NA
ATOM     22  C   UNL d   1      61.737  48.805  53.297  0.00  0.00     0.099 A 
ATOM     23  C   UNL d   1      61.335  48.179  52.939  0.00  0.00     0.021 A 
ATOM     24  C   UNL d   1      60.631  48.326  52.542  0.00  0.00     0.005 A 
ENDBRANCH  18  19
ENDBRANCH   3  18
BRANCH   6  25
ATOM     25  C   UNL d   1      61.006  49.128  49.611  0.00  0.00     0.299 C 
ATOM     26  O   UNL d   1      61.599  49.708  49.674  0.00  0.00    -0.259 OA
BRANCH  25  27
ATOM     27  O   UNL d   1      61.124  48.480  49.121  0.00  0.00    -0.296 OA
ATOM     28  C   UNL d   1      61.610  47.856  49.361  0.00  0.00     0.185 C 
ENDBRANCH  25  27
ENDBRANCH   6  25
TORSDOF 4
ENDMDL
