MODEL 1
REMARK VINA RESULT:      48.1      0.000      0.000
REMARK  6 active torsions:
REMARK  status: ('A' for Active; 'I' for Inactive)
REMARK    1  A    between atoms: C_6  and  N_1 
REMARK    2  A    between atoms: S_7  and  C_2 
REMARK    3  A    between atoms: C_12  and  S_7 
REMARK    4  A    between atoms: C_8  and  O_9 
REMARK    5  A    between atoms: O_9  and  C_13 
REMARK    6  A    between atoms: C_13  and  C_12 
ROOT
ATOM      1  N   UNL d   1     -56.797-102.505 -37.776  0.00  0.00    -0.186 N 
ATOM      2  C   UNL d   1     -56.629-102.654 -38.555  0.00  0.00     0.219 A 
ATOM      3  N   UNL d   1     -57.355-102.628 -38.984  0.00  0.00    -0.101 NA
ATOM      4  N   UNL d   1     -57.954-102.465 -38.470  0.00  0.00    -0.022 NA
ATOM      5  N   UNL d   1     -57.630-102.385 -37.716  0.00  0.00    -0.038 NA
ENDROOT
BRANCH   2   6
ATOM      6  S   UNL d   1     -55.857-102.810 -38.886  0.00  0.00    -0.044 SA
BRANCH   6   7
ATOM      7  C   UNL d   1     -55.768-102.855 -39.704  0.00  0.00     0.065 C 
BRANCH   7   8
ATOM      8  C   UNL d   1     -55.265-102.312 -40.100  0.00  0.00     0.130 C 
BRANCH   8   9
ATOM      9  O   UNL d   1     -54.756-102.581 -40.683  0.00  0.00    -0.305 OA
BRANCH   9  10
ATOM     10  C   UNL d   1     -54.747-102.240 -41.444  0.00  0.00     0.100 A 
ATOM     11  C   UNL d   1     -54.755-101.408 -41.515  0.00  0.00     0.025 A 
ATOM     12  C   UNL d   1     -54.746-101.053 -42.260  0.00  0.00     0.002 A 
ATOM     13  C   UNL d   1     -54.730-101.518 -42.936  0.00  0.00     0.000 A 
ATOM     14  C   UNL d   1     -54.722-102.338 -42.875  0.00  0.00     0.002 A 
ATOM     15  C   UNL d   1     -54.731-102.708 -42.126  0.00  0.00     0.025 A 
ENDBRANCH   9  10
ENDBRANCH   8   9
ENDBRANCH   7   8
ENDBRANCH   6   7
ENDBRANCH   2   6
BRANCH   1  16
ATOM     16  C   UNL d   1     -56.176-102.496 -37.210  0.00  0.00     0.087 A 
ATOM     17  C   UNL d   1     -56.318-102.821 -36.429  0.00  0.00     0.019 A 
ATOM     18  C   UNL d   1     -55.696-102.803 -35.887  0.00  0.00     0.002 A 
ATOM     19  C   UNL d   1     -54.949-102.477 -36.092  0.00  0.00     0.000 A 
ATOM     20  C   UNL d   1     -54.834-102.172 -36.843  0.00  0.00     0.002 A 
ATOM     21  C   UNL d   1     -55.444-102.181 -37.399  0.00  0.00     0.019 A 
ENDBRANCH   1  16
TORSDOF 6
ENDMDL
