MODEL 1
REMARK VINA RESULT:      -9.2      0.000      0.000
REMARK  5 active torsions:
REMARK  status: ('A' for Active; 'I' for Inactive)
REMARK    1  A    between atoms: C_2  and  C_1 
REMARK       I    between atoms: N_3  and  C_1 
REMARK    2  A    between atoms: C_8  and  N_3 
REMARK    3  A    between atoms: N_4  and  C_9 
REMARK    4  A    between atoms: N_5  and  N_4 
REMARK    5  A    between atoms: C_10  and  N_5 
ROOT
ATOM      1  C   UNL d   1      51.610  33.863  53.059  0.00  0.00     0.085 A 
ATOM      2  C   UNL d   1      50.154  34.355  52.447  0.00  0.00     0.103 A 
ATOM      3  C   UNL d   1      51.563  34.178  52.297  0.00  0.00     0.021 A 
ATOM      4  C   UNL d   1      50.925  33.796  53.512  0.00  0.00     0.021 A 
ATOM      5  C   UNL d   1      50.201  34.040  53.210  0.00  0.00     0.022 A 
ATOM      6  C   UNL d   1      50.835  34.426  51.987  0.00  0.00     0.022 A 
ENDROOT
BRANCH   1   7
ATOM      7  N   UNL d   1      52.338  33.616  53.365  0.00  0.00    -0.208 NA
ATOM      8  C   UNL d   1      52.864  34.171  53.682  0.00  0.00     0.280 C 
ATOM      9  O   UNL d   1      52.758  34.991  53.738  0.00  0.00    -0.265 OA
BRANCH   8  10
ATOM     10  C   UNL d   1      53.511  33.729  53.925  0.00  0.00     0.069 A 
ATOM     11  C   UNL d   1      53.838  33.866  54.668  0.00  0.00     0.062 A 
ATOM     12 CL   UNL d   1      53.523  34.439  55.164  0.00  0.00    -0.082 Cl
ATOM     13  C   UNL d   1      54.492  33.420  54.916  0.00  0.00     0.012 A 
ATOM     14  C   UNL d   1      54.810  32.842  54.414  0.00  0.00     0.001 A 
ATOM     15  C   UNL d   1      54.471  32.717  53.673  0.00  0.00     0.000 A 
ATOM     16  C   UNL d   1      53.826  33.158  53.432  0.00  0.00     0.006 A 
ENDBRANCH   8  10
ENDBRANCH   1   7
BRANCH   2  17
ATOM     17  N   UNL d   1      49.427  34.600  52.145  0.00  0.00    -0.148 NA
BRANCH  17  18
ATOM     18  N   UNL d   1      49.003  35.197  52.526  0.00  0.00    -0.148 NA
BRANCH  18  19
ATOM     19  C   UNL d   1      48.276  35.448  52.220  0.00  0.00     0.103 A 
ATOM     20  C   UNL d   1      47.995  35.141  51.511  0.00  0.00     0.021 A 
ATOM     21  C   UNL d   1      47.275  35.390  51.209  0.00  0.00     0.002 A 
ATOM     22  C   UNL d   1      46.828  35.953  51.618  0.00  0.00     0.000 A 
ATOM     23  C   UNL d   1      47.102  36.266  52.329  0.00  0.00     0.002 A 
ATOM     24  C   UNL d   1      47.829  36.011  52.630  0.00  0.00     0.021 A 
ENDBRANCH  18  19
ENDBRANCH  17  18
ENDBRANCH   2  17
TORSDOF 5
ENDMDL
MODEL 2
REMARK VINA RESULT:      -8.7      1.475      5.709
REMARK  5 active torsions:
REMARK  status: ('A' for Active; 'I' for Inactive)
REMARK    1  A    between atoms: C_2  and  C_1 
REMARK       I    between atoms: N_3  and  C_1 
REMARK    2  A    between atoms: C_8  and  N_3 
REMARK    3  A    between atoms: N_4  and  C_9 
REMARK    4  A    between atoms: N_5  and  N_4 
REMARK    5  A    between atoms: C_10  and  N_5 
ROOT
ATOM      1  C   UNL d   1      50.290  34.221  52.484  0.00  0.00     0.085 A 
ATOM      2  C   UNL d   1      51.744  33.618  52.990  0.00  0.00     0.103 A 
ATOM      3  C   UNL d   1      50.321  33.663  53.092  0.00  0.00     0.021 A 
ATOM      4  C   UNL d   1      50.990  34.476  52.132  0.00  0.00     0.021 A 
ATOM      5  C   UNL d   1      51.713  34.177  52.382  0.00  0.00     0.022 A 
ATOM      6  C   UNL d   1      51.048  33.358  53.348  0.00  0.00     0.022 A 
ENDROOT
BRANCH   1   7
ATOM      7  N   UNL d   1      49.562  34.523  52.231  0.00  0.00    -0.208 NA
ATOM      8  C   UNL d   1      49.214  35.156  52.633  0.00  0.00     0.280 C 
ATOM      9  O   UNL d   1      49.509  35.556  53.296  0.00  0.00    -0.265 OA
BRANCH   8  10
ATOM     10  C   UNL d   1      48.513  35.299  52.230  0.00  0.00     0.069 A 
ATOM     11  C   UNL d   1      47.934  35.768  52.579  0.00  0.00     0.062 A 
ATOM     12 CL   UNL d   1      48.051  36.093  53.323  0.00  0.00    -0.082 Cl
ATOM     13  C   UNL d   1      47.225  35.912  52.172  0.00  0.00     0.012 A 
ATOM     14  C   UNL d   1      47.107  35.584  51.420  0.00  0.00     0.001 A 
ATOM     15  C   UNL d   1      47.697  35.116  51.085  0.00  0.00     0.000 A 
ATOM     16  C   UNL d   1      48.394  34.975  51.488  0.00  0.00     0.006 A 
ENDBRANCH   8  10
ENDBRANCH   1   7
BRANCH   2  17
ATOM     17  N   UNL d   1      52.472  33.319  53.240  0.00  0.00    -0.148 NA
BRANCH  17  18
ATOM     18  N   UNL d   1      52.676  33.347  54.038  0.00  0.00    -0.148 NA
BRANCH  18  19
ATOM     19  C   UNL d   1      53.473  33.342  54.263  0.00  0.00     0.103 A 
ATOM     20  C   UNL d   1      54.028  32.931  53.815  0.00  0.00     0.021 A 
ATOM     21  C   UNL d   1      54.816  32.926  54.038  0.00  0.00     0.002 A 
ATOM     22  C   UNL d   1      55.056  33.334  54.716  0.00  0.00     0.000 A 
ATOM     23  C   UNL d   1      54.507  33.747  55.170  0.00  0.00     0.002 A 
ATOM     24  C   UNL d   1      53.713  33.750  54.941  0.00  0.00     0.021 A 
ENDBRANCH  18  19
ENDBRANCH  17  18
ENDBRANCH   2  17
TORSDOF 5
ENDMDL
