MODEL 1
REMARK VINA RESULT:      -5.0      0.000      0.000
REMARK  7 active torsions:
REMARK  status: ('A' for Active; 'I' for Inactive)
REMARK    1  A    between atoms: N_2  and  C_1 
REMARK       I    between atoms: C_6  and  N_2 
REMARK    2  A    between atoms: S_3  and  C_12 
REMARK    3  A    between atoms: C_28  and  N_4 
REMARK    4  A    between atoms: C_8  and  C_6 
REMARK    5  A    between atoms: C_15  and  C_11 
REMARK    6  A    between atoms: C_32  and  C_28 
REMARK    7  A    between atoms: O_31  and  C_32 
ROOT
ATOM      1  N   UNL d   1     -39.094  14.265  18.777  0.00  0.00    -0.184 NA
ATOM      2  C   UNL d   1     -39.177  14.959  19.213  0.00  0.00     0.281 C 
ATOM      3  O   UNL d   1     -39.019  15.686  18.859  0.00  0.00    -0.265 OA
ENDROOT
BRANCH   1   4
ATOM      4  C   UNL d   1     -38.853  14.305  17.989  0.00  0.00     0.182 A 
ATOM      5  N   UNL d   1     -38.521  13.691  17.560  0.00  0.00    -0.283 N 
ATOM      6  C   UNL d   1     -38.360  13.961  16.797  0.00  0.00     0.072 A 
ATOM      7  C   UNL d   1     -38.032  13.594  16.136  0.00  0.00     0.019 A 
ATOM      8  C   UNL d   1     -38.596  14.751  16.757  0.00  0.00     0.049 A 
ATOM      9  C   UNL d   1     -37.940  14.018  15.437  0.00  0.00     0.015 A 
ATOM     10  C   UNL d   1     -38.175  14.808  15.397  0.00  0.00     0.107 A 
ATOM     11  C   UNL d   1     -38.503  15.174  16.056  0.00  0.00     0.021 A 
ATOM     12  S   UNL d   1     -38.900  14.963  17.496  0.00  0.00    -0.048 SA
BRANCH   5  13
ATOM     13  C   UNL d   1     -38.370  12.927  17.837  0.00  0.00     0.108 C 
BRANCH  13  14
ATOM     14  C   UNL d   1     -38.809  12.288  17.560  0.00  0.00     0.135 C 
BRANCH  14  15
ATOM     15  O   UNL d   1     -38.787  11.569  17.954  0.00  0.00    -0.325 OA
ATOM     16  C   UNL d   1     -38.216  11.000  17.764  0.00  0.00     0.182 C 
ENDBRANCH  14  15
ENDBRANCH  13  14
ENDBRANCH   5  13
BRANCH  10  17
ATOM     17  S   UNL d   1     -38.080  15.235  14.684  0.00  0.00     0.302 S 
ATOM     18  O   UNL d   1     -38.079  15.922  15.135  0.00  0.00    -0.197 OA
ATOM     19  O   UNL d   1     -38.081  14.539  14.233  0.00  0.00    -0.197 OA
ATOM     20  N   UNL d   1     -37.986  15.679  13.997  0.00  0.00    -0.043 N 
ENDBRANCH  10  17
ENDBRANCH   1   4
BRANCH   2  21
ATOM     21  C   UNL d   1     -39.418  14.926  20.001  0.00  0.00     0.061 A 
ATOM     22  C   UNL d   1     -38.929  14.571  20.581  0.00  0.00     0.025 A 
ATOM     23  C   UNL d   1     -39.170  14.539  21.369  0.00  0.00     0.087 A 
ATOM     24  N   UNL d   1     -39.906  14.863  21.589  0.00  0.00    -0.245 NA
ATOM     25  C   UNL d   1     -40.389  15.213  21.016  0.00  0.00     0.082 A 
ATOM     26  C   UNL d   1     -40.148  15.246  20.228  0.00  0.00     0.022 A 
ATOM     27  C   UNL d   1     -41.121  15.536  21.237  0.00  0.00     0.019 A 
ATOM     28  C   UNL d   1     -40.630  15.597  19.650  0.00  0.00     0.002 A 
ATOM     29  C   UNL d   1     -41.370  15.921  19.882  0.00  0.00     0.000 A 
ATOM     30  C   UNL d   1     -41.611  15.888  20.671  0.00  0.00     0.002 A 
BRANCH  23  31
ATOM     31  C   UNL d   1     -38.689  14.190  21.938  0.00  0.00     0.047 A 
ATOM     32  S   UNL d   1     -38.410  14.634  22.574  0.00  0.00    -0.085 SA
ATOM     33  C   UNL d   1     -37.945  14.151  23.055  0.00  0.00     0.035 A 
ATOM     34  C   UNL d   1     -37.943  13.402  22.704  0.00  0.00     0.007 A 
ATOM     35  C   UNL d   1     -38.398  13.421  22.018  0.00  0.00     0.009 A 
ENDBRANCH  23  31
ENDBRANCH   2  21
TORSDOF 7
ENDMDL
MODEL 2
REMARK VINA RESULT:      -3.6      7.379      9.385
REMARK  7 active torsions:
REMARK  status: ('A' for Active; 'I' for Inactive)
REMARK    1  A    between atoms: N_2  and  C_1 
REMARK       I    between atoms: C_6  and  N_2 
REMARK    2  A    between atoms: S_3  and  C_12 
REMARK    3  A    between atoms: C_28  and  N_4 
REMARK    4  A    between atoms: C_8  and  C_6 
REMARK    5  A    between atoms: C_15  and  C_11 
REMARK    6  A    between atoms: C_32  and  C_28 
REMARK    7  A    between atoms: O_31  and  C_32 
ROOT
ATOM      1  N   UNL d   1     -46.812  13.144  22.865  0.00  0.00    -0.184 NA
ATOM      2  C   UNL d   1     -47.358  13.444  22.327  0.00  0.00     0.281 C 
ATOM      3  O   UNL d   1     -47.125  13.601  21.553  0.00  0.00    -0.265 OA
ENDROOT
BRANCH   1   4
ATOM      4  C   UNL d   1     -46.036  13.004  22.623  0.00  0.00     0.182 A 
ATOM      5  N   UNL d   1     -45.551  12.403  22.898  0.00  0.00    -0.283 N 
ATOM      6  C   UNL d   1     -44.822  12.458  22.515  0.00  0.00     0.072 A 
ATOM      7  C   UNL d   1     -44.132  12.011  22.568  0.00  0.00     0.019 A 
ATOM      8  C   UNL d   1     -44.859  13.100  21.998  0.00  0.00     0.049 A 
ATOM      9  C   UNL d   1     -43.481  12.206  22.104  0.00  0.00     0.015 A 
ATOM     10  C   UNL d   1     -43.518  12.848  21.587  0.00  0.00     0.107 A 
ATOM     11  C   UNL d   1     -44.207  13.295  21.534  0.00  0.00     0.021 A 
ATOM     12  S   UNL d   1     -45.611  13.438  22.066  0.00  0.00    -0.048 SA
BRANCH   5  13
ATOM     13  C   UNL d   1     -45.751  11.835  23.464  0.00  0.00     0.108 C 
BRANCH  13  14
ATOM     14  C   UNL d   1     -45.615  11.036  23.319  0.00  0.00     0.135 C 
BRANCH  14  15
ATOM     15  O   UNL d   1     -46.113  10.467  23.636  0.00  0.00    -0.325 OA
ATOM     16  C   UNL d   1     -45.871   9.677  23.693  0.00  0.00     0.182 C 
ENDBRANCH  14  15
ENDBRANCH  13  14
ENDBRANCH   5  13
BRANCH  10  17
ATOM     17  S   UNL d   1     -42.855  13.043  21.118  0.00  0.00     0.302 S 
ATOM     18  O   UNL d   1     -42.571  13.475  21.757  0.00  0.00    -0.197 OA
ATOM     19  O   UNL d   1     -43.144  12.606  20.475  0.00  0.00    -0.197 OA
ATOM     20  N   UNL d   1     -42.191  13.250  20.677  0.00  0.00    -0.043 N 
ENDBRANCH  10  17
ENDBRANCH   1   4
BRANCH   2  21
ATOM     21  C   UNL d   1     -48.135  13.587  22.563  0.00  0.00     0.061 A 
ATOM     22  C   UNL d   1     -48.635  12.953  22.787  0.00  0.00     0.025 A 
ATOM     23  C   UNL d   1     -49.412  13.096  23.022  0.00  0.00     0.087 A 
ATOM     24  N   UNL d   1     -49.702  13.878  23.036  0.00  0.00    -0.245 NA
ATOM     25  C   UNL d   1     -49.209  14.503  22.815  0.00  0.00     0.082 A 
ATOM     26  C   UNL d   1     -48.431  14.361  22.579  0.00  0.00     0.022 A 
ATOM     27  C   UNL d   1     -49.498  15.281  22.829  0.00  0.00     0.019 A 
ATOM     28  C   UNL d   1     -47.933  14.986  22.356  0.00  0.00     0.002 A 
ATOM     29  C   UNL d   1     -48.234  15.770  22.374  0.00  0.00     0.000 A 
ATOM     30  C   UNL d   1     -49.012  15.913  22.609  0.00  0.00     0.002 A 
BRANCH  23  31
ATOM     31  C   UNL d   1     -49.902  12.473  23.243  0.00  0.00     0.047 A 
ATOM     32  S   UNL d   1     -50.709  12.501  23.074  0.00  0.00    -0.085 SA
ATOM     33  C   UNL d   1     -51.064  11.811  23.354  0.00  0.00     0.035 A 
ATOM     34  C   UNL d   1     -50.463  11.359  23.697  0.00  0.00     0.007 A 
ATOM     35  C   UNL d   1     -49.748  11.761  23.631  0.00  0.00     0.009 A 
ENDBRANCH  23  31
ENDBRANCH   2  21
TORSDOF 7
ENDMDL
MODEL 3
REMARK VINA RESULT:      -2.8      7.994     10.423
REMARK  7 active torsions:
REMARK  status: ('A' for Active; 'I' for Inactive)
REMARK    1  A    between atoms: N_2  and  C_1 
REMARK       I    between atoms: C_6  and  N_2 
REMARK    2  A    between atoms: S_3  and  C_12 
REMARK    3  A    between atoms: C_28  and  N_4 
REMARK    4  A    between atoms: C_8  and  C_6 
REMARK    5  A    between atoms: C_15  and  C_11 
REMARK    6  A    between atoms: C_32  and  C_28 
REMARK    7  A    between atoms: O_31  and  C_32 
ROOT
ATOM      1  N   UNL d   1     -47.244  12.590  22.976  0.00  0.00    -0.184 NA
ATOM      2  C   UNL d   1     -47.892  12.227  23.330  0.00  0.00     0.281 C 
ATOM      3  O   UNL d   1     -47.803  11.494  23.696  0.00  0.00    -0.265 OA
ENDROOT
BRANCH   1   4
ATOM      4  C   UNL d   1     -46.509  12.215  22.992  0.00  0.00     0.182 A 
ATOM      5  N   UNL d   1     -45.819  12.504  22.658  0.00  0.00    -0.283 N 
ATOM      6  C   UNL d   1     -45.212  11.961  22.798  0.00  0.00     0.072 A 
ATOM      7  C   UNL d   1     -44.414  11.958  22.596  0.00  0.00     0.019 A 
ATOM      8  C   UNL d   1     -45.534  11.331  23.222  0.00  0.00     0.049 A 
ATOM      9  C   UNL d   1     -43.938  11.324  22.818  0.00  0.00     0.015 A 
ATOM     10  C   UNL d   1     -44.260  10.694  23.242  0.00  0.00     0.107 A 
ATOM     11  C   UNL d   1     -45.057  10.698  23.444  0.00  0.00     0.021 A 
ATOM     12  S   UNL d   1     -46.337  11.489  23.342  0.00  0.00    -0.048 SA
BRANCH   5  13
ATOM     13  C   UNL d   1     -45.735  13.218  22.250  0.00  0.00     0.108 C 
BRANCH  13  14
ATOM     14  C   UNL d   1     -45.705  13.932  22.659  0.00  0.00     0.135 C 
BRANCH  14  15
ATOM     15  O   UNL d   1     -45.286  14.567  22.352  0.00  0.00    -0.325 OA
ATOM     16  C   UNL d   1     -45.638  15.314  22.286  0.00  0.00     0.182 C 
ENDBRANCH  14  15
ENDBRANCH  13  14
ENDBRANCH   5  13
BRANCH  10  17
ATOM     17  S   UNL d   1     -43.774  10.052  23.467  0.00  0.00     0.302 S 
ATOM     18  O   UNL d   1     -43.133  10.565  23.424  0.00  0.00    -0.197 OA
ATOM     19  O   UNL d   1     -44.422   9.537  23.509  0.00  0.00    -0.197 OA
ATOM     20  N   UNL d   1     -43.272   9.437  23.686  0.00  0.00    -0.043 N 
ENDBRANCH  10  17
ENDBRANCH   1   4
BRANCH   2  21
ATOM     21  C   UNL d   1     -48.630  12.596  23.318  0.00  0.00     0.061 A 
ATOM     22  C   UNL d   1     -48.691  13.420  23.186  0.00  0.00     0.025 A 
ATOM     23  C   UNL d   1     -49.429  13.789  23.175  0.00  0.00     0.087 A 
ATOM     24  N   UNL d   1     -50.118  13.335  23.295  0.00  0.00    -0.245 NA
ATOM     25  C   UNL d   1     -50.058  12.521  23.426  0.00  0.00     0.082 A 
ATOM     26  C   UNL d   1     -49.320  12.152  23.438  0.00  0.00     0.022 A 
ATOM     27  C   UNL d   1     -50.745  12.071  23.546  0.00  0.00     0.019 A 
ATOM     28  C   UNL d   1     -49.255  11.335  23.568  0.00  0.00     0.002 A 
ATOM     29  C   UNL d   1     -49.956  10.888  23.689  0.00  0.00     0.000 A 
ATOM     30  C   UNL d   1     -50.694  11.256  23.677  0.00  0.00     0.002 A 
BRANCH  23  31
ATOM     31  C   UNL d   1     -49.488  14.599  23.045  0.00  0.00     0.047 A 
ATOM     32  S   UNL d   1     -50.050  14.895  22.517  0.00  0.00    -0.085 SA
ATOM     33  C   UNL d   1     -49.988  15.717  22.494  0.00  0.00     0.035 A 
ATOM     34  C   UNL d   1     -49.380  15.922  23.015  0.00  0.00     0.007 A 
ATOM     35  C   UNL d   1     -49.070  15.239  23.356  0.00  0.00     0.009 A 
ENDBRANCH  23  31
ENDBRANCH   2  21
TORSDOF 7
ENDMDL
