MODEL 1
REMARK VINA RESULT:      -6.8      0.000      0.000
REMARK  5 active torsions:
REMARK  status: ('A' for Active; 'I' for Inactive)
REMARK    1  A    between atoms: C_2  and  S_1 
REMARK    2  A    between atoms: N_3  and  S_1 
REMARK    3  A    between atoms: C_5  and  N_3 
REMARK    4  A    between atoms: C_14  and  C_9 
REMARK    5  A    between atoms: O_18  and  C_10 
ROOT
ATOM      1  C   UNL d   1     -49.003  14.173  22.782  0.00  0.00     0.128 A 
ATOM      2  C   UNL d   1     -49.219  13.464  22.411  0.00  0.00     0.015 A 
ATOM      3  C   UNL d   1     -50.014  13.307  22.257  0.00  0.00     0.001 A 
ATOM      4  C   UNL d   1     -49.589  14.719  22.995  0.00  0.00     0.106 A 
ATOM      5  C   UNL d   1     -50.590  13.847  22.469  0.00  0.00     0.002 A 
ATOM      6  C   UNL d   1     -50.382  14.555  22.838  0.00  0.00     0.025 A 
ENDROOT
BRANCH   1   7
ATOM      7  S   UNL d   1     -48.210  14.337  22.939  0.00  0.00     0.288 S 
ATOM      8  O   UNL d   1     -48.283  13.980  23.679  0.00  0.00    -0.198 OA
ATOM      9  O   UNL d   1     -48.145  14.692  22.198  0.00  0.00    -0.198 OA
BRANCH   7  10
ATOM     10  N   UNL d   1     -47.417  14.504  23.090  0.00  0.00    -0.139 NA
BRANCH  10  11
ATOM     11  C   UNL d   1     -46.850  13.917  22.975  0.00  0.00     0.175 A 
ATOM     12  N   UNL d   1     -46.761  13.315  23.531  0.00  0.00    -0.224 NA
ATOM     13  C   UNL d   1     -46.199  12.729  23.423  0.00  0.00     0.112 A 
ATOM     14  C   UNL d   1     -45.717  12.737  22.753  0.00  0.00     0.077 A 
ATOM     15  C   UNL d   1     -45.806  13.339  22.196  0.00  0.00     0.016 A 
ATOM     16 CL   UNL d   1     -45.153  12.152  22.639  0.00  0.00    -0.081 Cl
ATOM     17  C   UNL d   1     -46.367  13.928  22.302  0.00  0.00     0.041 A 
ENDBRANCH  10  11
ENDBRANCH   7  10
ENDBRANCH   1   7
BRANCH   4  18
ATOM     18  O   UNL d   1     -49.376  15.420  23.362  0.00  0.00    -0.327 OA
ATOM     19  C   UNL d   1     -49.957  15.921  23.666  0.00  0.00     0.181 C 
ENDBRANCH   4  18
BRANCH   3  20
ATOM     20  C   UNL d   1     -50.224  12.595  21.885  0.00  0.00     0.000 C 
ATOM     21  C   UNL d   1     -50.524  12.598  21.120  0.00  0.00     0.000 C 
ATOM     22  C   UNL d   1     -50.131  11.881  22.288  0.00  0.00     0.000 C 
ENDBRANCH   3  20
TORSDOF 5
ENDMDL
MODEL 2
REMARK VINA RESULT:      -6.6      1.461      2.365
REMARK  5 active torsions:
REMARK  status: ('A' for Active; 'I' for Inactive)
REMARK    1  A    between atoms: C_2  and  S_1 
REMARK    2  A    between atoms: N_3  and  S_1 
REMARK    3  A    between atoms: C_5  and  N_3 
REMARK    4  A    between atoms: C_14  and  C_9 
REMARK    5  A    between atoms: O_18  and  C_10 
ROOT
ATOM      1  C   UNL d   1     -49.686  13.015  23.107  0.00  0.00     0.128 A 
ATOM      2  C   UNL d   1     -49.694  13.839  23.015  0.00  0.00     0.015 A 
ATOM      3  C   UNL d   1     -50.366  14.269  23.224  0.00  0.00     0.001 A 
ATOM      4  C   UNL d   1     -50.356  12.631  23.410  0.00  0.00     0.106 A 
ATOM      5  C   UNL d   1     -51.025  13.887  23.522  0.00  0.00     0.002 A 
ATOM      6  C   UNL d   1     -51.024  13.068  23.616  0.00  0.00     0.025 A 
ENDROOT
BRANCH   1   7
ATOM      7  S   UNL d   1     -49.018  12.578  22.900  0.00  0.00     0.288 S 
ATOM      8  O   UNL d   1     -49.223  12.643  22.104  0.00  0.00    -0.198 OA
ATOM      9  O   UNL d   1     -48.820  12.518  23.698  0.00  0.00    -0.198 OA
BRANCH   7  10
ATOM     10  N   UNL d   1     -48.348  12.141  22.701  0.00  0.00    -0.139 NA
BRANCH  10  11
ATOM     11  C   UNL d   1     -47.622  12.523  22.627  0.00  0.00     0.175 A 
ATOM     12  N   UNL d   1     -47.424  12.899  21.920  0.00  0.00    -0.224 NA
ATOM     13  C   UNL d   1     -46.703  13.280  21.840  0.00  0.00     0.112 A 
ATOM     14  C   UNL d   1     -46.169  13.292  22.469  0.00  0.00     0.077 A 
ATOM     15  C   UNL d   1     -46.367  12.916  23.176  0.00  0.00     0.016 A 
ATOM     16 CL   UNL d   1     -45.446  13.672  22.395  0.00  0.00    -0.081 Cl
ATOM     17  C   UNL d   1     -47.088  12.533  23.259  0.00  0.00     0.041 A 
ENDBRANCH  10  11
ENDBRANCH   7  10
ENDBRANCH   1   7
BRANCH   4  18
ATOM     18  O   UNL d   1     -50.349  11.816  23.501  0.00  0.00    -0.327 OA
ATOM     19  C   UNL d   1     -51.042  11.416  23.698  0.00  0.00     0.181 C 
ENDBRANCH   4  18
BRANCH   3  20
ATOM     20  C   UNL d   1     -50.368  15.094  23.129  0.00  0.00     0.000 C 
ATOM     21  C   UNL d   1     -50.943  15.458  22.668  0.00  0.00     0.000 C 
ATOM     22  C   UNL d   1     -49.789  15.549  23.500  0.00  0.00     0.000 C 
ENDBRANCH   3  20
TORSDOF 5
ENDMDL
MODEL 3
REMARK VINA RESULT:      -6.4      2.169      4.188
REMARK  5 active torsions:
REMARK  status: ('A' for Active; 'I' for Inactive)
REMARK    1  A    between atoms: C_2  and  S_1 
REMARK    2  A    between atoms: N_3  and  S_1 
REMARK    3  A    between atoms: C_5  and  N_3 
REMARK    4  A    between atoms: C_14  and  C_9 
REMARK    5  A    between atoms: O_18  and  C_10 
ROOT
ATOM      1  C   UNL d   1     -47.830  12.381  23.022  0.00  0.00     0.128 A 
ATOM      2  C   UNL d   1     -47.411  13.056  22.788  0.00  0.00     0.015 A 
ATOM      3  C   UNL d   1     -46.594  13.092  22.902  0.00  0.00     0.001 A 
ATOM      4  C   UNL d   1     -47.425  11.747  23.370  0.00  0.00     0.106 A 
ATOM      5  C   UNL d   1     -46.197  12.465  23.245  0.00  0.00     0.002 A 
ATOM      6  C   UNL d   1     -46.608  11.790  23.481  0.00  0.00     0.025 A 
ENDROOT
BRANCH   1   7
ATOM      7  S   UNL d   1     -48.647  12.338  22.912  0.00  0.00     0.288 S 
ATOM      8  O   UNL d   1     -48.527  12.104  22.130  0.00  0.00    -0.198 OA
ATOM      9  O   UNL d   1     -48.757  12.572  23.694  0.00  0.00    -0.198 OA
BRANCH   7  10
ATOM     10  N   UNL d   1     -49.463  12.297  22.808  0.00  0.00    -0.139 NA
BRANCH  10  11
ATOM     11  C   UNL d   1     -49.862  12.935  22.473  0.00  0.00     0.175 A 
ATOM     12  N   UNL d   1     -50.009  12.949  21.662  0.00  0.00    -0.224 NA
ATOM     13  C   UNL d   1     -50.405  13.581  21.322  0.00  0.00     0.112 A 
ATOM     14  C   UNL d   1     -50.660  14.210  21.792  0.00  0.00     0.077 A 
ATOM     15  C   UNL d   1     -50.513  14.196  22.604  0.00  0.00     0.016 A 
ATOM     16 CL   UNL d   1     -51.057  14.845  21.457  0.00  0.00    -0.081 Cl
ATOM     17  C   UNL d   1     -50.116  13.565  22.947  0.00  0.00     0.041 A 
ENDBRANCH  10  11
ENDBRANCH   7  10
ENDBRANCH   1   7
BRANCH   4  18
ATOM     18  O   UNL d   1     -47.839  11.079  23.602  0.00  0.00    -0.327 OA
ATOM     19  C   UNL d   1     -47.449  10.357  23.685  0.00  0.00     0.181 C 
ENDBRANCH   4  18
BRANCH   3  20
ATOM     20  C   UNL d   1     -46.179  13.771  22.665  0.00  0.00     0.000 C 
ATOM     21  C   UNL d   1     -46.366  14.505  22.983  0.00  0.00     0.000 C 
ATOM     22  C   UNL d   1     -45.576  13.707  22.105  0.00  0.00     0.000 C 
ENDBRANCH   3  20
TORSDOF 5
ENDMDL
MODEL 4
REMARK VINA RESULT:      -5.8      1.994      3.628
REMARK  5 active torsions:
REMARK  status: ('A' for Active; 'I' for Inactive)
REMARK    1  A    between atoms: C_2  and  S_1 
REMARK    2  A    between atoms: N_3  and  S_1 
REMARK    3  A    between atoms: C_5  and  N_3 
REMARK    4  A    between atoms: C_14  and  C_9 
REMARK    5  A    between atoms: O_18  and  C_10 
ROOT
ATOM      1  C   UNL d   1     -47.347  13.349  22.752  0.00  0.00     0.128 A 
ATOM      2  C   UNL d   1     -47.829  12.698  22.928  0.00  0.00     0.015 A 
ATOM      3  C   UNL d   1     -47.488  11.991  23.180  0.00  0.00     0.001 A 
ATOM      4  C   UNL d   1     -46.525  13.283  22.830  0.00  0.00     0.106 A 
ATOM      5  C   UNL d   1     -46.676  11.929  23.257  0.00  0.00     0.002 A 
ATOM      6  C   UNL d   1     -46.190  12.572  23.083  0.00  0.00     0.025 A 
ENDROOT
BRANCH   1   7
ATOM      7  S   UNL d   1     -47.682  14.060  22.499  0.00  0.00     0.288 S 
ATOM      8  O   UNL d   1     -47.700  13.775  21.725  0.00  0.00    -0.198 OA
ATOM      9  O   UNL d   1     -47.660  14.337  23.275  0.00  0.00    -0.198 OA
BRANCH   7  10
ATOM     10  N   UNL d   1     -48.015  14.772  22.253  0.00  0.00    -0.139 NA
BRANCH  10  11
ATOM     11  C   UNL d   1     -48.777  14.969  22.499  0.00  0.00     0.175 A 
ATOM     12  N   UNL d   1     -49.431  14.642  22.119  0.00  0.00    -0.224 NA
ATOM     13  C   UNL d   1     -50.190  14.834  22.358  0.00  0.00     0.112 A 
ATOM     14  C   UNL d   1     -50.306  15.358  22.985  0.00  0.00     0.077 A 
ATOM     15  C   UNL d   1     -49.652  15.686  23.366  0.00  0.00     0.016 A 
ATOM     16 CL   UNL d   1     -51.064  15.554  23.230  0.00  0.00    -0.081 Cl
ATOM     17  C   UNL d   1     -48.890  15.495  23.128  0.00  0.00     0.041 A 
ENDBRANCH  10  11
ENDBRANCH   7  10
ENDBRANCH   1   7
BRANCH   4  18
ATOM     18  O   UNL d   1     -46.048  13.926  22.656  0.00  0.00    -0.327 OA
ATOM     19  C   UNL d   1     -45.289  13.809  22.354  0.00  0.00     0.181 C 
ENDBRANCH   4  18
BRANCH   3  20
ATOM     20  C   UNL d   1     -47.976  11.342  23.355  0.00  0.00     0.000 C 
ATOM     21  C   UNL d   1     -47.725  10.577  23.191  0.00  0.00     0.000 C 
ATOM     22  C   UNL d   1     -48.716  11.469  23.696  0.00  0.00     0.000 C 
ENDBRANCH   3  20
TORSDOF 5
ENDMDL
MODEL 5
REMARK VINA RESULT:      -4.9      9.288     10.231
REMARK  5 active torsions:
REMARK  status: ('A' for Active; 'I' for Inactive)
REMARK    1  A    between atoms: C_2  and  S_1 
REMARK    2  A    between atoms: N_3  and  S_1 
REMARK    3  A    between atoms: C_5  and  N_3 
REMARK    4  A    between atoms: C_14  and  C_9 
REMARK    5  A    between atoms: O_18  and  C_10 
ROOT
ATOM      1  C   UNL d   1     -39.172  14.443  18.463  0.00  0.00     0.128 A 
ATOM      2  C   UNL d   1     -39.784  14.996  18.382  0.00  0.00     0.015 A 
ATOM      3  C   UNL d   1     -40.205  15.042  17.673  0.00  0.00     0.001 A 
ATOM      4  C   UNL d   1     -38.988  13.940  17.830  0.00  0.00     0.106 A 
ATOM      5  C   UNL d   1     -40.020  14.544  17.051  0.00  0.00     0.002 A 
ATOM      6  C   UNL d   1     -39.413  13.992  17.125  0.00  0.00     0.025 A 
ENDROOT
BRANCH   1   7
ATOM      7  S   UNL d   1     -38.748  14.391  19.169  0.00  0.00     0.288 S 
ATOM      8  O   UNL d   1     -39.247  13.785  19.424  0.00  0.00    -0.198 OA
ATOM      9  O   UNL d   1     -38.254  14.996  18.907  0.00  0.00    -0.198 OA
BRANCH   7  10
ATOM     10  N   UNL d   1     -38.319  14.344  19.871  0.00  0.00    -0.139 NA
BRANCH  10  11
ATOM     11  C   UNL d   1     -38.597  14.734  20.542  0.00  0.00     0.175 A 
ATOM     12  N   UNL d   1     -38.415  15.528  20.662  0.00  0.00    -0.224 NA
ATOM     13  C   UNL d   1     -38.688  15.922  21.327  0.00  0.00     0.112 A 
ATOM     14  C   UNL d   1     -39.149  15.523  21.883  0.00  0.00     0.077 A 
ATOM     15  C   UNL d   1     -39.332  14.727  21.763  0.00  0.00     0.016 A 
ATOM     16 CL   UNL d   1     -39.425  15.912  22.551  0.00  0.00    -0.081 Cl
ATOM     17  C   UNL d   1     -39.060  14.331  21.098  0.00  0.00     0.041 A 
ENDBRANCH  10  11
ENDBRANCH   7  10
ENDBRANCH   1   7
BRANCH   4  18
ATOM     18  O   UNL d   1     -38.383  13.393  17.910  0.00  0.00    -0.327 OA
ATOM     19  C   UNL d   1     -38.163  12.922  17.269  0.00  0.00     0.181 C 
ENDBRANCH   4  18
BRANCH   3  20
ATOM     20  C   UNL d   1     -40.816  15.598  17.598  0.00  0.00     0.000 C 
ATOM     21  C   UNL d   1     -41.168  15.922  18.266  0.00  0.00     0.000 C 
ATOM     22  C   UNL d   1     -41.072  15.825  16.847  0.00  0.00     0.000 C 
ENDBRANCH   3  20
TORSDOF 5
ENDMDL
