MODEL 1
REMARK VINA RESULT:      -1.2      0.000      0.000
REMARK  7 active torsions:
REMARK  status: ('A' for Active; 'I' for Inactive)
REMARK    1  A    between atoms: C_3  and  C_1 
REMARK    2  A    between atoms: C_5  and  C_3 
REMARK    3  A    between atoms: C_14  and  C_3 
REMARK    4  A    between atoms: N_6  and  C_14 
REMARK    5  A    between atoms: O_17  and  C_9 
REMARK    6  A    between atoms: O_18  and  C_10 
REMARK    7  A    between atoms: O_19  and  C_11 
ROOT
ATOM      1  C   UNL d   1      59.026  -0.227  29.272  0.00  0.00     0.025 C 
ENDROOT
BRANCH   1   2
ATOM      2  C   UNL d   1      59.663  -0.736  29.150  0.00  0.00     0.021 A 
ATOM      3  C   UNL d   1      60.447  -0.499  28.954  0.00  0.00     0.082 A 
ATOM      4  N   UNL d   1      60.902  -1.167  28.884  0.00  0.00    -0.246 NA
ATOM      5  C   UNL d   1      60.703   0.281  28.853  0.00  0.00     0.021 C 
ATOM      6  C   UNL d   1      60.422  -1.821  29.031  0.00  0.00     0.081 A 
ATOM      7  C   UNL d   1      59.660  -1.540  29.194  0.00  0.00     0.019 A 
ATOM      8  C   UNL d   1      60.567  -2.618  29.039  0.00  0.00     0.019 A 
ATOM      9  C   UNL d   1      59.054  -2.075  29.364  0.00  0.00     0.002 A 
ATOM     10  C   UNL d   1      59.205  -2.879  29.372  0.00  0.00     0.000 A 
ATOM     11  C   UNL d   1      59.967  -3.160  29.209  0.00  0.00     0.002 A 
ENDBRANCH   1   2
BRANCH   1  12
ATOM     12  C   UNL d   1      58.740  -0.113  30.042  0.00  0.00     0.006 A 
ATOM     13  C   UNL d   1      59.222   0.226  30.609  0.00  0.00     0.026 A 
ATOM     14  C   UNL d   1      58.948   0.343  31.374  0.00  0.00     0.118 A 
ATOM     15  C   UNL d   1      58.185   0.116  31.564  0.00  0.00     0.138 A 
ATOM     16  C   UNL d   1      57.691  -0.227  30.998  0.00  0.00     0.118 A 
ATOM     17  C   UNL d   1      57.977  -0.340  30.231  0.00  0.00     0.026 A 
BRANCH  14  18
ATOM     18  O   UNL d   1      59.430   0.682  31.940  0.00  0.00    -0.326 OA
ATOM     19  C   UNL d   1      60.230   0.513  31.957  0.00  0.00     0.181 C 
ENDBRANCH  14  18
BRANCH  15  20
ATOM     20  O   UNL d   1      57.909   0.232  32.326  0.00  0.00    -0.324 OA
ATOM     21  C   UNL d   1      57.198   0.640  32.439  0.00  0.00     0.182 C 
ENDBRANCH  15  20
BRANCH  16  22
ATOM     22  O   UNL d   1      56.929  -0.455  31.182  0.00  0.00    -0.326 OA
ATOM     23  C   UNL d   1      56.791  -1.009  31.773  0.00  0.00     0.181 C 
ENDBRANCH  16  22
ENDBRANCH   1  12
BRANCH   1  24
ATOM     24  C   UNL d   1      58.672   0.168  28.637  0.00  0.00     0.148 C 
BRANCH  24  25
ATOM     25  N   UNL d   1      57.860   0.043  28.523  0.00  0.00    -0.112 N 
ATOM     26  O   UNL d   1      57.575  -0.738  28.456  0.00  0.00    -0.532 OA
ATOM     27  O   UNL d   1      57.347   0.682  28.478  0.00  0.00    -0.532 OA
ENDBRANCH  24  25
ENDBRANCH   1  24
TORSDOF 7
ENDMDL
MODEL 2
REMARK VINA RESULT:      -1.1      0.266      1.434
REMARK  7 active torsions:
REMARK  status: ('A' for Active; 'I' for Inactive)
REMARK    1  A    between atoms: C_3  and  C_1 
REMARK    2  A    between atoms: C_5  and  C_3 
REMARK    3  A    between atoms: C_14  and  C_3 
REMARK    4  A    between atoms: N_6  and  C_14 
REMARK    5  A    between atoms: O_17  and  C_9 
REMARK    6  A    between atoms: O_18  and  C_10 
REMARK    7  A    between atoms: O_19  and  C_11 
ROOT
ATOM      1  C   UNL d   1      58.981  -0.368  29.370  0.00  0.00     0.025 C 
ENDROOT
BRANCH   1   2
ATOM      2  C   UNL d   1      59.557  -0.950  29.276  0.00  0.00     0.021 A 
ATOM      3  C   UNL d   1      60.378  -0.810  29.155  0.00  0.00     0.082 A 
ATOM      4  N   UNL d   1      60.750  -1.527  29.090  0.00  0.00    -0.246 NA
ATOM      5  C   UNL d   1      60.739  -0.066  29.111  0.00  0.00     0.021 C 
ATOM      6  C   UNL d   1      60.181  -2.119  29.167  0.00  0.00     0.081 A 
ATOM      7  C   UNL d   1      59.450  -1.749  29.281  0.00  0.00     0.019 A 
ATOM      8  C   UNL d   1      60.224  -2.928  29.149  0.00  0.00     0.019 A 
ATOM      9  C   UNL d   1      58.769  -2.206  29.376  0.00  0.00     0.002 A 
ATOM     10  C   UNL d   1      58.817  -3.023  29.358  0.00  0.00     0.000 A 
ATOM     11  C   UNL d   1      59.548  -3.393  29.244  0.00  0.00     0.002 A 
ENDBRANCH   1   2
BRANCH   1  12
ATOM     12  C   UNL d   1      58.679  -0.216  30.126  0.00  0.00     0.006 A 
ATOM     13  C   UNL d   1      57.914  -0.439  30.312  0.00  0.00     0.026 A 
ATOM     14  C   UNL d   1      57.606  -0.292  31.059  0.00  0.00     0.118 A 
ATOM     15  C   UNL d   1      58.074   0.081  31.618  0.00  0.00     0.138 A 
ATOM     16  C   UNL d   1      58.847   0.310  31.440  0.00  0.00     0.118 A 
ATOM     17  C   UNL d   1      59.147   0.157  30.685  0.00  0.00     0.026 A 
BRANCH  14  18
ATOM     18  O   UNL d   1      56.843  -0.516  31.244  0.00  0.00    -0.326 OA
ATOM     19  C   UNL d   1      56.705  -1.186  31.693  0.00  0.00     0.181 C 
ENDBRANCH  14  18
BRANCH  15  20
ATOM     20  O   UNL d   1      57.770   0.228  32.363  0.00  0.00    -0.324 OA
ATOM     21  C   UNL d   1      56.956   0.348  32.450  0.00  0.00     0.182 C 
ENDBRANCH  15  20
BRANCH  16  22
ATOM     22  O   UNL d   1      59.317   0.682  31.993  0.00  0.00    -0.326 OA
ATOM     23  C   UNL d   1      60.135   0.607  31.964  0.00  0.00     0.181 C 
ENDBRANCH  16  22
ENDBRANCH   1  12
BRANCH   1  24
ATOM     24  C   UNL d   1      58.704   0.063  28.720  0.00  0.00     0.148 C 
BRANCH  24  25
ATOM     25  N   UNL d   1      57.895   0.004  28.548  0.00  0.00    -0.112 N 
ATOM     26  O   UNL d   1      57.553  -0.752  28.460  0.00  0.00    -0.532 OA
ATOM     27  O   UNL d   1      57.441   0.682  28.466  0.00  0.00    -0.532 OA
ENDBRANCH  24  25
ENDBRANCH   1  24
TORSDOF 7
ENDMDL
MODEL 3
REMARK VINA RESULT:      -0.5      1.433      3.626
REMARK  7 active torsions:
REMARK  status: ('A' for Active; 'I' for Inactive)
REMARK    1  A    between atoms: C_3  and  C_1 
REMARK    2  A    between atoms: C_5  and  C_3 
REMARK    3  A    between atoms: C_14  and  C_3 
REMARK    4  A    between atoms: N_6  and  C_14 
REMARK    5  A    between atoms: O_17  and  C_9 
REMARK    6  A    between atoms: O_18  and  C_10 
REMARK    7  A    between atoms: O_19  and  C_11 
ROOT
ATOM      1  C   UNL d   1      58.321   0.072  30.225  0.00  0.00     0.025 C 
ENDROOT
BRANCH   1   2
ATOM      2  C   UNL d   1      58.214   0.065  31.043  0.00  0.00     0.021 A 
ATOM      3  C   UNL d   1      58.767   0.350  31.610  0.00  0.00     0.082 A 
ATOM      4  N   UNL d   1      58.449   0.242  32.349  0.00  0.00    -0.246 NA
ATOM      5  C   UNL d   1      59.506   0.681  31.439  0.00  0.00     0.021 C 
ATOM      6  C   UNL d   1      57.706  -0.105  32.260  0.00  0.00     0.081 A 
ATOM      7  C   UNL d   1      57.574  -0.208  31.449  0.00  0.00     0.019 A 
ATOM      8  C   UNL d   1      57.141  -0.337  32.792  0.00  0.00     0.019 A 
ATOM      9  C   UNL d   1      56.867  -0.548  31.189  0.00  0.00     0.002 A 
ATOM     10  C   UNL d   1      56.300  -0.781  31.730  0.00  0.00     0.000 A 
ATOM     11  C   UNL d   1      56.432  -0.677  32.541  0.00  0.00     0.002 A 
ENDBRANCH   1   2
BRANCH   1  12
ATOM     12  C   UNL d   1      58.749  -0.542  29.868  0.00  0.00     0.006 A 
ATOM     13  C   UNL d   1      58.495  -1.316  29.949  0.00  0.00     0.026 A 
ATOM     14  C   UNL d   1      58.913  -1.930  29.599  0.00  0.00     0.118 A 
ATOM     15  C   UNL d   1      59.587  -1.760  29.167  0.00  0.00     0.138 A 
ATOM     16  C   UNL d   1      59.851  -0.982  29.080  0.00  0.00     0.118 A 
ATOM     17  C   UNL d   1      59.423  -0.372  29.437  0.00  0.00     0.026 A 
BRANCH  14  18
ATOM     18  O   UNL d   1      58.660  -2.703  29.679  0.00  0.00    -0.326 OA
ATOM     19  C   UNL d   1      57.895  -2.910  29.475  0.00  0.00     0.181 C 
ENDBRANCH  14  18
BRANCH  15  20
ATOM     20  O   UNL d   1      60.005  -2.370  28.817  0.00  0.00    -0.324 OA
ATOM     21  C   UNL d   1      60.831  -2.373  28.865  0.00  0.00     0.182 C 
ENDBRANCH  15  20
BRANCH  16  22
ATOM     22  O   UNL d   1      60.522  -0.808  28.651  0.00  0.00    -0.326 OA
ATOM     23  C   UNL d   1      60.869  -0.065  28.702  0.00  0.00     0.181 C 
ENDBRANCH  16  22
ENDBRANCH   1  12
BRANCH   1  24
ATOM     24  C   UNL d   1      58.008   0.681  29.762  0.00  0.00     0.148 C 
BRANCH  24  25
ATOM     25  N   UNL d   1      57.443   0.468  29.194  0.00  0.00    -0.112 N 
ATOM     26  O   UNL d   1      56.633   0.527  29.385  0.00  0.00    -0.532 OA
ATOM     27  O   UNL d   1      57.681   0.202  28.455  0.00  0.00    -0.532 OA
ENDBRANCH  24  25
ENDBRANCH   1  24
TORSDOF 7
ENDMDL
MODEL 4
REMARK VINA RESULT:       0.0      1.475      3.536
REMARK  7 active torsions:
REMARK  status: ('A' for Active; 'I' for Inactive)
REMARK    1  A    between atoms: C_3  and  C_1 
REMARK    2  A    between atoms: C_5  and  C_3 
REMARK    3  A    between atoms: C_14  and  C_3 
REMARK    4  A    between atoms: N_6  and  C_14 
REMARK    5  A    between atoms: O_17  and  C_9 
REMARK    6  A    between atoms: O_18  and  C_10 
REMARK    7  A    between atoms: O_19  and  C_11 
ROOT
ATOM      1  C   UNL d   1      58.177  -0.242  30.349  0.00  0.00     0.025 C 
ENDROOT
BRANCH   1   2
ATOM      2  C   UNL d   1      57.673  -0.611  30.889  0.00  0.00     0.021 A 
ATOM      3  C   UNL d   1      57.275  -1.342  30.764  0.00  0.00     0.082 A 
ATOM      4  N   UNL d   1      56.838  -1.507  31.427  0.00  0.00    -0.246 NA
ATOM      5  C   UNL d   1      57.324  -1.808  30.082  0.00  0.00     0.021 C 
ATOM      6  C   UNL d   1      56.952  -0.896  31.968  0.00  0.00     0.081 A 
ATOM      7  C   UNL d   1      57.470  -0.349  31.623  0.00  0.00     0.019 A 
ATOM      8  C   UNL d   1      56.663  -0.760  32.714  0.00  0.00     0.019 A 
ATOM      9  C   UNL d   1      57.688   0.329  32.040  0.00  0.00     0.002 A 
ATOM     10  C   UNL d   1      57.394   0.462  32.792  0.00  0.00     0.000 A 
ATOM     11  C   UNL d   1      56.876  -0.085  33.138  0.00  0.00     0.002 A 
ENDBRANCH   1   2
BRANCH   1  12
ATOM     12  C   UNL d   1      58.836  -0.656  30.063  0.00  0.00     0.006 A 
ATOM     13  C   UNL d   1      59.578  -0.313  30.097  0.00  0.00     0.026 A 
ATOM     14  C   UNL d   1      60.236  -0.716  29.816  0.00  0.00     0.118 A 
ATOM     15  C   UNL d   1      60.142  -1.465  29.500  0.00  0.00     0.138 A 
ATOM     16  C   UNL d   1      59.397  -1.819  29.461  0.00  0.00     0.118 A 
ATOM     17  C   UNL d   1      58.741  -1.405  29.747  0.00  0.00     0.026 A 
BRANCH  14  18
ATOM     18  O   UNL d   1      60.977  -0.373  29.850  0.00  0.00    -0.326 OA
ATOM     19  C   UNL d   1      61.126   0.239  30.372  0.00  0.00     0.181 C 
ENDBRANCH  14  18
BRANCH  15  20
ATOM     20  O   UNL d   1      60.796  -1.868  29.219  0.00  0.00    -0.324 OA
ATOM     21  C   UNL d   1      61.133  -2.464  29.684  0.00  0.00     0.182 C 
ENDBRANCH  15  20
BRANCH  16  22
ATOM     22  O   UNL d   1      59.298  -2.565  29.148  0.00  0.00    -0.326 OA
ATOM     23  C   UNL d   1      58.804  -2.685  28.502  0.00  0.00     0.181 C 
ENDBRANCH  16  22
ENDBRANCH   1  12
BRANCH   1  24
ATOM     24  C   UNL d   1      58.030   0.531  30.093  0.00  0.00     0.148 C 
BRANCH  24  25
ATOM     25  N   UNL d   1      57.510   0.622  29.454  0.00  0.00    -0.112 N 
ATOM     26  O   UNL d   1      56.690   0.669  29.602  0.00  0.00    -0.532 OA
ATOM     27  O   UNL d   1      57.801   0.664  28.688  0.00  0.00    -0.532 OA
ENDBRANCH  24  25
ENDBRANCH   1  24
TORSDOF 7
ENDMDL
MODEL 5
REMARK VINA RESULT:       1.0      1.426      1.873
REMARK  7 active torsions:
REMARK  status: ('A' for Active; 'I' for Inactive)
REMARK    1  A    between atoms: C_3  and  C_1 
REMARK    2  A    between atoms: C_5  and  C_3 
REMARK    3  A    between atoms: C_14  and  C_3 
REMARK    4  A    between atoms: N_6  and  C_14 
REMARK    5  A    between atoms: O_17  and  C_9 
REMARK    6  A    between atoms: O_18  and  C_10 
REMARK    7  A    between atoms: O_19  and  C_11 
ROOT
ATOM      1  C   UNL d   1      58.598   0.088  30.288  0.00  0.00     0.025 C 
ENDROOT
BRANCH   1   2
ATOM      2  C   UNL d   1      58.487  -0.421  29.648  0.00  0.00     0.021 A 
ATOM      3  C   UNL d   1      58.075  -0.231  28.940  0.00  0.00     0.082 A 
ATOM      4  N   UNL d   1      58.093  -0.881  28.455  0.00  0.00    -0.246 NA
ATOM      5  C   UNL d   1      57.714   0.495  28.771  0.00  0.00     0.021 C 
ATOM      6  C   UNL d   1      58.508  -1.478  28.843  0.00  0.00     0.081 A 
ATOM      7  C   UNL d   1      58.746  -1.180  29.578  0.00  0.00     0.019 A 
ATOM      8  C   UNL d   1      58.701  -2.238  28.635  0.00  0.00     0.019 A 
ATOM      9  C   UNL d   1      59.178  -1.659  30.094  0.00  0.00     0.002 A 
ATOM     10  C   UNL d   1      59.370  -2.425  29.880  0.00  0.00     0.000 A 
ATOM     11  C   UNL d   1      59.133  -2.723  29.145  0.00  0.00     0.002 A 
ENDBRANCH   1   2
BRANCH   1  12
ATOM     12  C   UNL d   1      58.125  -0.002  30.963  0.00  0.00     0.006 A 
ATOM     13  C   UNL d   1      58.328   0.381  31.657  0.00  0.00     0.026 A 
ATOM     14  C   UNL d   1      57.865   0.298  32.330  0.00  0.00     0.118 A 
ATOM     15  C   UNL d   1      57.196  -0.173  32.299  0.00  0.00     0.138 A 
ATOM     16  C   UNL d   1      56.983  -0.563  31.604  0.00  0.00     0.118 A 
ATOM     17  C   UNL d   1      57.456  -0.473  30.932  0.00  0.00     0.026 A 
BRANCH  14  18
ATOM     18  O   UNL d   1      58.068   0.680  33.023  0.00  0.00    -0.326 OA
ATOM     19  C   UNL d   1      58.777   0.512  33.395  0.00  0.00     0.181 C 
ENDBRANCH  14  18
BRANCH  15  20
ATOM     20  O   UNL d   1      56.733  -0.257  32.969  0.00  0.00    -0.324 OA
ATOM     21  C   UNL d   1      56.291   0.389  33.237  0.00  0.00     0.182 C 
ENDBRANCH  15  20
BRANCH  16  22
ATOM     22  O   UNL d   1      56.317  -1.033  31.568  0.00  0.00    -0.326 OA
ATOM     23  C   UNL d   1      56.166  -1.587  32.156  0.00  0.00     0.181 C 
ENDBRANCH  16  22
ENDBRANCH   1  12
BRANCH   1  24
ATOM     24  C   UNL d   1      59.173   0.682  30.263  0.00  0.00     0.148 C 
BRANCH  24  25
ATOM     25  N   UNL d   1      59.966   0.438  30.281  0.00  0.00    -0.112 N 
ATOM     26  O   UNL d   1      60.417   0.471  29.580  0.00  0.00    -0.532 OA
ATOM     27  O   UNL d   1      60.297   0.167  30.981  0.00  0.00    -0.532 OA
ENDBRANCH  24  25
ENDBRANCH   1  24
TORSDOF 7
ENDMDL
MODEL 6
REMARK VINA RESULT:       1.2      1.277      2.409
REMARK  7 active torsions:
REMARK  status: ('A' for Active; 'I' for Inactive)
REMARK    1  A    between atoms: C_3  and  C_1 
REMARK    2  A    between atoms: C_5  and  C_3 
REMARK    3  A    between atoms: C_14  and  C_3 
REMARK    4  A    between atoms: N_6  and  C_14 
REMARK    5  A    between atoms: O_17  and  C_9 
REMARK    6  A    between atoms: O_18  and  C_10 
REMARK    7  A    between atoms: O_19  and  C_11 
ROOT
ATOM      1  C   UNL d   1      58.583  -0.796  30.072  0.00  0.00     0.025 C 
ENDROOT
BRANCH   1   2
ATOM      2  C   UNL d   1      58.888  -0.294  29.493  0.00  0.00     0.021 A 
ATOM      3  C   UNL d   1      58.431   0.150  28.943  0.00  0.00     0.082 A 
ATOM      4  N   UNL d   1      58.941   0.571  28.473  0.00  0.00    -0.246 NA
ATOM      5  C   UNL d   1      57.604   0.154  28.894  0.00  0.00     0.021 C 
ATOM      6  C   UNL d   1      59.711   0.401  28.715  0.00  0.00     0.081 A 
ATOM      7  C   UNL d   1      59.663  -0.133  29.345  0.00  0.00     0.019 A 
ATOM      8  C   UNL d   1      60.437   0.653  28.455  0.00  0.00     0.019 A 
ATOM      9  C   UNL d   1      60.355  -0.406  29.705  0.00  0.00     0.002 A 
ATOM     10  C   UNL d   1      61.085  -0.149  29.440  0.00  0.00     0.000 A 
ATOM     11  C   UNL d   1      61.133   0.385  28.809  0.00  0.00     0.002 A 
ENDBRANCH   1   2
BRANCH   1  12
ATOM     12  C   UNL d   1      58.236  -0.469  30.750  0.00  0.00     0.006 A 
ATOM     13  C   UNL d   1      57.423  -0.477  30.836  0.00  0.00     0.026 A 
ATOM     14  C   UNL d   1      57.071  -0.155  31.505  0.00  0.00     0.118 A 
ATOM     15  C   UNL d   1      57.544   0.174  32.086  0.00  0.00     0.138 A 
ATOM     16  C   UNL d   1      58.365   0.187  32.008  0.00  0.00     0.118 A 
ATOM     17  C   UNL d   1      58.709  -0.140  31.331  0.00  0.00     0.026 A 
BRANCH  14  18
ATOM     18  O   UNL d   1      56.258  -0.163  31.590  0.00  0.00    -0.326 OA
ATOM     19  C   UNL d   1      55.887  -0.793  31.958  0.00  0.00     0.181 C 
ENDBRANCH  14  18
BRANCH  15  20
ATOM     20  O   UNL d   1      57.195   0.496  32.753  0.00  0.00    -0.324 OA
ATOM     21  C   UNL d   1      56.940  -0.009  33.358  0.00  0.00     0.182 C 
ENDBRANCH  15  20
BRANCH  16  22
ATOM     22  O   UNL d   1      58.841   0.514  32.585  0.00  0.00    -0.326 OA
ATOM     23  C   UNL d   1      59.630   0.682  32.430  0.00  0.00     0.181 C 
ENDBRANCH  16  22
ENDBRANCH   1  12
BRANCH   1  24
ATOM     24  C   UNL d   1      58.620  -1.618  29.982  0.00  0.00     0.148 C 
BRANCH  24  25
ATOM     25  N   UNL d   1      58.296  -1.934  29.288  0.00  0.00    -0.112 N 
ATOM     26  O   UNL d   1      58.805  -2.150  28.663  0.00  0.00    -0.532 OA
ATOM     27  O   UNL d   1      57.484  -2.032  29.219  0.00  0.00    -0.532 OA
ENDBRANCH  24  25
ENDBRANCH   1  24
TORSDOF 7
ENDMDL
