MODEL 1
REMARK VINA RESULT:      -7.4      0.000      0.000
REMARK  1 active torsions:
REMARK  status: ('A' for Active; 'I' for Inactive)
REMARK       I    between atoms: N_3  and  C_1 
REMARK       I    between atoms: N_5  and  C_1 
REMARK       I    between atoms: C_2  and  N_4 
REMARK    1  A    between atoms: C_6  and  C_2 
ROOT
ATOM      1  C   UNL d   1     -46.711  12.947  23.039  0.00  0.00     0.340 C 
ATOM      2  C   UNL d   1     -50.013  12.955  22.969  0.00  0.00     0.271 C 
ATOM      3  N   UNL d   1     -47.532  12.993  23.114  0.00  0.00    -0.254 N 
ATOM      4  N   UNL d   1     -49.176  12.962  22.997  0.00  0.00    -0.269 N 
ATOM      5  N   UNL d   1     -46.308  12.285  23.320  0.00  0.00    -0.253 N 
ATOM      6  O   UNL d   1     -46.296  13.561  22.684  0.00  0.00    -0.245 OA
ATOM      7  C   UNL d   1     -47.940  13.646  22.805  0.00  0.00     0.104 A 
ATOM      8  C   UNL d   1     -47.960  12.327  23.384  0.00  0.00     0.104 A 
ATOM      9  C   UNL d   1     -48.773  13.624  22.737  0.00  0.00     0.102 A 
ATOM     10  C   UNL d   1     -48.783  12.312  23.330  0.00  0.00     0.102 A 
ATOM     11  O   UNL d   1     -50.437  12.290  23.239  0.00  0.00    -0.266 OA
ATOM     12  O   UNL d   1     -45.530  10.831  23.623  0.00  0.00    -0.300 OA
ATOM     13  C   UNL d   1     -45.526  12.108  22.987  0.00  0.00     0.111 C 
ATOM     14  C   UNL d   1     -46.763  11.543  23.416  0.00  0.00     0.111 C 
ATOM     15  C   UNL d   1     -46.351  10.880  23.697  0.00  0.00     0.142 C 
ATOM     16  C   UNL d   1     -45.122  11.452  23.265  0.00  0.00     0.142 C 
ENDROOT
BRANCH   2  17
ATOM     17  C   UNL d   1     -50.421  13.606  22.653  0.00  0.00     0.086 A 
ATOM     18  S   UNL d   1     -50.663  13.693  21.861  0.00  0.00    -0.082 SA
ATOM     19  C   UNL d   1     -51.064  14.429  21.792  0.00  0.00     0.036 A 
ATOM     20  C   UNL d   1     -51.060  14.791  22.541  0.00  0.00     0.008 A 
ATOM     21  C   UNL d   1     -50.668  14.283  23.073  0.00  0.00     0.012 A 
ENDBRANCH   2  17
TORSDOF 1
ENDMDL
MODEL 2
REMARK VINA RESULT:      -5.9      9.155      9.610
REMARK  1 active torsions:
REMARK  status: ('A' for Active; 'I' for Inactive)
REMARK       I    between atoms: N_3  and  C_1 
REMARK       I    between atoms: N_5  and  C_1 
REMARK       I    between atoms: C_2  and  N_4 
REMARK    1  A    between atoms: C_6  and  C_2 
ROOT
ATOM      1  C   UNL d   1     -38.860  15.267  21.204  0.00  0.00     0.340 C 
ATOM      2  C   UNL d   1     -40.512  14.453  18.463  0.00  0.00     0.271 C 
ATOM      3  N   UNL d   1     -39.351  15.116  20.558  0.00  0.00    -0.254 N 
ATOM      4  N   UNL d   1     -40.102  14.669  19.161  0.00  0.00    -0.269 N 
ATOM      5  N   UNL d   1     -38.866  14.759  21.854  0.00  0.00    -0.253 N 
ATOM      6  O   UNL d   1     -38.363  15.922  21.200  0.00  0.00    -0.245 OA
ATOM      7  C   UNL d   1     -39.323  15.611  19.893  0.00  0.00     0.104 A 
ATOM      8  C   UNL d   1     -39.779  14.399  20.523  0.00  0.00     0.104 A 
ATOM      9  C   UNL d   1     -39.696  15.377  19.182  0.00  0.00     0.102 A 
ATOM     10  C   UNL d   1     -40.159  14.175  19.826  0.00  0.00     0.102 A 
ATOM     11  O   UNL d   1     -40.938  13.737  18.431  0.00  0.00    -0.266 OA
ATOM     12  O   UNL d   1     -38.668  13.583  23.032  0.00  0.00    -0.300 OA
ATOM     13  C   UNL d   1     -38.170  14.745  22.372  0.00  0.00     0.111 C 
ATOM     14  C   UNL d   1     -39.157  13.942  21.727  0.00  0.00     0.111 C 
ATOM     15  C   UNL d   1     -39.158  13.435  22.385  0.00  0.00     0.142 C 
ATOM     16  C   UNL d   1     -38.174  14.243  23.019  0.00  0.00     0.142 C 
ENDROOT
BRANCH   2  17
ATOM     17  C   UNL d   1     -40.478  14.944  17.795  0.00  0.00     0.086 A 
ATOM     18  S   UNL d   1     -39.923  14.890  17.176  0.00  0.00    -0.082 SA
ATOM     19  C   UNL d   1     -40.102  15.490  16.614  0.00  0.00     0.036 A 
ATOM     20  C   UNL d   1     -40.761  15.913  16.896  0.00  0.00     0.008 A 
ATOM     21  C   UNL d   1     -40.996  15.575  17.620  0.00  0.00     0.012 A 
ENDBRANCH   2  17
TORSDOF 1
ENDMDL
MODEL 3
REMARK VINA RESULT:      -5.8      1.632      4.602
REMARK  1 active torsions:
REMARK  status: ('A' for Active; 'I' for Inactive)
REMARK       I    between atoms: N_3  and  C_1 
REMARK       I    between atoms: N_5  and  C_1 
REMARK       I    between atoms: C_2  and  N_4 
REMARK    1  A    between atoms: C_6  and  C_2 
ROOT
ATOM      1  C   UNL d   1     -49.532  12.372  22.414  0.00  0.00     0.340 C 
ATOM      2  C   UNL d   1     -46.339  12.520  23.241  0.00  0.00     0.271 C 
ATOM      3  N   UNL d   1     -48.765  12.400  22.718  0.00  0.00    -0.254 N 
ATOM      4  N   UNL d   1     -47.152  12.477  23.044  0.00  0.00    -0.269 N 
ATOM      5  N   UNL d   1     -49.967  13.068  22.328  0.00  0.00    -0.253 N 
ATOM      6  O   UNL d   1     -49.863  11.652  22.196  0.00  0.00    -0.245 OA
ATOM      7  C   UNL d   1     -48.318  11.704  22.776  0.00  0.00     0.104 A 
ATOM      8  C   UNL d   1     -48.397  13.140  22.844  0.00  0.00     0.104 A 
ATOM      9  C   UNL d   1     -47.497  11.746  22.931  0.00  0.00     0.102 A 
ATOM     10  C   UNL d   1     -47.591  13.181  23.011  0.00  0.00     0.102 A 
ATOM     11  O   UNL d   1     -45.974  13.259  23.365  0.00  0.00    -0.266 OA
ATOM     12  O   UNL d   1     -50.733  14.493  21.887  0.00  0.00    -0.300 OA
ATOM     13  C   UNL d   1     -50.621  13.077  21.758  0.00  0.00     0.111 C 
ATOM     14  C   UNL d   1     -49.522  13.821  22.279  0.00  0.00     0.111 C 
ATOM     15  C   UNL d   1     -49.966  14.517  22.190  0.00  0.00     0.142 C 
ATOM     16  C   UNL d   1     -51.056  13.765  21.671  0.00  0.00     0.142 C 
ENDROOT
BRANCH   2  17
ATOM     17  C   UNL d   1     -45.889  11.823  23.292  0.00  0.00     0.086 A 
ATOM     18  S   UNL d   1     -45.138  11.700  22.955  0.00  0.00    -0.082 SA
ATOM     19  C   UNL d   1     -44.889  10.922  23.154  0.00  0.00     0.036 A 
ATOM     20  C   UNL d   1     -45.492  10.571  23.606  0.00  0.00     0.008 A 
ATOM     21  C   UNL d   1     -46.107  11.126  23.696  0.00  0.00     0.012 A 
ENDBRANCH   2  17
TORSDOF 1
ENDMDL
MODEL 4
REMARK VINA RESULT:      -5.6      9.090     10.095
REMARK  1 active torsions:
REMARK  status: ('A' for Active; 'I' for Inactive)
REMARK       I    between atoms: N_3  and  C_1 
REMARK       I    between atoms: N_5  and  C_1 
REMARK       I    between atoms: C_2  and  N_4 
REMARK    1  A    between atoms: C_6  and  C_2 
ROOT
ATOM      1  C   UNL d   1     -39.836  14.391  18.181  0.00  0.00     0.340 C 
ATOM      2  C   UNL d   1     -39.663  14.840  21.448  0.00  0.00     0.271 C 
ATOM      3  N   UNL d   1     -39.858  14.424  19.006  0.00  0.00    -0.254 N 
ATOM      4  N   UNL d   1     -39.713  14.714  20.622  0.00  0.00    -0.269 N 
ATOM      5  N   UNL d   1     -40.388  14.814  17.737  0.00  0.00    -0.253 N 
ATOM      6  O   UNL d   1     -39.266  13.936  17.803  0.00  0.00    -0.245 OA
ATOM      7  C   UNL d   1     -39.286  14.021  19.451  0.00  0.00     0.104 A 
ATOM      8  C   UNL d   1     -40.374  14.963  19.384  0.00  0.00     0.104 A 
ATOM      9  C   UNL d   1     -39.206  14.178  20.269  0.00  0.00     0.102 A 
ATOM     10  C   UNL d   1     -40.305  15.106  20.194  0.00  0.00     0.102 A 
ATOM     11  O   UNL d   1     -40.178  15.378  21.823  0.00  0.00    -0.266 OA
ATOM     12  O   UNL d   1     -41.311  15.890  16.842  0.00  0.00    -0.300 OA
ATOM     13  C   UNL d   1     -40.189  15.012  16.916  0.00  0.00     0.111 C 
ATOM     14  C   UNL d   1     -40.778  15.498  18.120  0.00  0.00     0.111 C 
ATOM     15  C   UNL d   1     -41.330  15.921  17.667  0.00  0.00     0.142 C 
ATOM     16  C   UNL d   1     -40.734  15.431  16.471  0.00  0.00     0.142 C 
ENDROOT
BRANCH   2  17
ATOM     17  C   UNL d   1     -39.085  14.443  21.893  0.00  0.00     0.086 A 
ATOM     18  S   UNL d   1     -38.341  14.747  22.111  0.00  0.00    -0.082 SA
ATOM     19  C   UNL d   1     -37.944  14.160  22.565  0.00  0.00     0.036 A 
ATOM     20  C   UNL d   1     -38.444  13.498  22.616  0.00  0.00     0.008 A 
ATOM     21  C   UNL d   1     -39.149  13.672  22.207  0.00  0.00     0.012 A 
ENDBRANCH   2  17
TORSDOF 1
ENDMDL
MODEL 5
REMARK VINA RESULT:      -4.9      9.421     11.066
REMARK  1 active torsions:
REMARK  status: ('A' for Active; 'I' for Inactive)
REMARK       I    between atoms: N_3  and  C_1 
REMARK       I    between atoms: N_5  and  C_1 
REMARK       I    between atoms: C_2  and  N_4 
REMARK    1  A    between atoms: C_6  and  C_2 
ROOT
ATOM      1  C   UNL d   1     -38.787  13.848  17.259  0.00  0.00     0.340 C 
ATOM      2  C   UNL d   1     -38.994  15.109  20.304  0.00  0.00     0.271 C 
ATOM      3  N   UNL d   1     -38.939  14.175  18.002  0.00  0.00    -0.254 N 
ATOM      4  N   UNL d   1     -38.955  14.787  19.532  0.00  0.00    -0.269 N 
ATOM      5  N   UNL d   1     -38.601  14.339  16.623  0.00  0.00    -0.253 N 
ATOM      6  O   UNL d   1     -38.822  13.033  17.153  0.00  0.00    -0.245 OA
ATOM      7  C   UNL d   1     -39.098  13.679  18.647  0.00  0.00     0.104 A 
ATOM      8  C   UNL d   1     -38.806  14.991  18.129  0.00  0.00     0.104 A 
ATOM      9  C   UNL d   1     -39.095  13.989  19.424  0.00  0.00     0.102 A 
ATOM     10  C   UNL d   1     -38.818  15.300  18.894  0.00  0.00     0.102 A 
ATOM     11  O   UNL d   1     -38.861  15.922  20.428  0.00  0.00    -0.266 OA
ATOM     12  O   UNL d   1     -37.944  15.299  15.416  0.00  0.00    -0.300 OA
ATOM     13  C   UNL d   1     -38.166  13.997  15.953  0.00  0.00     0.111 C 
ATOM     14  C   UNL d   1     -38.285  15.135  16.804  0.00  0.00     0.111 C 
ATOM     15  C   UNL d   1     -38.096  15.623  16.160  0.00  0.00     0.142 C 
ATOM     16  C   UNL d   1     -37.981  14.481  15.320  0.00  0.00     0.142 C 
ENDROOT
BRANCH   2  17
ATOM     17  C   UNL d   1     -39.146  14.611  20.952  0.00  0.00     0.086 A 
ATOM     18  S   UNL d   1     -38.573  14.224  21.416  0.00  0.00    -0.082 SA
ATOM     19  C   UNL d   1     -38.974  13.788  22.013  0.00  0.00     0.036 A 
ATOM     20  C   UNL d   1     -39.791  13.906  21.907  0.00  0.00     0.008 A 
ATOM     21  C   UNL d   1     -39.898  14.416  21.257  0.00  0.00     0.012 A 
ENDBRANCH   2  17
TORSDOF 1
ENDMDL
MODEL 6
REMARK VINA RESULT:      -4.9      9.067     10.911
REMARK  1 active torsions:
REMARK  status: ('A' for Active; 'I' for Inactive)
REMARK       I    between atoms: N_3  and  C_1 
REMARK       I    between atoms: N_5  and  C_1 
REMARK       I    between atoms: C_2  and  N_4 
REMARK    1  A    between atoms: C_6  and  C_2 
ROOT
ATOM      1  C   UNL d   1     -38.715  15.710  20.158  0.00  0.00     0.340 C 
ATOM      2  C   UNL d   1     -39.471  15.365  16.962  0.00  0.00     0.271 C 
ATOM      3  N   UNL d   1     -38.884  15.724  19.350  0.00  0.00    -0.254 N 
ATOM      4  N   UNL d   1     -39.273  15.465  17.770  0.00  0.00    -0.269 N 
ATOM      5  N   UNL d   1     -39.310  15.869  20.706  0.00  0.00    -0.253 N 
ATOM      6  O   UNL d   1     -37.954  15.538  20.417  0.00  0.00    -0.245 OA
ATOM      7  C   UNL d   1     -38.291  15.535  18.800  0.00  0.00     0.104 A 
ATOM      8  C   UNL d   1     -39.676  15.801  19.094  0.00  0.00     0.104 A 
ATOM      9  C   UNL d   1     -38.493  15.394  18.001  0.00  0.00     0.102 A 
ATOM     10  C   UNL d   1     -39.872  15.676  18.303  0.00  0.00     0.102 A 
ATOM     11  O   UNL d   1     -40.262  15.442  16.710  0.00  0.00    -0.266 OA
ATOM     12  O   UNL d   1     -40.568  15.904  21.814  0.00  0.00    -0.300 OA
ATOM     13  C   UNL d   1     -39.214  15.573  21.516  0.00  0.00     0.111 C 
ATOM     14  C   UNL d   1     -40.140  15.758  20.448  0.00  0.00     0.111 C 
ATOM     15  C   UNL d   1     -40.734  15.917  21.005  0.00  0.00     0.142 C 
ATOM     16  C   UNL d   1     -39.801  15.730  22.063  0.00  0.00     0.142 C 
ENDROOT
BRANCH   2  17
ATOM     17  C   UNL d   1     -38.879  15.169  16.413  0.00  0.00     0.086 A 
ATOM     18  S   UNL d   1     -38.562  15.675  15.833  0.00  0.00    -0.082 SA
ATOM     19  C   UNL d   1     -37.974  15.249  15.410  0.00  0.00     0.036 A 
ATOM     20  C   UNL d   1     -37.940  14.481  15.728  0.00  0.00     0.008 A 
ATOM     21  C   UNL d   1     -38.493  14.431  16.349  0.00  0.00     0.012 A 
ENDBRANCH   2  17
TORSDOF 1
ENDMDL
