MODEL 1
REMARK VINA RESULT:      47.9      0.000      0.000
REMARK  5 active torsions:
REMARK  status: ('A' for Active; 'I' for Inactive)
REMARK    1  A    between atoms: C_14  and  N_3 
REMARK    2  A    between atoms: C_15  and  C_9 
REMARK    3  A    between atoms: O_22  and  C_12 
REMARK    4  A    between atoms: O_23  and  C_13 
REMARK    5  A    between atoms: C_16  and  C_14 
ROOT
ATOM      1  C   UNL d   1      45.799 -16.455  43.730  0.00  0.00     0.056 A 
ATOM      2  C   UNL d   1      45.717 -17.093  44.255  0.00  0.00     0.107 A 
ATOM      3  N   UNL d   1      46.336 -17.348  42.746  0.00  0.00    -0.304 N 
ATOM      4  C   UNL d   1      45.943 -17.850  44.025  0.00  0.00     0.038 A 
ATOM      5  N   UNL d   1      45.398 -16.798  44.954  0.00  0.00    -0.148 NA
ATOM      6  C   UNL d   1      46.109 -16.583  42.975  0.00  0.00     0.083 A 
ATOM      7  N   UNL d   1      45.284 -15.986  44.861  0.00  0.00    -0.148 NA
ATOM      8  C   UNL d   1      46.252 -17.978  43.271  0.00  0.00     0.068 A 
ATOM      9  C   UNL d   1      45.530 -15.769  44.109  0.00  0.00     0.106 A 
ATOM     10  C   UNL d   1      46.479 -18.736  43.040  0.00  0.00     0.044 A 
ATOM     11  C   UNL d   1      45.860 -18.480  44.548  0.00  0.00     0.029 A 
ATOM     12  C   UNL d   1      46.395 -19.365  43.564  0.00  0.00     0.118 A 
ATOM     13  C   UNL d   1      46.086 -19.237  44.318  0.00  0.00     0.116 A 
ENDROOT
BRANCH   3  14
ATOM     14  C   UNL d   1      46.645 -17.476  41.992  0.00  0.00     0.080 C 
BRANCH  14  15
ATOM     15  C   UNL d   1      46.182 -17.832  41.412  0.00  0.00     0.020 A 
ATOM     16  C   UNL d   1      45.357 -17.715  41.407  0.00  0.00     0.031 A 
ATOM     17  C   UNL d   1      44.893 -18.070  40.828  0.00  0.00     0.140 A 
ATOM     18  F   UNL d   1      44.076 -17.952  40.826  0.00  0.00    -0.204 F 
ATOM     19  C   UNL d   1      45.245 -18.548  40.242  0.00  0.00     0.030 A 
ATOM     20  C   UNL d   1      46.070 -18.664  40.246  0.00  0.00     0.002 A 
ATOM     21  C   UNL d   1      46.534 -18.307  40.830  0.00  0.00     0.002 A 
ENDBRANCH  14  15
ENDBRANCH   3  14
BRANCH   9  22
ATOM     22  C   UNL d   1      45.477 -14.982  43.868  0.00  0.00     0.020 A 
ATOM     23  C   UNL d   1      44.736 -14.647  43.712  0.00  0.00     0.004 A 
ATOM     24  C   UNL d   1      44.688 -13.856  43.469  0.00  0.00     0.030 A 
ATOM     25  C   UNL d   1      45.364 -13.410  43.385  0.00  0.00     0.140 A 
ATOM     26  C   UNL d   1      46.104 -13.741  43.540  0.00  0.00     0.030 A 
ATOM     27  F   UNL d   1      45.303 -12.621  43.143  0.00  0.00    -0.204 F 
ATOM     28  C   UNL d   1      46.161 -14.531  43.782  0.00  0.00     0.004 A 
ENDBRANCH   9  22
BRANCH  12  29
ATOM     29  O   UNL d   1      46.627 -20.136  43.325  0.00  0.00    -0.326 OA
ATOM     30  C   UNL d   1      46.647 -20.328  42.521  0.00  0.00     0.181 C 
ENDBRANCH  12  29
BRANCH  13  31
ATOM     31  O   UNL d   1      46.004 -19.879  44.844  0.00  0.00    -0.326 OA
ATOM     32  C   UNL d   1      45.310 -20.330  44.840  0.00  0.00     0.181 C 
ENDBRANCH  13  31
TORSDOF 5
ENDMDL
