MODEL 1
REMARK VINA RESULT:      -5.6      0.000      0.000
REMARK  1 active torsions:
REMARK  status: ('A' for Active; 'I' for Inactive)
REMARK    1  A    between atoms: C_7  and  C_1 
ROOT
ATOM      1  C   UNL d   1     -41.862-122.338 -54.110  0.00  0.00     0.122 A 
ATOM      2  C   UNL d   1     -41.706-123.160 -54.136  0.00  0.00     0.285 A 
ATOM      3  C   UNL d   1     -41.789-121.944 -53.392  0.00  0.00     0.012 A 
ATOM      4  N   UNL d   1     -41.483-123.573 -53.458  0.00  0.00    -0.208 NA
ATOM      5  C   UNL d   1     -41.413-123.162 -52.738  0.00  0.00     0.085 A 
ATOM      6  C   UNL d   1     -41.565-122.348 -52.701  0.00  0.00     0.018 A 
ATOM      7  O   UNL d   1     -41.777-123.563 -54.854  0.00  0.00    -0.265 OA
ATOM      8  C   UNL d   1     -41.191-123.570 -52.057  0.00  0.00     0.019 A 
ATOM      9  C   UNL d   1     -41.497-121.942 -51.994  0.00  0.00     0.002 A 
ATOM     10  C   UNL d   1     -41.274-122.354 -51.312  0.00  0.00     0.000 A 
ATOM     11  C   UNL d   1     -41.123-123.159 -51.345  0.00  0.00     0.002 A 
ENDROOT
BRANCH   1  12
ATOM     12  C   UNL d   1     -42.082-121.935 -54.784  0.00  0.00     0.216 C 
ATOM     13  O   UNL d   1     -42.895-121.819 -54.948  0.00  0.00    -0.644 OA
ATOM     14  O   UNL d   1     -41.513-121.641 -55.302  0.00  0.00    -0.644 OA
ENDBRANCH   1  12
TORSDOF 1
ENDMDL
MODEL 2
REMARK VINA RESULT:      -5.4      0.973      1.616
REMARK  1 active torsions:
REMARK  status: ('A' for Active; 'I' for Inactive)
REMARK    1  A    between atoms: C_7  and  C_1 
ROOT
ATOM      1  C   UNL d   1     -42.021-122.152 -54.720  0.00  0.00     0.122 A 
ATOM      2  C   UNL d   1     -42.046-121.503 -54.192  0.00  0.00     0.285 A 
ATOM      3  C   UNL d   1     -41.782-122.886 -54.435  0.00  0.00     0.012 A 
ATOM      4  N   UNL d   1     -41.836-121.592 -53.399  0.00  0.00    -0.208 NA
ATOM      5  C   UNL d   1     -41.597-122.339 -53.124  0.00  0.00     0.085 A 
ATOM      6  C   UNL d   1     -41.568-122.989 -53.639  0.00  0.00     0.018 A 
ATOM      7  O   UNL d   1     -42.284-120.763 -54.471  0.00  0.00    -0.265 OA
ATOM      8  C   UNL d   1     -41.387-122.434 -52.333  0.00  0.00     0.019 A 
ATOM      9  C   UNL d   1     -41.333-123.725 -53.370  0.00  0.00     0.002 A 
ATOM     10  C   UNL d   1     -41.123-123.817 -52.576  0.00  0.00     0.000 A 
ATOM     11  C   UNL d   1     -41.150-123.177 -52.064  0.00  0.00     0.002 A 
ENDROOT
BRANCH   1  12
ATOM     12  C   UNL d   1     -42.229-122.059 -55.504  0.00  0.00     0.216 C 
ATOM     13  O   UNL d   1     -41.660-121.780 -56.051  0.00  0.00    -0.644 OA
ATOM     14  O   UNL d   1     -42.991-122.236 -55.759  0.00  0.00    -0.644 OA
ENDBRANCH   1  12
TORSDOF 1
ENDMDL
MODEL 3
REMARK VINA RESULT:      -5.0      1.775      2.793
REMARK  1 active torsions:
REMARK  status: ('A' for Active; 'I' for Inactive)
REMARK    1  A    between atoms: C_7  and  C_1 
ROOT
ATOM      1  C   UNL d   1     -41.643-122.305 -52.329  0.00  0.00     0.122 A 
ATOM      2  C   UNL d   1     -41.371-123.081 -52.485  0.00  0.00     0.285 A 
ATOM      3  C   UNL d   1     -41.883-121.835 -52.960  0.00  0.00     0.012 A 
ATOM      4  N   UNL d   1     -41.342-123.375 -53.255  0.00  0.00    -0.208 NA
ATOM      5  C   UNL d   1     -41.587-122.889 -53.884  0.00  0.00     0.085 A 
ATOM      6  C   UNL d   1     -41.858-122.119 -53.741  0.00  0.00     0.018 A 
ATOM      7  O   UNL d   1     -41.128-123.559 -51.856  0.00  0.00    -0.265 OA
ATOM      8  C   UNL d   1     -41.560-123.178 -54.655  0.00  0.00     0.019 A 
ATOM      9  C   UNL d   1     -42.100-121.640 -54.358  0.00  0.00     0.002 A 
ATOM     10  C   UNL d   1     -42.072-121.932 -55.131  0.00  0.00     0.000 A 
ATOM     11  C   UNL d   1     -41.805-122.693 -55.276  0.00  0.00     0.002 A 
ENDROOT
BRANCH   1  12
ATOM     12  C   UNL d   1     -41.670-122.020 -51.565  0.00  0.00     0.216 C 
ATOM     13  O   UNL d   1     -41.124-121.431 -51.326  0.00  0.00    -0.644 OA
ATOM     14  O   UNL d   1     -42.227-122.304 -51.030  0.00  0.00    -0.644 OA
ENDBRANCH   1  12
TORSDOF 1
ENDMDL
MODEL 4
REMARK VINA RESULT:      -4.9      0.919      1.497
REMARK  1 active torsions:
REMARK  status: ('A' for Active; 'I' for Inactive)
REMARK    1  A    between atoms: C_7  and  C_1 
ROOT
ATOM      1  C   UNL d   1     -41.566-122.974 -53.642  0.00  0.00     0.122 A 
ATOM      2  C   UNL d   1     -41.571-122.156 -53.462  0.00  0.00     0.285 A 
ATOM      3  C   UNL d   1     -41.453-123.513 -53.031  0.00  0.00     0.012 A 
ATOM      4  N   UNL d   1     -41.465-121.890 -52.689  0.00  0.00    -0.208 NA
ATOM      5  C   UNL d   1     -41.351-122.446 -52.081  0.00  0.00     0.085 A 
ATOM      6  C   UNL d   1     -41.344-123.258 -52.248  0.00  0.00     0.018 A 
ATOM      7  O   UNL d   1     -41.685-121.608 -54.071  0.00  0.00    -0.265 OA
ATOM      8  C   UNL d   1     -41.244-122.186 -51.306  0.00  0.00     0.019 A 
ATOM      9  C   UNL d   1     -41.232-123.807 -51.651  0.00  0.00     0.002 A 
ATOM     10  C   UNL d   1     -41.125-123.542 -50.875  0.00  0.00     0.000 A 
ATOM     11  C   UNL d   1     -41.131-122.740 -50.706  0.00  0.00     0.002 A 
ENDROOT
BRANCH   1  12
ATOM     12  C   UNL d   1     -41.672-123.231 -54.409  0.00  0.00     0.216 C 
ATOM     13  O   UNL d   1     -42.303-123.752 -54.585  0.00  0.00    -0.644 OA
ATOM     14  O   UNL d   1     -41.165-122.984 -55.008  0.00  0.00    -0.644 OA
ENDBRANCH   1  12
TORSDOF 1
ENDMDL
MODEL 5
REMARK VINA RESULT:      -4.5      2.954      3.833
REMARK  1 active torsions:
REMARK  status: ('A' for Active; 'I' for Inactive)
REMARK    1  A    between atoms: C_7  and  C_1 
ROOT
ATOM      1  C   UNL d   1     -41.816-122.537 -50.521  0.00  0.00     0.122 A 
ATOM      2  C   UNL d   1     -42.600-122.356 -50.292  0.00  0.00     0.285 A 
ATOM      3  C   UNL d   1     -41.335-122.947 -49.995  0.00  0.00     0.012 A 
ATOM      4  N   UNL d   1     -42.891-122.582 -49.555  0.00  0.00    -0.208 NA
ATOM      5  C   UNL d   1     -42.394-122.997 -49.033  0.00  0.00     0.085 A 
ATOM      6  C   UNL d   1     -41.616-123.181 -49.249  0.00  0.00     0.018 A 
ATOM      7  O   UNL d   1     -43.090-121.943 -50.815  0.00  0.00    -0.265 OA
ATOM      8  C   UNL d   1     -42.680-123.225 -48.294  0.00  0.00     0.019 A 
ATOM      9  C   UNL d   1     -41.125-123.589 -48.737  0.00  0.00     0.002 A 
ATOM     10  C   UNL d   1     -41.414-123.817 -47.997  0.00  0.00     0.000 A 
ATOM     11  C   UNL d   1     -42.184-123.636 -47.779  0.00  0.00     0.002 A 
ENDROOT
BRANCH   1  12
ATOM     12  C   UNL d   1     -41.533-122.310 -51.252  0.00  0.00     0.216 C 
ATOM     13  O   UNL d   1     -41.663-122.804 -51.915  0.00  0.00    -0.644 OA
ATOM     14  O   UNL d   1     -41.123-121.603 -51.342  0.00  0.00    -0.644 OA
ENDBRANCH   1  12
TORSDOF 1
ENDMDL
MODEL 6
REMARK VINA RESULT:      -3.0      3.760      4.784
REMARK  1 active torsions:
REMARK  status: ('A' for Active; 'I' for Inactive)
REMARK    1  A    between atoms: C_7  and  C_1 
ROOT
ATOM      1  C   UNL d   1     -42.224-123.179 -48.836  0.00  0.00     0.122 A 
ATOM      2  C   UNL d   1     -42.758-122.625 -49.166  0.00  0.00     0.285 A 
ATOM      3  C   UNL d   1     -41.689-123.557 -49.333  0.00  0.00     0.012 A 
ATOM      4  N   UNL d   1     -42.752-122.457 -49.973  0.00  0.00    -0.208 NA
ATOM      5  C   UNL d   1     -42.206-122.847 -50.464  0.00  0.00     0.085 A 
ATOM      6  C   UNL d   1     -41.672-123.397 -50.148  0.00  0.00     0.018 A 
ATOM      7  O   UNL d   1     -43.298-122.240 -48.673  0.00  0.00    -0.265 OA
ATOM      8  C   UNL d   1     -42.196-122.683 -51.272  0.00  0.00     0.019 A 
ATOM      9  C   UNL d   1     -41.134-123.782 -50.630  0.00  0.00     0.002 A 
ATOM     10  C   UNL d   1     -41.126-123.616 -51.440  0.00  0.00     0.000 A 
ATOM     11  C   UNL d   1     -41.652-123.072 -51.756  0.00  0.00     0.002 A 
ENDROOT
BRANCH   1  12
ATOM     12  C   UNL d   1     -42.234-123.341 -48.036  0.00  0.00     0.216 C 
ATOM     13  O   UNL d   1     -42.845-123.817 -47.720  0.00  0.00    -0.644 OA
ATOM     14  O   UNL d   1     -41.650-123.040 -47.540  0.00  0.00    -0.644 OA
ENDBRANCH   1  12
TORSDOF 1
ENDMDL
