MODEL 1
REMARK VINA RESULT:      -9.5      0.000      0.000
REMARK  2 active torsions:
REMARK  status: ('A' for Active; 'I' for Inactive)
REMARK    1  A    between atoms: C_5  and  C_1 
REMARK    2  A    between atoms: O_15  and  C_12 
ROOT
ATOM      1  C   UNL d   1      53.433  31.274  53.648  0.00  0.00     0.042 A 
ATOM      2  C   UNL d   1      53.583  30.550  54.017  0.00  0.00     0.045 A 
ATOM      3  C   UNL d   1      52.925  31.310  52.999  0.00  0.00     0.196 A 
ATOM      4  C   UNL d   1      52.567  30.622  52.719  0.00  0.00     0.045 A 
ATOM      5  C   UNL d   1      53.224  29.862  53.737  0.00  0.00     0.196 A 
ATOM      6  C   UNL d   1      52.717  29.897  53.088  0.00  0.00     0.045 A 
ATOM      7  O   UNL d   1      52.776  32.034  52.629  0.00  0.00    -0.287 OA
ATOM      8  O   UNL d   1      53.374  29.137  54.107  0.00  0.00    -0.287 OA
ENDROOT
BRANCH   1   9
ATOM      9  C   UNL d   1      53.791  31.962  53.928  0.00  0.00     0.003 A 
ATOM     10  C   UNL d   1      53.520  32.305  54.632  0.00  0.00     0.002 A 
ATOM     11  C   UNL d   1      53.876  32.992  54.914  0.00  0.00     0.024 A 
ATOM     12  C   UNL d   1      54.500  33.340  54.498  0.00  0.00     0.094 A 
ATOM     13  C   UNL d   1      54.768  32.990  53.791  0.00  0.00     0.024 A 
ATOM     14  C   UNL d   1      54.410  32.302  53.511  0.00  0.00     0.002 A 
BRANCH  12  15
ATOM     15  O   UNL d   1      54.859  34.031  54.781  0.00  0.00    -0.328 OA
ATOM     16  C   UNL d   1      55.410  33.988  55.396  0.00  0.00     0.181 C 
ENDBRANCH  12  15
ENDBRANCH   1   9
TORSDOF 2
ENDMDL
MODEL 2
REMARK VINA RESULT:      -9.0      2.393      3.706
REMARK  2 active torsions:
REMARK  status: ('A' for Active; 'I' for Inactive)
REMARK    1  A    between atoms: C_5  and  C_1 
REMARK    2  A    between atoms: O_15  and  C_12 
ROOT
ATOM      1  C   UNL d   1      53.080  33.430  53.687  0.00  0.00     0.042 A 
ATOM      2  C   UNL d   1      53.393  33.865  54.317  0.00  0.00     0.045 A 
ATOM      3  C   UNL d   1      53.497  32.786  53.383  0.00  0.00     0.196 A 
ATOM      4  C   UNL d   1      54.226  32.578  53.707  0.00  0.00     0.045 A 
ATOM      5  C   UNL d   1      54.122  33.657  54.641  0.00  0.00     0.196 A 
ATOM      6  C   UNL d   1      54.539  33.013  54.336  0.00  0.00     0.045 A 
ATOM      7  O   UNL d   1      53.184  32.351  52.753  0.00  0.00    -0.287 OA
ATOM      8  O   UNL d   1      54.436  34.092  55.270  0.00  0.00    -0.287 OA
ENDROOT
BRANCH   1   9
ATOM      9  C   UNL d   1      52.351  33.638  53.363  0.00  0.00     0.003 A 
ATOM     10  C   UNL d   1      52.316  34.235  52.789  0.00  0.00     0.002 A 
ATOM     11  C   UNL d   1      51.591  34.446  52.463  0.00  0.00     0.024 A 
ATOM     12  C   UNL d   1      50.897  34.065  52.706  0.00  0.00     0.094 A 
ATOM     13  C   UNL d   1      50.940  33.466  53.284  0.00  0.00     0.024 A 
ATOM     14  C   UNL d   1      51.669  33.257  53.608  0.00  0.00     0.002 A 
BRANCH  12  15
ATOM     15  O   UNL d   1      50.166  34.276  52.379  0.00  0.00    -0.328 OA
ATOM     16  C   UNL d   1      49.653  34.769  52.801  0.00  0.00     0.181 C 
ENDBRANCH  12  15
ENDBRANCH   1   9
TORSDOF 2
ENDMDL
MODEL 3
REMARK VINA RESULT:      -8.6      1.605      3.665
REMARK  2 active torsions:
REMARK  status: ('A' for Active; 'I' for Inactive)
REMARK    1  A    between atoms: C_5  and  C_1 
REMARK    2  A    between atoms: O_15  and  C_12 
ROOT
ATOM      1  C   UNL d   1      52.958  33.651  53.730  0.00  0.00     0.042 A 
ATOM      2  C   UNL d   1      53.202  33.863  54.491  0.00  0.00     0.045 A 
ATOM      3  C   UNL d   1      52.716  34.231  53.197  0.00  0.00     0.196 A 
ATOM      4  C   UNL d   1      52.717  35.024  53.423  0.00  0.00     0.045 A 
ATOM      5  C   UNL d   1      53.202  34.656  54.718  0.00  0.00     0.196 A 
ATOM      6  C   UNL d   1      52.960  35.237  54.185  0.00  0.00     0.045 A 
ATOM      7  O   UNL d   1      52.473  34.018  52.435  0.00  0.00    -0.287 OA
ATOM      8  O   UNL d   1      53.446  34.869  55.479  0.00  0.00    -0.287 OA
ENDROOT
BRANCH   1   9
ATOM      9  C   UNL d   1      52.957  32.857  53.504  0.00  0.00     0.003 A 
ATOM     10  C   UNL d   1      53.674  32.442  53.472  0.00  0.00     0.002 A 
ATOM     11  C   UNL d   1      53.677  31.651  53.246  0.00  0.00     0.024 A 
ATOM     12  C   UNL d   1      52.969  31.269  53.051  0.00  0.00     0.094 A 
ATOM     13  C   UNL d   1      52.252  31.693  53.085  0.00  0.00     0.024 A 
ATOM     14  C   UNL d   1      52.253  32.486  53.312  0.00  0.00     0.002 A 
BRANCH  12  15
ATOM     15  O   UNL d   1      52.970  30.473  52.824  0.00  0.00    -0.328 OA
ATOM     16  C   UNL d   1      52.943  29.880  53.399  0.00  0.00     0.181 C 
ENDBRANCH  12  15
ENDBRANCH   1   9
TORSDOF 2
ENDMDL
MODEL 4
REMARK VINA RESULT:      -8.1      2.189      2.899
REMARK  2 active torsions:
REMARK  status: ('A' for Active; 'I' for Inactive)
REMARK    1  A    between atoms: C_5  and  C_1 
REMARK    2  A    between atoms: O_15  and  C_12 
ROOT
ATOM      1  C   UNL d   1      52.269  33.793  53.461  0.00  0.00     0.042 A 
ATOM      2  C   UNL d   1      51.613  33.301  53.570  0.00  0.00     0.045 A 
ATOM      3  C   UNL d   1      52.237  34.408  52.911  0.00  0.00     0.196 A 
ATOM      4  C   UNL d   1      51.550  34.530  52.471  0.00  0.00     0.045 A 
ATOM      5  C   UNL d   1      50.927  33.424  53.130  0.00  0.00     0.196 A 
ATOM      6  C   UNL d   1      50.895  34.038  52.580  0.00  0.00     0.045 A 
ATOM      7  O   UNL d   1      52.892  34.900  52.802  0.00  0.00    -0.287 OA
ATOM      8  O   UNL d   1      50.271  32.931  53.239  0.00  0.00    -0.287 OA
ENDROOT
BRANCH   1   9
ATOM      9  C   UNL d   1      52.955  33.671  53.901  0.00  0.00     0.003 A 
ATOM     10  C   UNL d   1      53.498  33.094  53.657  0.00  0.00     0.002 A 
ATOM     11  C   UNL d   1      54.184  32.969  54.094  0.00  0.00     0.024 A 
ATOM     12  C   UNL d   1      54.334  33.416  54.773  0.00  0.00     0.094 A 
ATOM     13  C   UNL d   1      53.783  33.994  55.013  0.00  0.00     0.024 A 
ATOM     14  C   UNL d   1      53.097  34.117  54.573  0.00  0.00     0.002 A 
BRANCH  12  15
ATOM     15  O   UNL d   1      55.024  33.291  55.214  0.00  0.00    -0.328 OA
ATOM     16  C   UNL d   1      55.593  33.889  55.267  0.00  0.00     0.181 C 
ENDBRANCH  12  15
ENDBRANCH   1   9
TORSDOF 2
ENDMDL
