MODEL 1
REMARK VINA RESULT:      25.5      0.000      0.000
REMARK  6 active torsions:
REMARK  status: ('A' for Active; 'I' for Inactive)
REMARK    1  A    between atoms: N_13  and  C_4 
REMARK    2  A    between atoms: O_17  and  C_9 
REMARK    3  A    between atoms: O_18  and  C_11 
REMARK    4  A    between atoms: C_19  and  N_13 
REMARK    5  A    between atoms: C_15  and  C_20 
REMARK    6  A    between atoms: C_20  and  C_19 
ROOT
ATOM      1  C   UNL d   1     -56.520 -98.830 -45.194  0.00  0.00     0.101 C 
ENDROOT
BRANCH   1   2
ATOM      2  N   UNL d   1     -57.018 -98.755 -44.564  0.00  0.00    -0.225 NA
BRANCH   2   3
ATOM      3  C   UNL d   1     -57.820 -98.787 -44.665  0.00  0.00     0.169 A 
ATOM      4  C   UNL d   1     -58.284 -98.808 -44.049  0.00  0.00     0.094 A 
ATOM      5  C   UNL d   1     -59.060 -98.839 -44.152  0.00  0.00     0.190 A 
ATOM      6  C   UNL d   1     -58.465 -98.820 -42.710  0.00  0.00     0.128 A 
ATOM      7  N   UNL d   1     -59.360 -98.849 -44.860  0.00  0.00    -0.203 NA
ATOM      8  N   UNL d   1     -59.527 -98.860 -43.536  0.00  0.00    -0.128 NA
ATOM      9  C   UNL d   1     -58.891 -98.828 -45.487  0.00  0.00     0.202 A 
ATOM     10  N   UNL d   1     -58.115 -98.797 -45.389  0.00  0.00    -0.205 NA
ATOM     11  N   UNL d   1     -59.236 -98.851 -42.821  0.00  0.00    -0.145 NA
ENDBRANCH   2   3
ENDBRANCH   1   2
BRANCH   1  12
ATOM     12  C   UNL d   1     -55.716 -98.976 -45.081  0.00  0.00     0.021 C 
BRANCH  12  13
ATOM     13  C   UNL d   1     -55.466 -99.660 -44.703  0.00  0.00     0.004 A 
ATOM     14  C   UNL d   1     -55.703-100.387 -44.991  0.00  0.00     0.026 A 
ATOM     15  C   UNL d   1     -55.453-101.084 -44.612  0.00  0.00     0.116 A 
ATOM     16  C   UNL d   1     -54.967-101.042 -43.947  0.00  0.00     0.116 A 
ATOM     17  C   UNL d   1     -54.728-100.302 -43.656  0.00  0.00     0.026 A 
ATOM     18  C   UNL d   1     -54.978 -99.610 -44.034  0.00  0.00     0.002 A 
BRANCH  15  19
ATOM     19  O   UNL d   1     -55.694-101.825 -44.906  0.00  0.00    -0.326 OA
ATOM     20  C   UNL d   1     -55.168-102.471 -44.891  0.00  0.00     0.181 C 
ENDBRANCH  15  19
BRANCH  16  21
ATOM     21  O   UNL d   1     -54.712-101.739 -43.561  0.00  0.00    -0.326 OA
ATOM     22  C   UNL d   1     -54.955-101.885 -42.779  0.00  0.00     0.181 C 
ENDBRANCH  16  21
ENDBRANCH  12  13
ENDBRANCH   1  12
TORSDOF 6
ENDMDL
MODEL 2
REMARK VINA RESULT:      25.8      5.764      7.476
REMARK  6 active torsions:
REMARK  status: ('A' for Active; 'I' for Inactive)
REMARK    1  A    between atoms: N_13  and  C_4 
REMARK    2  A    between atoms: O_17  and  C_9 
REMARK    3  A    between atoms: O_18  and  C_11 
REMARK    4  A    between atoms: C_19  and  N_13 
REMARK    5  A    between atoms: C_15  and  C_20 
REMARK    6  A    between atoms: C_20  and  C_19 
ROOT
ATOM      1  C   UNL d   1     -55.464-102.058 -36.948  0.00  0.00     0.101 C 
ENDROOT
BRANCH   1   2
ATOM      2  N   UNL d   1     -54.782-101.701 -36.704  0.00  0.00    -0.225 NA
BRANCH   2   3
ATOM      3  C   UNL d   1     -54.795-100.953 -36.395  0.00  0.00     0.169 A 
ATOM      4  C   UNL d   1     -54.783-100.343 -36.867  0.00  0.00     0.094 A 
ATOM      5  C   UNL d   1     -54.796 -99.622 -36.563  0.00  0.00     0.190 A 
ATOM      6  C   UNL d   1     -54.745 -99.816 -38.110  0.00  0.00     0.128 A 
ATOM      7  N   UNL d   1     -54.821 -99.518 -35.801  0.00  0.00    -0.203 NA
ATOM      8  N   UNL d   1     -54.783 -99.008 -37.034  0.00  0.00    -0.128 NA
ATOM      9  C   UNL d   1     -54.834-100.136 -35.320  0.00  0.00     0.202 A 
ATOM     10  N   UNL d   1     -54.821-100.860 -35.619  0.00  0.00    -0.205 NA
ATOM     11  N   UNL d   1     -54.758 -99.101 -37.800  0.00  0.00    -0.145 NA
ENDBRANCH   2   3
ENDBRANCH   1   2
BRANCH   1  12
ATOM     12  C   UNL d   1     -55.441-102.779 -37.348  0.00  0.00     0.021 C 
BRANCH  12  13
ATOM     13  C   UNL d   1     -55.440-102.800 -38.169  0.00  0.00     0.004 A 
ATOM     14  C   UNL d   1     -56.151-102.789 -38.571  0.00  0.00     0.026 A 
ATOM     15  C   UNL d   1     -56.156-102.811 -39.403  0.00  0.00     0.116 A 
ATOM     16  C   UNL d   1     -55.445-102.843 -39.821  0.00  0.00     0.116 A 
ATOM     17  C   UNL d   1     -54.725-102.855 -39.409  0.00  0.00     0.026 A 
ATOM     18  C   UNL d   1     -54.722-102.833 -38.581  0.00  0.00     0.002 A 
BRANCH  15  19
ATOM     19  O   UNL d   1     -56.880-102.799 -39.813  0.00  0.00    -0.326 OA
ATOM     20  C   UNL d   1     -57.598-102.838 -39.392  0.00  0.00     0.181 C 
ENDBRANCH  15  19
BRANCH  16  21
ATOM     21  O   UNL d   1     -55.444-102.865 -40.656  0.00  0.00    -0.326 OA
ATOM     22  C   UNL d   1     -54.736-102.719 -41.067  0.00  0.00     0.181 C 
ENDBRANCH  16  21
ENDBRANCH  12  13
ENDBRANCH   1  12
TORSDOF 6
ENDMDL
