MODEL 1
REMARK VINA RESULT:      -7.8      0.000      0.000
REMARK  4 active torsions:
REMARK  status: ('A' for Active; 'I' for Inactive)
REMARK    1  A    between atoms: N_3  and  C_1 
REMARK       I    between atoms: C_7  and  N_3 
REMARK    2  A    between atoms: S_10  and  C_5 
REMARK    3  A    between atoms: C_9  and  C_7 
REMARK    4  A    between atoms: C_13  and  S_10 
ROOT
ATOM      1  N   UNL d   1      52.702  32.518  53.483  0.00  0.00    -0.181 NA
ATOM      2  C   UNL d   1      53.352  33.024  53.576  0.00  0.00     0.281 C 
ATOM      3  O   UNL d   1      54.132  32.735  53.494  0.00  0.00    -0.265 OA
ENDROOT
BRANCH   1   4
ATOM      4  C   UNL d   1      52.831  31.747  53.312  0.00  0.00     0.219 A 
ATOM      5  S   UNL d   1      53.040  31.098  53.781  0.00  0.00    -0.019 SA
ATOM      6  C   UNL d   1      53.094  30.436  53.290  0.00  0.00     0.165 A 
ATOM      7  N   UNL d   1      52.926  30.663  52.543  0.00  0.00    -0.133 NA
ATOM      8  N   UNL d   1      52.771  31.443  52.560  0.00  0.00    -0.120 NA
BRANCH   6   9
ATOM      9  S   UNL d   1      53.291  29.646  53.512  0.00  0.00    -0.059 SA
BRANCH   9  10
ATOM     10  C   UNL d   1      53.270  29.421  54.271  0.00  0.00     0.037 C 
ATOM     11  C   UNL d   1      53.472  28.659  54.484  0.00  0.00     0.008 C 
ENDBRANCH   9  10
ENDBRANCH   6   9
ENDBRANCH   1   4
BRANCH   2  12
ATOM     12  C   UNL d   1      53.202  33.844  53.757  0.00  0.00     0.058 A 
ATOM     13  C   UNL d   1      52.835  34.351  53.223  0.00  0.00     0.005 A 
ATOM     14  C   UNL d   1      52.703  35.154  53.437  0.00  0.00     0.000 A 
ATOM     15  C   UNL d   1      52.933  35.444  54.170  0.00  0.00     0.000 A 
ATOM     16  C   UNL d   1      53.299  34.946  54.708  0.00  0.00     0.000 A 
ATOM     17  C   UNL d   1      53.436  34.136  54.502  0.00  0.00     0.005 A 
ENDBRANCH   2  12
TORSDOF 4
ENDMDL
MODEL 2
REMARK VINA RESULT:      -7.2      2.707      3.930
REMARK  4 active torsions:
REMARK  status: ('A' for Active; 'I' for Inactive)
REMARK    1  A    between atoms: N_3  and  C_1 
REMARK       I    between atoms: C_7  and  N_3 
REMARK    2  A    between atoms: S_10  and  C_5 
REMARK    3  A    between atoms: C_9  and  C_7 
REMARK    4  A    between atoms: C_13  and  S_10 
ROOT
ATOM      1  N   UNL d   1      52.456  34.182  53.288  0.00  0.00    -0.181 NA
ATOM      2  C   UNL d   1      52.703  33.446  53.578  0.00  0.00     0.281 C 
ATOM      3  O   UNL d   1      52.253  32.758  53.430  0.00  0.00    -0.265 OA
ENDROOT
BRANCH   1   4
ATOM      4  C   UNL d   1      51.779  34.225  52.864  0.00  0.00     0.219 A 
ATOM      5  S   UNL d   1      50.988  34.334  53.081  0.00  0.00    -0.019 SA
ATOM      6  C   UNL d   1      50.531  34.330  52.393  0.00  0.00     0.165 A 
ATOM      7  N   UNL d   1      51.017  34.222  51.769  0.00  0.00    -0.133 NA
ATOM      8  N   UNL d   1      51.758  34.160  52.053  0.00  0.00    -0.120 NA
BRANCH   6   9
ATOM      9  S   UNL d   1      49.694  34.421  52.331  0.00  0.00    -0.059 SA
BRANCH   9  10
ATOM     10  C   UNL d   1      49.356  34.596  51.636  0.00  0.00     0.037 C 
ATOM     11  C   UNL d   1      48.563  34.787  51.598  0.00  0.00     0.008 C 
ENDBRANCH   9  10
ENDBRANCH   6   9
ENDBRANCH   1   4
BRANCH   2  12
ATOM     12  C   UNL d   1      53.426  33.413  54.028  0.00  0.00     0.058 A 
ATOM     13  C   UNL d   1      53.488  33.736  54.783  0.00  0.00     0.005 A 
ATOM     14  C   UNL d   1      54.218  33.684  55.198  0.00  0.00     0.000 A 
ATOM     15  C   UNL d   1      54.872  33.318  54.866  0.00  0.00     0.000 A 
ATOM     16  C   UNL d   1      54.821  32.994  54.114  0.00  0.00     0.000 A 
ATOM     17  C   UNL d   1      54.090  33.041  53.689  0.00  0.00     0.005 A 
ENDBRANCH   2  12
TORSDOF 4
ENDMDL
MODEL 3
REMARK VINA RESULT:      -7.2      1.659      4.337
REMARK  4 active torsions:
REMARK  status: ('A' for Active; 'I' for Inactive)
REMARK    1  A    between atoms: N_3  and  C_1 
REMARK       I    between atoms: C_7  and  N_3 
REMARK    2  A    between atoms: S_10  and  C_5 
REMARK    3  A    between atoms: C_9  and  C_7 
REMARK    4  A    between atoms: C_13  and  S_10 
ROOT
ATOM      1  N   UNL d   1      53.519  32.069  54.530  0.00  0.00    -0.181 NA
ATOM      2  C   UNL d   1      53.653  31.754  53.775  0.00  0.00     0.281 C 
ATOM      3  O   UNL d   1      54.016  32.215  53.181  0.00  0.00    -0.265 OA
ENDROOT
BRANCH   1   4
ATOM      4  C   UNL d   1      53.741  32.822  54.682  0.00  0.00     0.219 A 
ATOM      5  S   UNL d   1      53.366  33.550  54.569  0.00  0.00    -0.019 SA
ATOM      6  C   UNL d   1      53.874  34.145  54.836  0.00  0.00     0.165 A 
ATOM      7  N   UNL d   1      54.542  33.801  55.106  0.00  0.00    -0.133 NA
ATOM      8  N   UNL d   1      54.459  33.014  55.013  0.00  0.00    -0.120 NA
BRANCH   6   9
ATOM      9  S   UNL d   1      53.737  34.977  54.835  0.00  0.00    -0.059 SA
BRANCH   9  10
ATOM     10  C   UNL d   1      53.066  35.277  54.538  0.00  0.00     0.037 C 
ATOM     11  C   UNL d   1      52.927  36.082  54.559  0.00  0.00     0.008 C 
ENDBRANCH   9  10
ENDBRANCH   6   9
ENDBRANCH   1   4
BRANCH   2  12
ATOM     12  C   UNL d   1      53.412  30.950  53.625  0.00  0.00     0.058 A 
ATOM     13  C   UNL d   1      53.674  30.320  54.086  0.00  0.00     0.005 A 
ATOM     14  C   UNL d   1      53.414  29.540  53.908  0.00  0.00     0.000 A 
ATOM     15  C   UNL d   1      52.903  29.392  53.283  0.00  0.00     0.000 A 
ATOM     16  C   UNL d   1      52.637  30.013  52.819  0.00  0.00     0.000 A 
ATOM     17  C   UNL d   1      52.893  30.802  52.991  0.00  0.00     0.005 A 
ENDBRANCH   2  12
TORSDOF 4
ENDMDL
MODEL 4
REMARK VINA RESULT:      -7.1      2.277      3.206
REMARK  4 active torsions:
REMARK  status: ('A' for Active; 'I' for Inactive)
REMARK    1  A    between atoms: N_3  and  C_1 
REMARK       I    between atoms: C_7  and  N_3 
REMARK    2  A    between atoms: S_10  and  C_5 
REMARK    3  A    between atoms: C_9  and  C_7 
REMARK    4  A    between atoms: C_13  and  S_10 
ROOT
ATOM      1  N   UNL d   1      51.724  33.310  53.073  0.00  0.00    -0.181 NA
ATOM      2  C   UNL d   1      51.600  34.031  52.683  0.00  0.00     0.281 C 
ATOM      3  O   UNL d   1      52.244  34.527  52.492  0.00  0.00    -0.265 OA
ENDROOT
BRANCH   1   4
ATOM      4  C   UNL d   1      52.471  33.095  53.265  0.00  0.00     0.219 A 
ATOM      5  S   UNL d   1      52.986  33.336  53.865  0.00  0.00    -0.019 SA
ATOM      6  C   UNL d   1      53.691  32.914  53.782  0.00  0.00     0.165 A 
ATOM      7  N   UNL d   1      53.619  32.428  53.153  0.00  0.00    -0.133 NA
ATOM      8  N   UNL d   1      52.893  32.538  52.848  0.00  0.00    -0.120 NA
BRANCH   6   9
ATOM      9  S   UNL d   1      54.382  32.968  54.263  0.00  0.00    -0.059 SA
BRANCH   9  10
ATOM     10  C   UNL d   1      54.378  33.391  54.932  0.00  0.00     0.037 C 
ATOM     11  C   UNL d   1      55.080  33.598  55.296  0.00  0.00     0.008 C 
ENDBRANCH   9  10
ENDBRANCH   6   9
ENDBRANCH   1   4
BRANCH   2  12
ATOM     12  C   UNL d   1      50.800  34.249  52.485  0.00  0.00     0.058 A 
ATOM     13  C   UNL d   1      50.281  34.567  53.039  0.00  0.00     0.005 A 
ATOM     14  C   UNL d   1      49.498  34.770  52.806  0.00  0.00     0.000 A 
ATOM     15  C   UNL d   1      49.240  34.657  52.036  0.00  0.00     0.000 A 
ATOM     16  C   UNL d   1      49.749  34.341  51.477  0.00  0.00     0.000 A 
ATOM     17  C   UNL d   1      50.539  34.133  51.702  0.00  0.00     0.005 A 
ENDBRANCH   2  12
TORSDOF 4
ENDMDL
MODEL 5
REMARK VINA RESULT:      -6.9      2.218      4.306
REMARK  4 active torsions:
REMARK  status: ('A' for Active; 'I' for Inactive)
REMARK    1  A    between atoms: N_3  and  C_1 
REMARK       I    between atoms: C_7  and  N_3 
REMARK    2  A    between atoms: S_10  and  C_5 
REMARK    3  A    between atoms: C_9  and  C_7 
REMARK    4  A    between atoms: C_13  and  S_10 
ROOT
ATOM      1  N   UNL d   1      52.077  32.603  53.521  0.00  0.00    -0.181 NA
ATOM      2  C   UNL d   1      52.488  32.171  52.945  0.00  0.00     0.281 C 
ATOM      3  O   UNL d   1      52.488  32.418  52.148  0.00  0.00    -0.265 OA
ENDROOT
BRANCH   1   4
ATOM      4  C   UNL d   1      51.679  33.262  53.302  0.00  0.00     0.219 A 
ATOM      5  S   UNL d   1      50.886  33.400  53.113  0.00  0.00    -0.019 SA
ATOM      6  C   UNL d   1      50.803  34.201  52.928  0.00  0.00     0.165 A 
ATOM      7  N   UNL d   1      51.517  34.550  52.999  0.00  0.00    -0.133 NA
ATOM      8  N   UNL d   1      52.036  33.988  53.221  0.00  0.00    -0.120 NA
BRANCH   6   9
ATOM      9  S   UNL d   1      50.098  34.606  52.701  0.00  0.00    -0.059 SA
BRANCH   9  10
ATOM     10  C   UNL d   1      49.754  34.459  52.003  0.00  0.00     0.037 C 
ATOM     11  C   UNL d   1      49.047  34.818  51.806  0.00  0.00     0.008 C 
ENDBRANCH   9  10
ENDBRANCH   6   9
ENDBRANCH   1   4
BRANCH   2  12
ATOM     12  C   UNL d   1      52.907  31.470  53.191  0.00  0.00     0.058 A 
ATOM     13  C   UNL d   1      53.590  31.506  53.650  0.00  0.00     0.005 A 
ATOM     14  C   UNL d   1      53.978  30.793  53.873  0.00  0.00     0.000 A 
ATOM     15  C   UNL d   1      53.689  30.061  53.643  0.00  0.00     0.000 A 
ATOM     16  C   UNL d   1      53.010  30.015  53.186  0.00  0.00     0.000 A 
ATOM     17  C   UNL d   1      52.613  30.727  52.956  0.00  0.00     0.005 A 
ENDBRANCH   2  12
TORSDOF 4
ENDMDL
