MODEL 1
REMARK VINA RESULT:      49.8      0.000      0.000
REMARK  10 active torsions:
REMARK  status: ('A' for Active; 'I' for Inactive)
REMARK    1  A    between atoms: C_16  and  N_1 
REMARK    2  A    between atoms: S_10  and  C_2 
REMARK    3  A    between atoms: N_8  and  C_9 
REMARK    4  A    between atoms: C_18  and  S_10 
REMARK    5  A    between atoms: C_12  and  C_18 
REMARK       I    between atoms: N_19  and  C_12 
REMARK    6  A    between atoms: C_27  and  C_16 
REMARK    7  A    between atoms: C_25  and  N_19 
REMARK    8  A    between atoms: O_22  and  C_26 
REMARK    9  A    between atoms: C_26  and  C_25 
REMARK   10  A    between atoms: C_29  and  C_27 
ROOT
ATOM      1  N   UNL d   1      46.429 -14.894  43.368  0.00  0.00    -0.253 N 
ATOM      2  C   UNL d   1      46.217 -14.702  44.149  0.00  0.00     0.182 A 
ATOM      3  C   UNL d   1      46.425 -15.675  43.116  0.00  0.00     0.268 A 
ATOM      4  C   UNL d   1      46.206 -16.265  43.653  0.00  0.00     0.076 A 
ATOM      5  N   UNL d   1      46.003 -15.291  44.674  0.00  0.00    -0.222 NA
ATOM      6  C   UNL d   1      45.997 -16.075  44.427  0.00  0.00     0.088 A 
ATOM      7  C   UNL d   1      46.204 -17.039  43.396  0.00  0.00     0.024 A 
ATOM      8  C   UNL d   1      45.987 -17.648  43.926  0.00  0.00     0.065 A 
ATOM      9  O   UNL d   1      46.634 -15.865  42.342  0.00  0.00    -0.267 OA
ATOM     10  C   UNL d   1      45.782 -16.668  44.953  0.00  0.00     0.021 A 
ATOM     11  C   UNL d   1      45.777 -17.444  44.705  0.00  0.00     0.019 A 
ENDROOT
BRANCH   2  12
ATOM     12  S   UNL d   1      46.226 -13.902  44.392  0.00  0.00    -0.044 SA
BRANCH  12  13
ATOM     13  C   UNL d   1      45.611 -13.613  44.858  0.00  0.00     0.101 C 
BRANCH  13  14
ATOM     14  C   UNL d   1      45.255 -12.886  44.687  0.00  0.00     0.286 C 
ATOM     15  O   UNL d   1      45.583 -12.188  44.953  0.00  0.00    -0.265 OA
ATOM     16  N   UNL d   1      44.559 -12.855  44.242  0.00  0.00    -0.204 NA
BRANCH  16  17
ATOM     17  C   UNL d   1      44.194 -12.121  44.065  0.00  0.00     0.129 C 
BRANCH  17  18
ATOM     18  C   UNL d   1      43.661 -12.082  43.456  0.00  0.00     0.137 C 
BRANCH  18  19
ATOM     19  O   UNL d   1      43.411 -12.777  43.093  0.00  0.00    -0.325 OA
ATOM     20  C   UNL d   1      43.015 -12.744  42.374  0.00  0.00     0.182 C 
ENDBRANCH  18  19
ENDBRANCH  17  18
ENDBRANCH  16  17
ENDBRANCH  13  14
ENDBRANCH  12  13
ENDBRANCH   2  12
BRANCH   1  21
ATOM     21  C   UNL d   1      46.647 -14.285  42.838  0.00  0.00     0.085 C 
BRANCH  21  22
ATOM     22  C   UNL d   1      46.217 -13.592  42.824  0.00  0.00     0.019 C 
BRANCH  22  23
ATOM     23  C   UNL d   1      46.264 -13.091  42.174  0.00  0.00     0.002 C 
ATOM     24  C   UNL d   1      46.246 -13.404  41.404  0.00  0.00     0.000 C 
ENDBRANCH  22  23
ENDBRANCH  21  22
ENDBRANCH   1  21
BRANCH   8  25
ATOM     25  N   UNL d   1      45.981 -18.432  43.679  0.00  0.00    -0.300 N 
ATOM     26  C   UNL d   1      45.578 -18.633  42.983  0.00  0.00     0.107 A 
ATOM     27  C   UNL d   1      45.575 -19.425  42.738  0.00  0.00     0.142 A 
ATOM     28  O   UNL d   1      45.968 -20.008  43.182  0.00  0.00    -0.300 OA
ATOM     29  C   UNL d   1      46.367 -19.795  43.875  0.00  0.00     0.142 A 
ATOM     30  C   UNL d   1      46.379 -19.008  44.133  0.00  0.00     0.107 A 
ENDBRANCH   8  25
TORSDOF 10
ENDMDL
