MODEL 1
REMARK VINA RESULT:      18.0      0.000      0.000
REMARK  3 active torsions:
REMARK  status: ('A' for Active; 'I' for Inactive)
REMARK    1  A    between atoms: N_2  and  N_1 
REMARK    2  A    between atoms: C_3  and  N_1 
REMARK    3  A    between atoms: C_4  and  N_2 
ROOT
ATOM      1  N   UNL d   1     -54.760-101.840 -38.625  0.00  0.00    -0.148 NA
ENDROOT
BRANCH   1   2
ATOM      2  N   UNL d   1     -54.713-102.565 -39.003  0.00  0.00    -0.148 NA
BRANCH   2   3
ATOM      3  C   UNL d   1     -55.132-102.669 -39.732  0.00  0.00     0.103 A 
ATOM      4  C   UNL d   1     -55.948-102.769 -39.726  0.00  0.00     0.021 A 
ATOM      5  C   UNL d   1     -56.359-102.871 -40.434  0.00  0.00     0.002 A 
ATOM      6  C   UNL d   1     -55.945-102.873 -41.157  0.00  0.00     0.000 A 
ATOM      7  C   UNL d   1     -55.129-102.772 -41.155  0.00  0.00     0.002 A 
ATOM      8  C   UNL d   1     -54.718-102.671 -40.454  0.00  0.00     0.021 A 
ENDBRANCH   2   3
ENDBRANCH   1   2
BRANCH   1   9
ATOM      9  C   UNL d   1     -54.758-101.829 -37.798  0.00  0.00     0.103 A 
ATOM     10  C   UNL d   1     -54.796-102.532 -37.373  0.00  0.00     0.022 A 
ATOM     11  C   UNL d   1     -54.793-102.507 -36.541  0.00  0.00     0.022 A 
ATOM     12  C   UNL d   1     -54.754-101.811 -36.155  0.00  0.00     0.103 A 
ATOM     13  C   UNL d   1     -54.715-101.094 -36.576  0.00  0.00     0.022 A 
ATOM     14  N   UNL d   1     -54.752-101.805 -35.319  0.00  0.00    -0.148 N 
ATOM     15  C   UNL d   1     -54.717-101.105 -37.396  0.00  0.00     0.022 A 
ENDBRANCH   1   9
TORSDOF 3
ENDMDL
MODEL 2
REMARK VINA RESULT:      20.0      6.056      7.166
REMARK  3 active torsions:
REMARK  status: ('A' for Active; 'I' for Inactive)
REMARK    1  A    between atoms: N_2  and  N_1 
REMARK    2  A    between atoms: C_3  and  N_1 
REMARK    3  A    between atoms: C_4  and  N_2 
ROOT
ATOM      1  N   UNL d   1     -56.526 -98.755 -44.592  0.00  0.00    -0.148 NA
ENDROOT
BRANCH   1   2
ATOM      2  N   UNL d   1     -55.988 -99.047 -44.047  0.00  0.00    -0.148 NA
BRANCH   2   3
ATOM      3  C   UNL d   1     -55.563 -99.754 -44.236  0.00  0.00     0.103 A 
ATOM      4  C   UNL d   1     -55.587-100.397 -43.725  0.00  0.00     0.021 A 
ATOM      5  C   UNL d   1     -55.174-101.088 -43.906  0.00  0.00     0.002 A 
ATOM      6  C   UNL d   1     -54.731-101.133 -44.610  0.00  0.00     0.000 A 
ATOM      7  C   UNL d   1     -54.712-100.487 -45.117  0.00  0.00     0.002 A 
ATOM      8  C   UNL d   1     -55.120 -99.800 -44.941  0.00  0.00     0.021 A 
ENDBRANCH   2   3
ENDBRANCH   1   2
BRANCH   1   9
ATOM      9  C   UNL d   1     -57.327 -98.756 -44.390  0.00  0.00     0.103 A 
ATOM     10  C   UNL d   1     -57.904 -98.756 -44.976  0.00  0.00     0.022 A 
ATOM     11  C   UNL d   1     -58.707 -98.756 -44.758  0.00  0.00     0.022 A 
ATOM     12  C   UNL d   1     -58.921 -98.756 -43.990  0.00  0.00     0.103 A 
ATOM     13  C   UNL d   1     -58.345 -98.756 -43.390  0.00  0.00     0.022 A 
ATOM     14  N   UNL d   1     -59.733 -98.756 -43.791  0.00  0.00    -0.148 N 
ATOM     15  C   UNL d   1     -57.550 -98.756 -43.591  0.00  0.00     0.022 A 
ENDBRANCH   1   9
TORSDOF 3
ENDMDL
MODEL 3
REMARK VINA RESULT:      21.0      6.217      7.246
REMARK  3 active torsions:
REMARK  status: ('A' for Active; 'I' for Inactive)
REMARK    1  A    between atoms: N_2  and  N_1 
REMARK    2  A    between atoms: C_3  and  N_1 
REMARK    3  A    between atoms: C_4  and  N_2 
ROOT
ATOM      1  N   UNL d   1     -56.843 -98.755 -44.309  0.00  0.00    -0.148 NA
ENDROOT
BRANCH   1   2
ATOM      2  N   UNL d   1     -57.483 -98.770 -43.798  0.00  0.00    -0.148 NA
BRANCH   2   3
ATOM      3  C   UNL d   1     -58.264 -98.766 -44.128  0.00  0.00     0.103 A 
ATOM      4  C   UNL d   1     -58.919 -98.765 -43.632  0.00  0.00     0.021 A 
ATOM      5  C   UNL d   1     -59.680 -98.761 -43.950  0.00  0.00     0.002 A 
ATOM      6  C   UNL d   1     -59.784 -98.758 -44.776  0.00  0.00     0.000 A 
ATOM      7  C   UNL d   1     -59.124 -98.759 -45.266  0.00  0.00     0.002 A 
ATOM      8  C   UNL d   1     -58.367 -98.763 -44.954  0.00  0.00     0.021 A 
ENDBRANCH   2   3
ENDBRANCH   1   2
BRANCH   1   9
ATOM      9  C   UNL d   1     -56.308 -99.386 -44.284  0.00  0.00     0.103 A 
ATOM     10  C   UNL d   1     -56.577-100.153 -44.167  0.00  0.00     0.022 A 
ATOM     11  C   UNL d   1     -56.029-100.779 -44.145  0.00  0.00     0.022 A 
ATOM     12  C   UNL d   1     -55.249-100.641 -44.236  0.00  0.00     0.103 A 
ATOM     13  C   UNL d   1     -54.967 -99.867 -44.355  0.00  0.00     0.022 A 
ATOM     14  N   UNL d   1     -54.713-101.282 -44.211  0.00  0.00    -0.148 N 
ATOM     15  C   UNL d   1     -55.497 -99.241 -44.379  0.00  0.00     0.022 A 
ENDBRANCH   1   9
TORSDOF 3
ENDMDL
