MODEL 1
REMARK VINA RESULT:      -5.1      0.000      0.000
REMARK  4 active torsions:
REMARK  status: ('A' for Active; 'I' for Inactive)
REMARK    1  A    between atoms: C_2  and  S_1 
REMARK    2  A    between atoms: N_3  and  S_1 
REMARK    3  A    between atoms: C_4  and  C_6 
REMARK       I    between atoms: N_7  and  C_4 
REMARK    4  A    between atoms: C_14  and  N_7 
ROOT
ATOM      1  C   UNL d   1      58.871  -0.937  29.417  0.00  0.00     0.104 A 
ATOM      2  C   UNL d   1      58.328  -0.789  30.017  0.00  0.00     0.018 A 
ATOM      3  C   UNL d   1      58.197  -0.013  30.269  0.00  0.00     0.059 A 
ATOM      4  C   UNL d   1      59.284  -0.318  29.066  0.00  0.00     0.012 A 
ATOM      5  C   UNL d   1      58.609   0.611  29.920  0.00  0.00     0.005 A 
ATOM      6  C   UNL d   1      59.153   0.458  29.318  0.00  0.00     0.001 A 
ATOM      7  C   UNL d   1      59.827  -0.466  28.466  0.00  0.00     0.001 C 
ENDROOT
BRANCH   3   8
ATOM      8  C   UNL d   1      57.656   0.145  30.870  0.00  0.00     0.279 C 
ATOM      9  N   UNL d   1      57.729  -0.229  31.597  0.00  0.00    -0.208 NA
ATOM     10  O   UNL d   1      57.043   0.678  30.739  0.00  0.00    -0.265 OA
BRANCH   9  11
ATOM     11  C   UNL d   1      57.190  -0.075  32.201  0.00  0.00     0.087 A 
ATOM     12  C   UNL d   1      56.503  -0.519  32.252  0.00  0.00     0.045 A 
ATOM     13  C   UNL d   1      55.958  -0.369  32.857  0.00  0.00     0.121 A 
ATOM     14  O   UNL d   1      55.227  -0.715  33.054  0.00  0.00    -0.299 OA
ATOM     15  C   UNL d   1      56.113   0.229  33.404  0.00  0.00     0.119 A 
ATOM     16  C   UNL d   1      54.940  -0.327  33.719  0.00  0.00     0.304 A 
ATOM     17  O   UNL d   1      55.482   0.261  33.945  0.00  0.00    -0.300 OA
ATOM     18  C   UNL d   1      56.813   0.682  33.352  0.00  0.00     0.028 A 
ATOM     19  C   UNL d   1      57.352   0.528  32.748  0.00  0.00     0.021 A 
ENDBRANCH   9  11
ENDBRANCH   3   8
BRANCH   1  20
ATOM     20  S   UNL d   1      59.001  -1.706  29.166  0.00  0.00     0.271 S 
ATOM     21  O   UNL d   1      58.405  -1.623  28.599  0.00  0.00    -0.200 OA
ATOM     22  O   UNL d   1      59.687  -1.802  29.819  0.00  0.00    -0.200 OA
BRANCH  20  23
ATOM     23  N   UNL d   1      59.177  -2.488  28.957  0.00  0.00    -0.229 N 
ATOM     24  C   UNL d   1      58.660  -3.007  28.571  0.00  0.00     0.092 A 
ATOM     25  C   UNL d   1      59.060  -3.722  28.472  0.00  0.00     0.021 A 
ATOM     26  C   UNL d   1      59.818  -3.638  28.797  0.00  0.00     0.021 A 
ATOM     27  C   UNL d   1      59.883  -2.880  29.092  0.00  0.00     0.092 A 
ENDBRANCH  20  23
ENDBRANCH   1  20
TORSDOF 4
ENDMDL
MODEL 2
REMARK VINA RESULT:      -2.9      0.789      1.262
REMARK  4 active torsions:
REMARK  status: ('A' for Active; 'I' for Inactive)
REMARK    1  A    between atoms: C_2  and  S_1 
REMARK    2  A    between atoms: N_3  and  S_1 
REMARK    3  A    between atoms: C_4  and  C_6 
REMARK       I    between atoms: N_7  and  C_4 
REMARK    4  A    between atoms: C_14  and  N_7 
ROOT
ATOM      1  C   UNL d   1      58.660  -0.999  29.744  0.00  0.00     0.104 A 
ATOM      2  C   UNL d   1      58.249  -1.092  30.451  0.00  0.00     0.018 A 
ATOM      3  C   UNL d   1      57.841  -0.451  30.775  0.00  0.00     0.059 A 
ATOM      4  C   UNL d   1      58.666  -0.273  29.358  0.00  0.00     0.012 A 
ATOM      5  C   UNL d   1      57.844   0.279  30.391  0.00  0.00     0.005 A 
ATOM      6  C   UNL d   1      58.257   0.368  29.682  0.00  0.00     0.001 A 
ATOM      7  C   UNL d   1      59.076  -0.181  28.651  0.00  0.00     0.001 C 
ENDROOT
BRANCH   3   8
ATOM      8  C   UNL d   1      57.427  -0.534  31.483  0.00  0.00     0.279 C 
ATOM      9  N   UNL d   1      56.659  -0.249  31.545  0.00  0.00    -0.208 NA
ATOM     10  O   UNL d   1      57.784  -0.902  32.125  0.00  0.00    -0.265 OA
BRANCH   9  11
ATOM     11  C   UNL d   1      56.240  -0.329  32.250  0.00  0.00     0.087 A 
ATOM     12  C   UNL d   1      56.310   0.247  32.828  0.00  0.00     0.045 A 
ATOM     13  C   UNL d   1      55.892   0.172  33.539  0.00  0.00     0.121 A 
ATOM     14  O   UNL d   1      55.847   0.652  34.218  0.00  0.00    -0.299 OA
ATOM     15  C   UNL d   1      55.407  -0.484  33.657  0.00  0.00     0.119 A 
ATOM     16  C   UNL d   1      55.336   0.286  34.747  0.00  0.00     0.304 A 
ATOM     17  O   UNL d   1      55.056  -0.421  34.409  0.00  0.00    -0.300 OA
ATOM     18  C   UNL d   1      55.335  -1.072  33.068  0.00  0.00     0.028 A 
ATOM     19  C   UNL d   1      55.754  -0.992  32.363  0.00  0.00     0.021 A 
ENDBRANCH   9  11
ENDBRANCH   3   8
BRANCH   1  20
ATOM     20  S   UNL d   1      59.065  -1.634  29.423  0.00  0.00     0.271 S 
ATOM     21  O   UNL d   1      59.760  -1.376  29.789  0.00  0.00    -0.200 OA
ATOM     22  O   UNL d   1      58.265  -1.932  29.002  0.00  0.00    -0.200 OA
BRANCH  20  23
ATOM     23  N   UNL d   1      59.422  -2.294  29.072  0.00  0.00    -0.229 N 
ATOM     24  C   UNL d   1      60.182  -2.310  28.746  0.00  0.00     0.092 A 
ATOM     25  C   UNL d   1      60.311  -3.073  28.459  0.00  0.00     0.021 A 
ATOM     26  C   UNL d   1      59.630  -3.521  28.611  0.00  0.00     0.021 A 
ATOM     27  C   UNL d   1      59.089  -3.038  28.986  0.00  0.00     0.092 A 
ENDBRANCH  20  23
ENDBRANCH   1  20
TORSDOF 4
ENDMDL
