MODEL 1
REMARK VINA RESULT:      -2.3      0.000      0.000
REMARK  9 active torsions:
REMARK  status: ('A' for Active; 'I' for Inactive)
REMARK    1  A    between atoms: N_6  and  C_1 
REMARK    2  A    between atoms: N_2  and  C_10 
REMARK    3  A    between atoms: C_3  and  N_6 
REMARK    4  A    between atoms: N_4  and  C_3 
REMARK       I    between atoms: C_7  and  N_4 
REMARK    5  A    between atoms: C_12  and  C_7 
REMARK    6  A    between atoms: C_11  and  C_8 
REMARK    7  A    between atoms: C_15  and  C_11 
REMARK    8  A    between atoms: O_21  and  C_15 
REMARK    9  A    between atoms: C_25  and  O_21 
ROOT
ATOM      1  C   UNL d   1      33.083  19.765 -22.189  0.00  0.00     0.277 C 
ATOM      2  S   UNL d   1      33.241  19.349 -21.487  0.00  0.00    -0.023 SA
ENDROOT
BRANCH   1   3
ATOM      3  N   UNL d   1      32.910  19.347 -22.879  0.00  0.00    -0.347 NA
BRANCH   3   4
ATOM      4  C   UNL d   1      32.746  18.926 -23.569  0.00  0.00     0.248 A 
ATOM      5  N   UNL d   1      32.064  18.466 -23.721  0.00  0.00    -0.210 NA
ATOM      6  C   UNL d   1      32.138  18.147 -24.480  0.00  0.00     0.096 A 
ATOM      7  C   UNL d   1      32.855  18.405 -24.796  0.00  0.00     0.059 A 
ATOM      8  S   UNL d   1      33.230  18.883 -24.239  0.00  0.00    -0.033 SA
BRANCH   6   9
ATOM      9  C   UNL d   1      31.587  17.656 -24.852  0.00  0.00     0.088 C 
BRANCH   9  10
ATOM     10  C   UNL d   1      31.575  16.849 -24.690  0.00  0.00     0.302 C 
ATOM     11  O   UNL d   1      32.196  16.372 -24.954  0.00  0.00    -0.259 OA
BRANCH  10  12
ATOM     12  O   UNL d   1      30.948  16.520 -24.266  0.00  0.00    -0.271 OA
BRANCH  12  13
ATOM     13  C   UNL d   1      30.562  15.852 -24.553  0.00  0.00     0.126 C 
ATOM     14  C   UNL d   1      29.785  15.692 -24.323  0.00  0.00     0.029 C 
ENDBRANCH  12  13
ENDBRANCH  10  12
ENDBRANCH   9  10
ENDBRANCH   6   9
ENDBRANCH   3   4
ENDBRANCH   1   3
BRANCH   1  15
ATOM     15  N   UNL d   1      33.102  20.590 -22.189  0.00  0.00    -0.168 NA
ATOM     16  C   UNL d   1      32.795  21.015 -21.550  0.00  0.00     0.282 C 
ATOM     17  O   UNL d   1      32.467  20.613 -20.906  0.00  0.00    -0.265 OA
BRANCH  16  18
ATOM     18  C   UNL d   1      32.813  21.840 -21.549  0.00  0.00     0.060 A 
ATOM     19  C   UNL d   1      32.698  22.261 -22.254  0.00  0.00     0.028 A 
ATOM     20  C   UNL d   1      32.717  23.082 -22.251  0.00  0.00     0.127 A 
ATOM     21  C   UNL d   1      32.849  23.494 -21.551  0.00  0.00     0.024 A 
ATOM     22  C   UNL d   1      32.964  23.076 -20.848  0.00  0.00     0.002 A 
ATOM     23  C   UNL d   1      32.946  22.244 -20.844  0.00  0.00     0.005 A 
BRANCH  20  24
ATOM     24  N   UNL d   1      32.601  23.490 -22.962  0.00  0.00    -0.114 N 
ATOM     25  O   UNL d   1      33.240  23.702 -23.436  0.00  0.00    -0.532 OA
ATOM     26  O   UNL d   1      31.834  23.685 -23.196  0.00  0.00    -0.532 OA
ENDBRANCH  20  24
ENDBRANCH  16  18
ENDBRANCH   1  15
TORSDOF 9
ENDMDL
MODEL 2
REMARK VINA RESULT:      -1.3      1.522      2.108
REMARK  9 active torsions:
REMARK  status: ('A' for Active; 'I' for Inactive)
REMARK    1  A    between atoms: N_6  and  C_1 
REMARK    2  A    between atoms: N_2  and  C_10 
REMARK    3  A    between atoms: C_3  and  N_6 
REMARK    4  A    between atoms: N_4  and  C_3 
REMARK       I    between atoms: C_7  and  N_4 
REMARK    5  A    between atoms: C_12  and  C_7 
REMARK    6  A    between atoms: C_11  and  C_8 
REMARK    7  A    between atoms: C_15  and  C_11 
REMARK    8  A    between atoms: O_21  and  C_15 
REMARK    9  A    between atoms: C_25  and  O_21 
ROOT
ATOM      1  C   UNL d   1      33.132  19.216 -23.927  0.00  0.00     0.277 C 
ATOM      2  S   UNL d   1      33.193  19.787 -24.528  0.00  0.00    -0.023 SA
ENDROOT
BRANCH   1   3
ATOM      3  N   UNL d   1      32.963  18.434 -24.126  0.00  0.00    -0.347 NA
BRANCH   3   4
ATOM      4  C   UNL d   1      32.786  17.652 -24.320  0.00  0.00     0.248 A 
ATOM      5  N   UNL d   1      32.160  17.192 -24.010  0.00  0.00    -0.210 NA
ATOM      6  C   UNL d   1      32.196  16.445 -24.362  0.00  0.00     0.096 A 
ATOM      7  C   UNL d   1      32.835  16.440 -24.883  0.00  0.00     0.059 A 
ATOM      8  S   UNL d   1      33.199  17.179 -24.860  0.00  0.00    -0.033 SA
BRANCH   6   9
ATOM      9  C   UNL d   1      31.679  15.817 -24.214  0.00  0.00     0.088 C 
BRANCH   9  10
ATOM     10  C   UNL d   1      30.883  15.963 -24.064  0.00  0.00     0.302 C 
ATOM     11  O   UNL d   1      30.410  16.288 -24.658  0.00  0.00    -0.259 OA
BRANCH  10  12
ATOM     12  O   UNL d   1      30.560  15.784 -23.326  0.00  0.00    -0.271 OA
BRANCH  12  13
ATOM     13  C   UNL d   1      29.744  15.741 -23.232  0.00  0.00     0.126 C 
ATOM     14  C   UNL d   1      29.422  15.467 -22.522  0.00  0.00     0.029 C 
ENDBRANCH  12  13
ENDBRANCH  10  12
ENDBRANCH   9  10
ENDBRANCH   6   9
ENDBRANCH   3   4
ENDBRANCH   1   3
BRANCH   1  15
ATOM     15  N   UNL d   1      33.239  19.438 -23.140  0.00  0.00    -0.168 NA
ATOM     16  C   UNL d   1      32.851  20.101 -22.834  0.00  0.00     0.282 C 
ATOM     17  O   UNL d   1      32.351  20.546 -23.319  0.00  0.00    -0.265 OA
BRANCH  16  18
ATOM     18  C   UNL d   1      32.959  20.323 -22.047  0.00  0.00     0.060 A 
ATOM     19  C   UNL d   1      32.897  21.119 -21.825  0.00  0.00     0.028 A 
ATOM     20  C   UNL d   1      33.005  21.338 -21.041  0.00  0.00     0.127 A 
ATOM     21  C   UNL d   1      33.174  20.771 -20.469  0.00  0.00     0.024 A 
ATOM     22  C   UNL d   1      33.236  19.977 -20.688  0.00  0.00     0.002 A 
ATOM     23  C   UNL d   1      33.128  19.749 -21.481  0.00  0.00     0.005 A 
BRANCH  20  24
ATOM     24  N   UNL d   1      32.940  22.137 -20.833  0.00  0.00    -0.114 N 
ATOM     25  O   UNL d   1      32.644  22.359 -20.098  0.00  0.00    -0.532 OA
ATOM     26  O   UNL d   1      33.177  22.714 -21.373  0.00  0.00    -0.532 OA
ENDBRANCH  20  24
ENDBRANCH  16  18
ENDBRANCH   1  15
TORSDOF 9
ENDMDL
MODEL 3
REMARK VINA RESULT:      -0.3      2.051      3.278
REMARK  9 active torsions:
REMARK  status: ('A' for Active; 'I' for Inactive)
REMARK    1  A    between atoms: N_6  and  C_1 
REMARK    2  A    between atoms: N_2  and  C_10 
REMARK    3  A    between atoms: C_3  and  N_6 
REMARK    4  A    between atoms: N_4  and  C_3 
REMARK       I    between atoms: C_7  and  N_4 
REMARK    5  A    between atoms: C_12  and  C_7 
REMARK    6  A    between atoms: C_11  and  C_8 
REMARK    7  A    between atoms: C_15  and  C_11 
REMARK    8  A    between atoms: O_21  and  C_15 
REMARK    9  A    between atoms: C_25  and  O_21 
ROOT
ATOM      1  C   UNL d   1      32.216  17.629 -23.738  0.00  0.00     0.277 C 
ATOM      2  S   UNL d   1      32.856  17.119 -23.882  0.00  0.00    -0.023 SA
ENDROOT
BRANCH   1   3
ATOM      3  N   UNL d   1      31.466  17.426 -24.013  0.00  0.00    -0.347 NA
BRANCH   3   4
ATOM      4  C   UNL d   1      30.715  17.231 -24.295  0.00  0.00     0.248 A 
ATOM      5  N   UNL d   1      30.232  16.602 -24.028  0.00  0.00    -0.210 NA
ATOM      6  C   UNL d   1      29.531  16.618 -24.467  0.00  0.00     0.096 A 
ATOM      7  C   UNL d   1      29.578  17.246 -24.998  0.00  0.00     0.059 A 
ATOM      8  S   UNL d   1      30.303  17.625 -24.895  0.00  0.00    -0.033 SA
BRANCH   6   9
ATOM      9  C   UNL d   1      28.898  16.093 -24.383  0.00  0.00     0.088 C 
BRANCH   9  10
ATOM     10  C   UNL d   1      28.571  15.955 -23.641  0.00  0.00     0.302 C 
ATOM     11  O   UNL d   1      28.958  15.453 -23.111  0.00  0.00    -0.259 OA
BRANCH  10  12
ATOM     12  O   UNL d   1      27.860  16.317 -23.428  0.00  0.00    -0.271 OA
BRANCH  12  13
ATOM     13  C   UNL d   1      27.209  15.857 -23.220  0.00  0.00     0.126 C 
ATOM     14  C   UNL d   1      26.450  16.180 -23.243  0.00  0.00     0.029 C 
ENDBRANCH  12  13
ENDBRANCH  10  12
ENDBRANCH   9  10
ENDBRANCH   6   9
ENDBRANCH   3   4
ENDBRANCH   1   3
BRANCH   1  15
ATOM     15  N   UNL d   1      32.338  18.331 -23.323  0.00  0.00    -0.168 NA
ATOM     16  C   UNL d   1      32.849  18.910 -23.620  0.00  0.00     0.282 C 
ATOM     17  O   UNL d   1      33.240  18.786 -24.338  0.00  0.00    -0.265 OA
BRANCH  16  18
ATOM     18  C   UNL d   1      32.971  19.613 -23.205  0.00  0.00     0.060 A 
ATOM     19  C   UNL d   1      33.025  19.605 -22.378  0.00  0.00     0.028 A 
ATOM     20  C   UNL d   1      33.147  20.305 -21.966  0.00  0.00     0.127 A 
ATOM     21  C   UNL d   1      33.217  21.019 -22.369  0.00  0.00     0.024 A 
ATOM     22  C   UNL d   1      33.163  21.029 -23.194  0.00  0.00     0.002 A 
ATOM     23  C   UNL d   1      33.040  20.322 -23.616  0.00  0.00     0.005 A 
BRANCH  20  24
ATOM     24  N   UNL d   1      33.199  20.283 -21.140  0.00  0.00    -0.114 N 
ATOM     25  O   UNL d   1      33.209  19.565 -20.737  0.00  0.00    -0.532 OA
ATOM     26  O   UNL d   1      33.241  20.991 -20.719  0.00  0.00    -0.532 OA
ENDBRANCH  20  24
ENDBRANCH  16  18
ENDBRANCH   1  15
TORSDOF 9
ENDMDL
