MODEL 1
REMARK VINA RESULT:      64.9      0.000      0.000
REMARK  5 active torsions:
REMARK  status: ('A' for Active; 'I' for Inactive)
REMARK    1  A    between atoms: S_3  and  C_1 
REMARK    2  A    between atoms: C_7  and  S_3 
REMARK    3  A    between atoms: N_11  and  C_4 
REMARK    4  A    between atoms: C_10  and  C_5 
REMARK    5  A    between atoms: C_24  and  N_11 
ROOT
ATOM      1  C   UNL d   1      45.592 -17.998  40.275  0.00  0.00     0.042 A 
ATOM      2  C   UNL d   1      46.293 -18.440  40.300  0.00  0.00     0.006 A 
ATOM      3  C   UNL d   1      45.062 -18.002  40.894  0.00  0.00     0.006 A 
ATOM      4  C   UNL d   1      45.918 -18.904  41.604  0.00  0.00     0.094 A 
ATOM      5  C   UNL d   1      46.455 -18.898  40.974  0.00  0.00     0.024 A 
ATOM      6  C   UNL d   1      45.222 -18.456  41.564  0.00  0.00     0.024 A 
ATOM      7  O   UNL d   1      46.099 -19.372  42.276  0.00  0.00    -0.328 OA
ATOM      8  C   UNL d   1      46.262 -19.830  42.950  0.00  0.00     0.181 C 
ENDROOT
BRANCH   1   9
ATOM      9  C   UNL d   1      45.423 -17.536  39.601  0.00  0.00     0.186 A 
ATOM     10  N   UNL d   1      45.861 -16.867  39.398  0.00  0.00    -0.206 NA
ATOM     11  C   UNL d   1      45.536 -16.550  38.700  0.00  0.00     0.224 A 
ATOM     12  C   UNL d   1      44.905 -17.029  38.486  0.00  0.00     0.265 A 
ATOM     13  O   UNL d   1      44.823 -17.637  39.029  0.00  0.00    -0.260 OA
BRANCH  11  14
ATOM     14  S   UNL d   1      45.713 -15.908  38.229  0.00  0.00     0.231 S 
ATOM     15  O   UNL d   1      46.359 -16.520  38.103  0.00  0.00    -0.215 OA
ATOM     16  O   UNL d   1      45.110 -15.299  38.326  0.00  0.00    -0.215 OA
BRANCH  14  17
ATOM     17  C   UNL d   1      45.898 -15.251  37.744  0.00  0.00     0.090 A 
ATOM     18  C   UNL d   1      46.469 -15.312  37.169  0.00  0.00     0.012 A 
ATOM     19  C   UNL d   1      46.645 -14.664  36.698  0.00  0.00     0.007 A 
ATOM     20  C   UNL d   1      46.243 -13.962  36.811  0.00  0.00     0.035 A 
ATOM     21  C   UNL d   1      45.662 -13.889  37.390  0.00  0.00     0.007 A 
ATOM     22 BR   UNL d   1      46.419 -13.294  36.330  0.00  0.00    -0.049 Br
ATOM     23  C   UNL d   1      45.487 -14.537  37.861  0.00  0.00     0.012 A 
ENDBRANCH  14  17
ENDBRANCH  11  14
BRANCH  12  24
ATOM     24  N   UNL d   1      44.443 -16.882  37.811  0.00  0.00    -0.373 NA
BRANCH  24  25
ATOM     25  C   UNL d   1      43.852 -16.652  37.292  0.00  0.00     0.164 C 
ATOM     26  C   UNL d   1      43.404 -16.799  36.615  0.00  0.00     0.037 C 
ENDBRANCH  24  25
ENDBRANCH  12  24
ENDBRANCH   1   9
TORSDOF 5
ENDMDL
MODEL 2
REMARK VINA RESULT:      66.6      2.493      5.210
REMARK  5 active torsions:
REMARK  status: ('A' for Active; 'I' for Inactive)
REMARK    1  A    between atoms: S_3  and  C_1 
REMARK    2  A    between atoms: C_7  and  S_3 
REMARK    3  A    between atoms: N_11  and  C_4 
REMARK    4  A    between atoms: C_10  and  C_5 
REMARK    5  A    between atoms: C_24  and  N_11 
ROOT
ATOM      1  C   UNL d   1      44.602 -16.703  38.608  0.00  0.00     0.042 A 
ATOM      2  C   UNL d   1      44.944 -16.547  37.869  0.00  0.00     0.006 A 
ATOM      3  C   UNL d   1      43.890 -16.372  38.828  0.00  0.00     0.006 A 
ATOM      4  C   UNL d   1      43.826 -15.702  37.564  0.00  0.00     0.094 A 
ATOM      5  C   UNL d   1      44.548 -16.039  37.343  0.00  0.00     0.024 A 
ATOM      6  C   UNL d   1      43.497 -15.868  38.307  0.00  0.00     0.024 A 
ATOM      7  O   UNL d   1      43.442 -15.192  37.020  0.00  0.00    -0.328 OA
ATOM      8  C   UNL d   1      43.047 -14.685  36.494  0.00  0.00     0.181 C 
ENDROOT
BRANCH   1   9
ATOM      9  C   UNL d   1      44.993 -17.212  39.141  0.00  0.00     0.186 A 
ATOM     10  N   UNL d   1      44.977 -17.099  39.957  0.00  0.00    -0.206 NA
ATOM     11  C   UNL d   1      45.423 -17.707  40.310  0.00  0.00     0.224 A 
ATOM     12  C   UNL d   1      45.706 -18.183  39.704  0.00  0.00     0.265 A 
ATOM     13  O   UNL d   1      45.450 -17.892  38.982  0.00  0.00    -0.260 OA
BRANCH  11  14
ATOM     14  S   UNL d   1      45.616 -17.902  41.078  0.00  0.00     0.231 S 
ATOM     15  O   UNL d   1      44.721 -17.944  41.006  0.00  0.00    -0.215 OA
ATOM     16  O   UNL d   1      46.471 -17.871  41.182  0.00  0.00    -0.215 OA
BRANCH  14  17
ATOM     17  C   UNL d   1      45.809 -18.102  41.868  0.00  0.00     0.090 A 
ATOM     18  C   UNL d   1      46.165 -17.556  42.354  0.00  0.00     0.012 A 
ATOM     19  C   UNL d   1      46.351 -17.760  43.127  0.00  0.00     0.007 A 
ATOM     20  C   UNL d   1      46.178 -18.511  43.400  0.00  0.00     0.035 A 
ATOM     21  C   UNL d   1      45.819 -19.070  42.915  0.00  0.00     0.007 A 
ATOM     22 BR   UNL d   1      46.368 -18.724  44.191  0.00  0.00    -0.049 Br
ATOM     23  C   UNL d   1      45.632 -18.866  42.143  0.00  0.00     0.012 A 
ENDBRANCH  14  17
ENDBRANCH  11  14
BRANCH  12  24
ATOM     24  N   UNL d   1      46.178 -18.852  39.847  0.00  0.00    -0.373 NA
BRANCH  24  25
ATOM     25  C   UNL d   1      46.601 -19.551  39.778  0.00  0.00     0.164 C 
ATOM     26  C   UNL d   1      46.647 -20.330  39.512  0.00  0.00     0.037 C 
ENDBRANCH  24  25
ENDBRANCH  12  24
ENDBRANCH   1   9
TORSDOF 5
ENDMDL
