MODEL 1
REMARK VINA RESULT:      -7.7      0.000      0.000
REMARK  5 active torsions:
REMARK  status: ('A' for Active; 'I' for Inactive)
REMARK    1  A    between atoms: N_3  and  C_1 
REMARK       I    between atoms: C_6  and  N_3 
REMARK    2  A    between atoms: C_9  and  C_6 
REMARK    3  A    between atoms: C_12  and  C_7 
REMARK    4  A    between atoms: S_8  and  C_9 
REMARK    5  A    between atoms: C_11  and  S_8 
ROOT
ATOM      1  N   UNL d   1      53.475  31.378  53.419  0.00  0.00    -0.181 NA
ATOM      2  C   UNL d   1      52.878  31.928  53.279  0.00  0.00     0.287 C 
ATOM      3  O   UNL d   1      52.101  31.672  53.205  0.00  0.00    -0.265 OA
ENDROOT
BRANCH   2   4
ATOM      4  C   UNL d   1      53.062  32.728  53.214  0.00  0.00     0.087 C 
ATOM      5  C   UNL d   1      53.808  32.958  52.963  0.00  0.00     0.012 C 
BRANCH   4   6
ATOM      6  S   UNL d   1      52.488  33.294  53.404  0.00  0.00    -0.082 SA
BRANCH   6   7
ATOM      7  C   UNL d   1      52.707  34.006  53.726  0.00  0.00     0.030 A 
ATOM      8  C   UNL d   1      52.937  34.045  54.517  0.00  0.00     0.006 A 
ATOM      9  C   UNL d   1      53.162  34.772  54.847  0.00  0.00     0.001 A 
ATOM     10  C   UNL d   1      53.150  35.452  54.374  0.00  0.00     0.000 A 
ATOM     11  C   UNL d   1      52.921  35.409  53.590  0.00  0.00     0.001 A 
ATOM     12  C   UNL d   1      52.696  34.687  53.254  0.00  0.00     0.006 A 
ENDBRANCH   6   7
ENDBRANCH   4   6
ENDBRANCH   2   4
BRANCH   1  13
ATOM     13  C   UNL d   1      53.299  30.579  53.485  0.00  0.00     0.219 A 
ATOM     14  S   UNL d   1      53.510  30.083  54.108  0.00  0.00    -0.026 SA
ATOM     15  C   UNL d   1      53.219  29.327  53.945  0.00  0.00     0.135 A 
ATOM     16  N   UNL d   1      52.828  29.360  53.218  0.00  0.00    -0.139 NA
ATOM     17  N   UNL d   1      52.877  30.132  52.934  0.00  0.00    -0.121 NA
BRANCH  15  18
ATOM     18  C   UNL d   1      53.302  28.657  54.419  0.00  0.00     0.028 C 
ATOM     19  C   UNL d   1      53.344  28.745  55.242  0.00  0.00     0.002 C 
ENDBRANCH  15  18
ENDBRANCH   1  13
TORSDOF 5
ENDMDL
MODEL 2
REMARK VINA RESULT:      -7.3      2.909      4.500
REMARK  5 active torsions:
REMARK  status: ('A' for Active; 'I' for Inactive)
REMARK    1  A    between atoms: N_3  and  C_1 
REMARK       I    between atoms: C_6  and  N_3 
REMARK    2  A    between atoms: C_9  and  C_6 
REMARK    3  A    between atoms: C_12  and  C_7 
REMARK    4  A    between atoms: S_8  and  C_9 
REMARK    5  A    between atoms: C_11  and  S_8 
ROOT
ATOM      1  N   UNL d   1      51.261  34.509  52.679  0.00  0.00    -0.181 NA
ATOM      2  C   UNL d   1      51.534  33.902  53.166  0.00  0.00     0.287 C 
ATOM      3  O   UNL d   1      51.010  33.324  53.424  0.00  0.00    -0.265 OA
ENDROOT
BRANCH   2   4
ATOM      4  C   UNL d   1      52.326  33.877  53.390  0.00  0.00     0.087 C 
ATOM      5  C   UNL d   1      52.798  34.541  53.299  0.00  0.00     0.012 C 
BRANCH   4   6
ATOM      6  S   UNL d   1      52.638  33.178  53.705  0.00  0.00    -0.082 SA
BRANCH   6   7
ATOM      7  C   UNL d   1      53.390  33.167  54.011  0.00  0.00     0.030 A 
ATOM      8  C   UNL d   1      53.517  33.389  54.795  0.00  0.00     0.006 A 
ATOM      9  C   UNL d   1      54.285  33.378  55.108  0.00  0.00     0.001 A 
ATOM     10  C   UNL d   1      54.916  33.144  54.626  0.00  0.00     0.000 A 
ATOM     11  C   UNL d   1      54.785  32.925  53.848  0.00  0.00     0.001 A 
ATOM     12  C   UNL d   1      54.022  32.933  53.529  0.00  0.00     0.006 A 
ENDBRANCH   6   7
ENDBRANCH   4   6
ENDBRANCH   2   4
BRANCH   1  13
ATOM     13  C   UNL d   1      50.473  34.540  52.452  0.00  0.00     0.219 A 
ATOM     14  S   UNL d   1      50.177  34.397  51.698  0.00  0.00    -0.026 SA
ATOM     15  C   UNL d   1      49.357  34.489  51.720  0.00  0.00     0.135 A 
ATOM     16  N   UNL d   1      49.148  34.689  52.495  0.00  0.00    -0.139 NA
ATOM     17  N   UNL d   1      49.836  34.720  52.947  0.00  0.00    -0.121 NA
BRANCH  15  18
ATOM     18  C   UNL d   1      48.835  34.398  51.088  0.00  0.00     0.028 C 
ATOM     19  C   UNL d   1      48.169  34.888  51.039  0.00  0.00     0.002 C 
ENDBRANCH  15  18
ENDBRANCH   1  13
TORSDOF 5
ENDMDL
MODEL 3
REMARK VINA RESULT:      -7.2      1.837      4.524
REMARK  5 active torsions:
REMARK  status: ('A' for Active; 'I' for Inactive)
REMARK    1  A    between atoms: N_3  and  C_1 
REMARK       I    between atoms: C_6  and  N_3 
REMARK    2  A    between atoms: C_9  and  C_6 
REMARK    3  A    between atoms: C_12  and  C_7 
REMARK    4  A    between atoms: S_8  and  C_9 
REMARK    5  A    between atoms: C_11  and  S_8 
ROOT
ATOM      1  N   UNL d   1      52.345  32.968  53.551  0.00  0.00    -0.181 NA
ATOM      2  C   UNL d   1      52.734  32.450  53.040  0.00  0.00     0.287 C 
ATOM      3  O   UNL d   1      52.633  32.530  52.229  0.00  0.00    -0.265 OA
ENDROOT
BRANCH   2   4
ATOM      4  C   UNL d   1      53.219  31.858  53.345  0.00  0.00     0.087 C 
ATOM      5  C   UNL d   1      53.634  31.985  54.040  0.00  0.00     0.012 C 
BRANCH   4   6
ATOM      6  S   UNL d   1      53.281  31.137  52.942  0.00  0.00    -0.082 SA
BRANCH   6   7
ATOM      7  C   UNL d   1      53.225  30.436  53.348  0.00  0.00     0.030 A 
ATOM      8  C   UNL d   1      53.850  30.187  53.824  0.00  0.00     0.006 A 
ATOM      9  C   UNL d   1      53.793  29.470  54.239  0.00  0.00     0.001 A 
ATOM     10  C   UNL d   1      53.105  29.015  54.168  0.00  0.00     0.000 A 
ATOM     11  C   UNL d   1      52.487  29.266  53.694  0.00  0.00     0.001 A 
ATOM     12  C   UNL d   1      52.537  29.979  53.277  0.00  0.00     0.006 A 
ENDBRANCH   6   7
ENDBRANCH   4   6
ENDBRANCH   2   4
BRANCH   1  13
ATOM     13  C   UNL d   1      51.860  33.560  53.255  0.00  0.00     0.219 A 
ATOM     14  S   UNL d   1      51.037  33.558  53.248  0.00  0.00    -0.026 SA
ATOM     15  C   UNL d   1      50.780  34.262  52.899  0.00  0.00     0.135 A 
ATOM     16  N   UNL d   1      51.451  34.698  52.691  0.00  0.00    -0.139 NA
ATOM     17  N   UNL d   1      52.117  34.266  52.911  0.00  0.00    -0.121 NA
BRANCH  15  18
ATOM     18  C   UNL d   1      49.998  34.492  52.778  0.00  0.00     0.028 C 
ATOM     19  C   UNL d   1      49.701  34.528  52.006  0.00  0.00     0.002 C 
ENDBRANCH  15  18
ENDBRANCH   1  13
TORSDOF 5
ENDMDL
MODEL 4
REMARK VINA RESULT:      -6.8      2.612      3.612
REMARK  5 active torsions:
REMARK  status: ('A' for Active; 'I' for Inactive)
REMARK    1  A    between atoms: N_3  and  C_1 
REMARK       I    between atoms: C_6  and  N_3 
REMARK    2  A    between atoms: C_9  and  C_6 
REMARK    3  A    between atoms: C_12  and  C_7 
REMARK    4  A    between atoms: S_8  and  C_9 
REMARK    5  A    between atoms: C_11  and  S_8 
ROOT
ATOM      1  N   UNL d   1      52.647  33.961  53.203  0.00  0.00    -0.181 NA
ATOM      2  C   UNL d   1      51.939  33.564  53.059  0.00  0.00     0.287 C 
ATOM      3  O   UNL d   1      51.857  32.783  53.299  0.00  0.00    -0.265 OA
ENDROOT
BRANCH   2   4
ATOM      4  C   UNL d   1      51.320  33.951  52.678  0.00  0.00     0.087 C 
ATOM      5  C   UNL d   1      51.465  34.384  51.996  0.00  0.00     0.012 C 
BRANCH   4   6
ATOM      6  S   UNL d   1      50.555  33.899  52.989  0.00  0.00    -0.082 SA
BRANCH   6   7
ATOM      7  C   UNL d   1      49.953  34.342  52.671  0.00  0.00     0.030 A 
ATOM      8  C   UNL d   1      49.710  34.206  51.894  0.00  0.00     0.006 A 
ATOM      9  C   UNL d   1      49.095  34.659  51.569  0.00  0.00     0.001 A 
ATOM     10  C   UNL d   1      48.734  35.244  52.031  0.00  0.00     0.000 A 
ATOM     11  C   UNL d   1      48.979  35.374  52.801  0.00  0.00     0.001 A 
ATOM     12  C   UNL d   1      49.591  34.927  53.133  0.00  0.00     0.006 A 
ENDBRANCH   6   7
ENDBRANCH   4   6
ENDBRANCH   2   4
BRANCH   1  13
ATOM     13  C   UNL d   1      53.268  33.582  53.583  0.00  0.00     0.219 A 
ATOM     14  S   UNL d   1      53.554  33.749  54.336  0.00  0.00    -0.026 SA
ATOM     15  C   UNL d   1      54.180  33.234  54.496  0.00  0.00     0.135 A 
ATOM     16  N   UNL d   1      54.279  32.748  53.834  0.00  0.00    -0.139 NA
ATOM     17  N   UNL d   1      53.717  32.962  53.271  0.00  0.00    -0.121 NA
BRANCH  15  18
ATOM     18  C   UNL d   1      54.629  33.206  55.187  0.00  0.00     0.028 C 
ATOM     19  C   UNL d   1      55.210  33.781  55.316  0.00  0.00     0.002 C 
ENDBRANCH  15  18
ENDBRANCH   1  13
TORSDOF 5
ENDMDL
MODEL 5
REMARK VINA RESULT:      -6.7      1.499      4.606
REMARK  5 active torsions:
REMARK  status: ('A' for Active; 'I' for Inactive)
REMARK    1  A    between atoms: N_3  and  C_1 
REMARK       I    between atoms: C_6  and  N_3 
REMARK    2  A    between atoms: C_9  and  C_6 
REMARK    3  A    between atoms: C_12  and  C_7 
REMARK    4  A    between atoms: S_8  and  C_9 
REMARK    5  A    between atoms: C_11  and  S_8 
ROOT
ATOM      1  N   UNL d   1      52.854  33.020  53.960  0.00  0.00    -0.181 NA
ATOM      2  C   UNL d   1      53.357  32.574  53.482  0.00  0.00     0.287 C 
ATOM      3  O   UNL d   1      54.104  32.865  53.299  0.00  0.00    -0.265 OA
ENDROOT
BRANCH   2   4
ATOM      4  C   UNL d   1      53.111  31.844  53.193  0.00  0.00     0.087 C 
ATOM      5  C   UNL d   1      52.353  31.757  52.890  0.00  0.00     0.012 C 
BRANCH   4   6
ATOM      6  S   UNL d   1      53.634  31.202  53.210  0.00  0.00    -0.082 SA
BRANCH   6   7
ATOM      7  C   UNL d   1      53.373  30.468  53.441  0.00  0.00     0.030 A 
ATOM      8  C   UNL d   1      53.612  30.158  54.167  0.00  0.00     0.006 A 
ATOM      9  C   UNL d   1      53.345  29.408  54.403  0.00  0.00     0.001 A 
ATOM     10  C   UNL d   1      52.841  28.981  53.903  0.00  0.00     0.000 A 
ATOM     11  C   UNL d   1      52.606  29.294  53.185  0.00  0.00     0.001 A 
ATOM     12  C   UNL d   1      52.868  30.041  52.942  0.00  0.00     0.006 A 
ENDBRANCH   6   7
ENDBRANCH   4   6
ENDBRANCH   2   4
BRANCH   1  13
ATOM     13  C   UNL d   1      53.093  33.749  54.252  0.00  0.00     0.219 A 
ATOM     14  S   UNL d   1      52.860  34.486  53.972  0.00  0.00    -0.026 SA
ATOM     15  C   UNL d   1      53.234  35.066  54.427  0.00  0.00     0.135 A 
ATOM     16  N   UNL d   1      53.700  34.679  54.990  0.00  0.00    -0.139 NA
ATOM     17  N   UNL d   1      53.614  33.867  54.882  0.00  0.00    -0.121 NA
BRANCH  15  18
ATOM     18  C   UNL d   1      53.159  35.882  54.340  0.00  0.00     0.028 C 
ATOM     19  C   UNL d   1      52.874  36.333  54.973  0.00  0.00     0.002 C 
ENDBRANCH  15  18
ENDBRANCH   1  13
TORSDOF 5
ENDMDL
