MODEL 1
REMARK VINA RESULT:      84.1      0.000      0.000
REMARK  6 active torsions:
REMARK  status: ('A' for Active; 'I' for Inactive)
REMARK    1  A    between atoms: N_6  and  C_1 
REMARK    2  A    between atoms: C_4  and  C_2 
REMARK    3  A    between atoms: C_7  and  C_4 
REMARK    4  A    between atoms: C_8  and  C_4 
REMARK    5  A    between atoms: O_12  and  C_7 
REMARK    6  A    between atoms: C_16  and  O_12 
ROOT
ATOM      1  C   UNL d   1      59.578  49.273  51.304  0.00  0.00     0.166 A 
ATOM      2  C   UNL d   1      59.695  48.841  50.611  0.00  0.00     0.122 A 
ATOM      3  N   UNL d   1      58.824  49.565  51.493  0.00  0.00    -0.225 NA
ATOM      4  N   UNL d   1      59.056  48.701  50.105  0.00  0.00    -0.241 NA
ATOM      5  C   UNL d   1      58.190  49.420  50.981  0.00  0.00     0.101 A 
ATOM      6  C   UNL d   1      58.307  48.990  50.292  0.00  0.00     0.099 A 
ATOM      7  C   UNL d   1      57.449  49.708  51.170  0.00  0.00     0.021 A 
ATOM      8  C   UNL d   1      57.672  48.847  49.785  0.00  0.00     0.021 A 
ATOM      9  C   UNL d   1      56.927  49.135  49.971  0.00  0.00     0.002 A 
ATOM     10  C   UNL d   1      56.810  49.567  50.664  0.00  0.00     0.002 A 
ENDROOT
BRANCH   2  11
ATOM     11  C   UNL d   1      60.449  48.550  50.422  0.00  0.00     0.105 C 
BRANCH  11  12
ATOM     12  C   UNL d   1      60.599  47.740  50.457  0.00  0.00     0.303 C 
ATOM     13  O   UNL d   1      60.158  47.263  50.963  0.00  0.00    -0.259 OA
BRANCH  12  14
ATOM     14  O   UNL d   1      61.188  47.409  49.991  0.00  0.00    -0.273 OA
BRANCH  14  15
ATOM     15  C   UNL d   1      61.551  46.745  49.672  0.00  0.00     0.103 A 
ATOM     16  C   UNL d   1      62.184  46.837  49.152  0.00  0.00     0.025 A 
ATOM     17  C   UNL d   1      62.551  46.178  48.831  0.00  0.00     0.002 A 
ATOM     18  C   UNL d   1      62.287  45.430  49.029  0.00  0.00     0.000 A 
ATOM     19  C   UNL d   1      61.660  45.335  49.544  0.00  0.00     0.002 A 
ATOM     20  C   UNL d   1      61.287  45.999  49.871  0.00  0.00     0.025 A 
ENDBRANCH  14  15
ENDBRANCH  12  14
ENDBRANCH  11  12
BRANCH  11  21
ATOM     21  C   UNL d   1      61.056  49.070  50.195  0.00  0.00     0.129 C 
ATOM     22  N   UNL d   1      61.092  49.482  49.338  0.00  0.00    -0.146 N 
ENDBRANCH  11  21
ENDBRANCH   2  11
BRANCH   1  23
ATOM     23  N   UNL d   1      60.212  49.418  51.814  0.00  0.00    -0.288 N 
ATOM     24  C   UNL d   1      60.082  49.420  52.636  0.00  0.00     0.082 A 
ATOM     25  C   UNL d   1      60.725  49.566  53.144  0.00  0.00     0.018 A 
ATOM     26  C   UNL d   1      60.604  49.570  53.962  0.00  0.00     0.002 C 
ATOM     27  C   UNL d   1      61.483  49.708  52.836  0.00  0.00     0.003 A 
ATOM     28  C   UNL d   1      61.597  49.702  52.019  0.00  0.00     0.019 A 
ATOM     29  C   UNL d   1      60.970  49.559  51.506  0.00  0.00     0.082 A 
ENDBRANCH   1  23
TORSDOF 6
ENDMDL
