MODEL 1
REMARK VINA RESULT:      24.0      0.000      0.000
REMARK  4 active torsions:
REMARK  status: ('A' for Active; 'I' for Inactive)
REMARK    1  A    between atoms: N_2  and  C_1 
REMARK    2  A    between atoms: C_4  and  C_1 
REMARK    3  A    between atoms: C_6  and  N_2 
REMARK    4  A    between atoms: O_12  and  C_7 
ROOT
ATOM      1  N   UNL d   1     -52.072  25.205  33.306  0.00  0.00    -0.235 NA
ENDROOT
BRANCH   1   2
ATOM      2  C   UNL d   1     -51.992  24.409  33.514  0.00  0.00     0.136 C 
ATOM      3  S   UNL d   1     -51.272  24.013  33.398  0.00  0.00    -0.057 SA
BRANCH   2   4
ATOM      4  C   UNL d   1     -52.637  24.000  33.844  0.00  0.00     0.031 A 
ATOM      5  C   UNL d   1     -53.275  23.770  33.357  0.00  0.00     0.023 A 
ATOM      6  C   UNL d   1     -53.916  23.364  33.681  0.00  0.00     0.099 A 
ATOM      7  N   UNL d   1     -53.920  23.189  34.491  0.00  0.00    -0.242 NA
ATOM      8  C   UNL d   1     -53.288  23.417  34.973  0.00  0.00     0.099 A 
ATOM      9  C   UNL d   1     -52.646  23.822  34.650  0.00  0.00     0.023 A 
ENDBRANCH   2   4
ENDBRANCH   1   2
BRANCH   1  10
ATOM     10  C   UNL d   1     -51.418  25.704  33.353  0.00  0.00     0.082 A 
ATOM     11  C   UNL d   1     -51.531  26.522  33.311  0.00  0.00     0.021 A 
ATOM     12  C   UNL d   1     -50.878  27.029  33.356  0.00  0.00     0.026 A 
ATOM     13  C   UNL d   1     -50.119  26.717  33.444  0.00  0.00     0.094 A 
ATOM     14  C   UNL d   1     -50.013  25.894  33.485  0.00  0.00     0.026 A 
ATOM     15  C   UNL d   1     -50.663  25.392  33.439  0.00  0.00     0.021 A 
BRANCH  13  16
ATOM     16  O   UNL d   1     -49.469  27.224  33.489  0.00  0.00    -0.328 OA
ATOM     17  C   UNL d   1     -49.108  27.370  34.219  0.00  0.00     0.181 C 
ENDBRANCH  13  16
ENDBRANCH   1  10
TORSDOF 4
ENDMDL
