MODEL 1
REMARK VINA RESULT:      -3.7      0.000      0.000
REMARK  3 active torsions:
REMARK  status: ('A' for Active; 'I' for Inactive)
REMARK       I    between atoms: C_4  and  N_1 
REMARK    1  A    between atoms: C_7  and  C_3 
REMARK    2  A    between atoms: C_9  and  C_4 
REMARK    3  A    between atoms: C_8  and  C_5 
ROOT
ATOM      1  N   UNL d   1      58.960  -1.008  29.576  0.00  0.00    -0.191 N 
ATOM      2  N   UNL d   1      58.304  -1.107  30.053  0.00  0.00    -0.163 NA
ATOM      3  C   UNL d   1      59.253  -0.233  29.734  0.00  0.00     0.110 A 
ATOM      4  C   UNL d   1      59.273  -1.541  29.054  0.00  0.00     0.303 C 
ATOM      5  C   UNL d   1      58.181  -0.423  30.498  0.00  0.00     0.103 A 
ATOM      6  C   UNL d   1      58.760   0.108  30.303  0.00  0.00     0.042 A 
ATOM      7  O   UNL d   1      59.979  -1.318  28.600  0.00  0.00    -0.263 OA
ENDROOT
BRANCH   3   8
ATOM      8  C   UNL d   1      59.912   0.115  29.381  0.00  0.00     0.118 A 
ATOM      9  O   UNL d   1      59.956   0.363  28.608  0.00  0.00    -0.304 OA
ATOM     10  C   UNL d   1      60.719   0.681  28.481  0.00  0.00     0.123 A 
ATOM     11  C   UNL d   1      61.133   0.620  29.192  0.00  0.00     0.029 A 
ATOM     12  C   UNL d   1      60.618   0.265  29.748  0.00  0.00     0.028 A 
ENDBRANCH   3   8
BRANCH   4  13
ATOM     13  C   UNL d   1      58.950  -2.282  28.937  0.00  0.00     0.158 A 
ATOM     14  O   UNL d   1      58.263  -2.461  28.522  0.00  0.00    -0.300 OA
ATOM     15  C   UNL d   1      58.141  -3.271  28.542  0.00  0.00     0.123 A 
ATOM     16  C   UNL d   1      58.755  -3.605  28.972  0.00  0.00     0.029 A 
ATOM     17  C   UNL d   1      59.261  -2.997  29.221  0.00  0.00     0.032 A 
ENDBRANCH   4  13
BRANCH   5  18
ATOM     18  C   UNL d   1      57.561  -0.325  31.046  0.00  0.00     0.019 A 
ATOM     19  C   UNL d   1      57.318  -0.967  31.459  0.00  0.00     0.002 A 
ATOM     20  C   UNL d   1      56.707  -0.906  32.009  0.00  0.00     0.007 A 
ATOM     21  C   UNL d   1      56.350  -0.182  32.130  0.00  0.00     0.035 A 
ATOM     22  C   UNL d   1      56.590   0.497  31.710  0.00  0.00     0.007 A 
ATOM     23 BR   UNL d   1      55.740  -0.127  32.681  0.00  0.00    -0.049 Br
ATOM     24  C   UNL d   1      57.220   0.414  31.149  0.00  0.00     0.002 A 
ENDBRANCH   5  18
TORSDOF 3
ENDMDL
