MODEL 1
REMARK VINA RESULT:      84.1      0.000      0.000
REMARK  6 active torsions:
REMARK  status: ('A' for Active; 'I' for Inactive)
REMARK    1  A    between atoms: C_4  and  C_1 
REMARK    2  A    between atoms: N_7  and  C_2 
REMARK    3  A    between atoms: C_6  and  C_4 
REMARK    4  A    between atoms: C_8  and  C_4 
REMARK    5  A    between atoms: O_13  and  C_6 
REMARK    6  A    between atoms: C_19  and  O_13 
ROOT
ATOM      1  C   UNL d   1      59.616  48.832  50.437  0.00  0.00     0.122 A 
ATOM      2  C   UNL d   1      59.487  49.240  51.144  0.00  0.00     0.166 A 
ATOM      3  N   UNL d   1      58.729  49.530  51.315  0.00  0.00    -0.225 NA
ATOM      4  N   UNL d   1      58.997  48.712  49.900  0.00  0.00    -0.241 NA
ATOM      5  C   UNL d   1      58.110  49.412  50.781  0.00  0.00     0.101 A 
ATOM      6  C   UNL d   1      58.248  49.001  50.072  0.00  0.00     0.099 A 
ATOM      7  C   UNL d   1      57.357  49.702  50.953  0.00  0.00     0.021 A 
ATOM      8  C   UNL d   1      57.628  48.885  49.542  0.00  0.00     0.021 A 
ATOM      9  C   UNL d   1      56.875  49.175  49.714  0.00  0.00     0.002 A 
ATOM     10  C   UNL d   1      56.738  49.581  50.415  0.00  0.00     0.002 A 
ENDROOT
BRANCH   1  11
ATOM     11  C   UNL d   1      60.375  48.536  50.256  0.00  0.00     0.105 C 
BRANCH  11  12
ATOM     12  C   UNL d   1      60.580  47.761  50.443  0.00  0.00     0.303 C 
ATOM     13  O   UNL d   1      60.108  47.326  50.962  0.00  0.00    -0.259 OA
BRANCH  12  14
ATOM     14  O   UNL d   1      61.255  47.419  50.112  0.00  0.00    -0.273 OA
BRANCH  14  15
ATOM     15  C   UNL d   1      61.603  46.809  49.685  0.00  0.00     0.103 A 
ATOM     16  C   UNL d   1      62.373  46.899  49.409  0.00  0.00     0.025 A 
ATOM     17  C   UNL d   1      62.721  46.292  48.984  0.00  0.00     0.002 A 
ATOM     18  C   UNL d   1      62.312  45.594  48.828  0.00  0.00     0.000 A 
ATOM     19  C   UNL d   1      61.539  45.515  49.110  0.00  0.00     0.002 A 
ATOM     20  C   UNL d   1      61.186  46.121  49.537  0.00  0.00     0.025 A 
ENDBRANCH  14  15
ENDBRANCH  12  14
ENDBRANCH  11  12
BRANCH  11  21
ATOM     21  C   UNL d   1      60.937  49.030  49.881  0.00  0.00     0.129 C 
ATOM     22  N   UNL d   1      60.739  49.531  49.092  0.00  0.00    -0.146 N 
ENDBRANCH  11  21
ENDBRANCH   1  11
BRANCH   2  23
ATOM     23  N   UNL d   1      60.107  49.356  51.674  0.00  0.00    -0.285 N 
ATOM     24  C   UNL d   1      59.967  49.287  52.490  0.00  0.00     0.101 A 
ATOM     25  C   UNL d   1      60.578  49.401  53.027  0.00  0.00     0.100 A 
ATOM     26  N   UNL d   1      61.337  49.586  52.750  0.00  0.00    -0.299 N 
ATOM     27  C   UNL d   1      61.477  49.655  51.934  0.00  0.00     0.100 A 
ATOM     28  C   UNL d   1      61.964  49.704  53.291  0.00  0.00     0.100 C 
ATOM     29  C   UNL d   1      60.858  49.539  51.396  0.00  0.00     0.101 A 
ENDBRANCH   2  23
TORSDOF 6
ENDMDL
