MODEL 1
REMARK VINA RESULT:      44.3      0.000      0.000
REMARK  4 active torsions:
REMARK  status: ('A' for Active; 'I' for Inactive)
REMARK    1  A    between atoms: N_7  and  C_1 
REMARK    2  A    between atoms: N_8  and  C_4 
REMARK    3  A    between atoms: N_11  and  C_5 
REMARK    4  A    between atoms: C_13  and  N_8 
ROOT
ATOM      1  C   UNL d   1      57.426  49.403  50.133  0.00  0.00     0.201 A 
ATOM      2  N   UNL d   1      58.182  49.402  51.368  0.00  0.00    -0.038 NA
ATOM      3  N   UNL d   1      58.811  49.706  50.121  0.00  0.00    -0.036 NA
ATOM      4  C   UNL d   1      58.862  49.608  50.929  0.00  0.00     0.753 A 
ATOM      5  C   UNL d   1      57.472  49.303  50.958  0.00  0.00     0.206 A 
ATOM      6  C   UNL d   1      58.094  49.604  49.718  0.00  0.00     0.227 A 
ATOM      7  N   UNL d   1      58.056  49.707  48.895  0.00  0.00    -0.125 N 
ENDROOT
BRANCH   4   8
ATOM      8  N   UNL d   1      59.572  49.708  51.339  0.00  0.00    -0.059 NA
BRANCH   8   9
ATOM      9  C   UNL d   1      60.213  49.219  51.151  0.00  0.00     0.100 A 
ATOM     10  C   UNL d   1      60.190  48.405  51.312  0.00  0.00     0.020 A 
ATOM     11  C   UNL d   1      60.815  47.916  51.131  0.00  0.00     0.008 A 
ATOM     12  C   UNL d   1      61.495  48.224  50.779  0.00  0.00     0.035 A 
ATOM     13  C   UNL d   1      61.536  49.029  50.612  0.00  0.00     0.008 A 
ATOM     14 BR   UNL d   1      62.141  47.731  50.590  0.00  0.00    -0.049 Br
ATOM     15  C   UNL d   1      60.894  49.518  50.800  0.00  0.00     0.020 A 
ENDBRANCH   8   9
ENDBRANCH   4   8
BRANCH   5  16
ATOM     16  N   UNL d   1      56.770  49.092  51.389  0.00  0.00    -0.222 NA
ATOM     17  C   UNL d   1      56.626  49.449  52.129  0.00  0.00     0.121 C 
ENDBRANCH   5  16
BRANCH   1  18
ATOM     18  N   UNL d   1      56.682  49.295  49.739  0.00  0.00    -0.107 N 
ATOM     19  O   UNL d   1      56.643  48.767  49.113  0.00  0.00    -0.531 OA
ATOM     20  O   UNL d   1      56.033  49.707  49.982  0.00  0.00    -0.531 OA
ENDBRANCH   1  18
TORSDOF 4
ENDMDL
MODEL 2
REMARK VINA RESULT:      45.2      2.520      4.088
REMARK  4 active torsions:
REMARK  status: ('A' for Active; 'I' for Inactive)
REMARK    1  A    between atoms: N_7  and  C_1 
REMARK    2  A    between atoms: N_8  and  C_4 
REMARK    3  A    between atoms: N_11  and  C_5 
REMARK    4  A    between atoms: C_13  and  N_8 
ROOT
ATOM      1  C   UNL d   1      60.657  48.423  50.960  0.00  0.00     0.201 A 
ATOM      2  N   UNL d   1      59.953  49.687  51.024  0.00  0.00    -0.038 NA
ATOM      3  N   UNL d   1      59.295  48.460  51.352  0.00  0.00    -0.036 NA
ATOM      4  C   UNL d   1      59.270  49.272  51.269  0.00  0.00     0.753 A 
ATOM      5  C   UNL d   1      60.638  49.251  50.873  0.00  0.00     0.206 A 
ATOM      6  C   UNL d   1      59.988  48.031  51.198  0.00  0.00     0.227 A 
ATOM      7  N   UNL d   1      59.999  47.207  51.287  0.00  0.00    -0.125 N 
ENDROOT
BRANCH   4   8
ATOM      8  N   UNL d   1      58.585  49.707  51.419  0.00  0.00    -0.059 NA
BRANCH   8   9
ATOM      9  C   UNL d   1      57.976  49.700  50.859  0.00  0.00     0.100 A 
ATOM     10  C   UNL d   1      58.145  49.685  50.046  0.00  0.00     0.020 A 
ATOM     11  C   UNL d   1      57.554  49.678  49.487  0.00  0.00     0.008 A 
ATOM     12  C   UNL d   1      56.762  49.686  49.720  0.00  0.00     0.035 A 
ATOM     13  C   UNL d   1      56.576  49.701  50.522  0.00  0.00     0.008 A 
ATOM     14 BR   UNL d   1      56.148  49.679  49.155  0.00  0.00    -0.049 Br
ATOM     15  C   UNL d   1      57.185  49.708  51.082  0.00  0.00     0.020 A 
ENDBRANCH   8   9
ENDBRANCH   4   8
BRANCH   5  16
ATOM     16  N   UNL d   1      61.341  49.658  50.623  0.00  0.00    -0.222 NA
ATOM     17  C   UNL d   1      61.637  49.522  49.855  0.00  0.00     0.121 C 
ENDBRANCH   5  16
BRANCH   1  18
ATOM     18  N   UNL d   1      61.376  48.002  50.798  0.00  0.00    -0.107 N 
ATOM     19  O   UNL d   1      61.816  47.719  51.428  0.00  0.00    -0.531 OA
ATOM     20  O   UNL d   1      61.613  47.889  50.035  0.00  0.00    -0.531 OA
ENDBRANCH   1  18
TORSDOF 4
ENDMDL
