MODEL 1
REMARK VINA RESULT:      -4.7      0.000      0.000
REMARK  5 active torsions:
REMARK  status: ('A' for Active; 'I' for Inactive)
REMARK    1  A    between atoms: N_11  and  C_4 
REMARK    2  A    between atoms: C_18  and  N_15 
REMARK    3  A    between atoms: C_21  and  C_18 
REMARK    4  A    between atoms: O_28  and  C_23 
REMARK    5  A    between atoms: C_31  and  O_28 
ROOT
ATOM      1  N   UNL d   1     -46.846  12.769  22.878  0.00  0.00    -0.195 N 
ATOM      2  C   UNL d   1     -47.561  13.130  22.988  0.00  0.00     0.168 A 
ATOM      3  C   UNL d   1     -48.210  12.701  23.165  0.00  0.00     0.073 A 
ATOM      4  C   UNL d   1     -46.209  13.212  22.702  0.00  0.00     0.153 A 
ATOM      5  N   UNL d   1     -47.424  11.549  23.123  0.00  0.00    -0.143 NA
ATOM      6  C   UNL d   1     -48.139  11.910  23.233  0.00  0.00     0.185 A 
ATOM      7  N   UNL d   1     -47.621  13.924  22.918  0.00  0.00    -0.227 NA
ATOM      8  C   UNL d   1     -48.918  13.058  23.274  0.00  0.00     0.007 A 
ATOM      9  N   UNL d   1     -48.787  11.463  23.412  0.00  0.00    -0.225 NA
ATOM     10  C   UNL d   1     -46.263  14.000  22.631  0.00  0.00     0.057 A 
ATOM     11  C   UNL d   1     -49.566  12.630  23.451  0.00  0.00     0.019 A 
ATOM     12  C   UNL d   1     -46.978  14.360  22.741  0.00  0.00     0.086 A 
ATOM     13  C   UNL d   1     -49.502  11.824  23.521  0.00  0.00     0.083 A 
ATOM     14  C   UNL d   1     -48.976  13.857  23.203  0.00  0.00     0.000 C 
ATOM     15  C   UNL d   1     -47.037  15.187  22.667  0.00  0.00     0.021 C 
ATOM     16  C   UNL d   1     -50.144  11.392  23.698  0.00  0.00     0.021 C 
ENDROOT
BRANCH   4  17
ATOM     17  N   UNL d   1     -45.475  12.833  22.590  0.00  0.00    -0.286 N 
ATOM     18  C   UNL d   1     -45.351  13.180  21.850  0.00  0.00     0.101 A 
ATOM     19  C   UNL d   1     -44.664  13.005  21.430  0.00  0.00     0.100 A 
ATOM     20  N   UNL d   1     -44.098  12.482  21.749  0.00  0.00    -0.300 N 
ATOM     21  C   UNL d   1     -44.234  12.137  22.499  0.00  0.00     0.100 A 
ATOM     22  C   UNL d   1     -44.928  12.316  22.919  0.00  0.00     0.101 A 
BRANCH  20  23
ATOM     23  C   UNL d   1     -43.401  12.301  21.328  0.00  0.00     0.080 C 
BRANCH  23  24
ATOM     24  C   UNL d   1     -42.793  12.863  21.279  0.00  0.00     0.018 A 
ATOM     25  C   UNL d   1     -42.160  12.850  21.818  0.00  0.00     0.004 A 
ATOM     26  C   UNL d   1     -41.546  13.418  21.769  0.00  0.00     0.025 A 
ATOM     27  C   UNL d   1     -41.570  14.003  21.173  0.00  0.00     0.100 A 
ATOM     28  C   UNL d   1     -42.212  14.019  20.624  0.00  0.00     0.025 A 
ATOM     29  C   UNL d   1     -42.814  13.447  20.686  0.00  0.00     0.004 A 
BRANCH  27  30
ATOM     30  O   UNL d   1     -40.967  14.568  21.117  0.00  0.00    -0.305 OA
BRANCH  30  31
ATOM     31  C   UNL d   1     -41.142  15.341  20.854  0.00  0.00     0.123 C 
ATOM     32  C   UNL d   1     -40.540  15.922  20.835  0.00  0.00     0.029 C 
ENDBRANCH  30  31
ENDBRANCH  27  30
ENDBRANCH  23  24
ENDBRANCH  20  23
ENDBRANCH   4  17
TORSDOF 5
ENDMDL
MODEL 2
REMARK VINA RESULT:      -4.0      2.224      6.200
REMARK  5 active torsions:
REMARK  status: ('A' for Active; 'I' for Inactive)
REMARK    1  A    between atoms: N_11  and  C_4 
REMARK    2  A    between atoms: C_18  and  N_15 
REMARK    3  A    between atoms: C_21  and  C_18 
REMARK    4  A    between atoms: O_28  and  C_23 
REMARK    5  A    between atoms: C_31  and  O_28 
ROOT
ATOM      1  N   UNL d   1     -45.264  12.100  22.809  0.00  0.00    -0.195 N 
ATOM      2  C   UNL d   1     -44.505  11.869  22.658  0.00  0.00     0.168 A 
ATOM      3  C   UNL d   1     -44.020  12.325  22.218  0.00  0.00     0.073 A 
ATOM      4  C   UNL d   1     -45.734  11.632  23.250  0.00  0.00     0.153 A 
ATOM      5  N   UNL d   1     -45.060  13.246  22.083  0.00  0.00    -0.143 NA
ATOM      6  C   UNL d   1     -44.301  13.015  21.931  0.00  0.00     0.185 A 
ATOM      7  N   UNL d   1     -44.234  11.175  22.951  0.00  0.00    -0.227 NA
ATOM      8  C   UNL d   1     -43.269  12.096  22.068  0.00  0.00     0.007 A 
ATOM      9  N   UNL d   1     -43.822  13.487  21.485  0.00  0.00    -0.225 NA
ATOM     10  C   UNL d   1     -45.470  10.944  23.542  0.00  0.00     0.057 A 
ATOM     11  C   UNL d   1     -42.785  12.553  21.629  0.00  0.00     0.019 A 
ATOM     12  C   UNL d   1     -44.711  10.713  23.390  0.00  0.00     0.086 A 
ATOM     13  C   UNL d   1     -43.062  13.255  21.333  0.00  0.00     0.083 A 
ATOM     14  C   UNL d   1     -42.999  11.399  22.363  0.00  0.00     0.000 C 
ATOM     15  C   UNL d   1     -44.433   9.990  23.697  0.00  0.00     0.021 C 
ATOM     16  C   UNL d   1     -42.586  13.714  20.895  0.00  0.00     0.021 C 
ENDROOT
BRANCH   4  17
ATOM     17  N   UNL d   1     -46.516  11.878  23.402  0.00  0.00    -0.286 N 
ATOM     18  C   UNL d   1     -46.844  11.166  23.137  0.00  0.00     0.101 A 
ATOM     19  C   UNL d   1     -47.662  11.067  23.152  0.00  0.00     0.100 A 
ATOM     20  N   UNL d   1     -48.155  11.679  23.433  0.00  0.00    -0.300 N 
ATOM     21  C   UNL d   1     -47.812  12.393  23.698  0.00  0.00     0.100 A 
ATOM     22  C   UNL d   1     -46.987  12.490  23.681  0.00  0.00     0.101 A 
BRANCH  20  23
ATOM     23  C   UNL d   1     -48.983  11.583  23.450  0.00  0.00     0.080 C 
BRANCH  23  24
ATOM     24  C   UNL d   1     -49.473  12.182  23.153  0.00  0.00     0.018 A 
ATOM     25  C   UNL d   1     -49.485  12.355  22.340  0.00  0.00     0.004 A 
ATOM     26  C   UNL d   1     -49.980  12.962  22.040  0.00  0.00     0.025 A 
ATOM     27  C   UNL d   1     -50.465  13.397  22.562  0.00  0.00     0.100 A 
ATOM     28  C   UNL d   1     -50.455  13.224  23.389  0.00  0.00     0.025 A 
ATOM     29  C   UNL d   1     -49.958  12.618  23.671  0.00  0.00     0.004 A 
BRANCH  27  30
ATOM     30  O   UNL d   1     -50.956  13.997  22.274  0.00  0.00    -0.305 OA
BRANCH  30  31
ATOM     31  C   UNL d   1     -50.900  14.770  22.587  0.00  0.00     0.123 C 
ATOM     32  C   UNL d   1     -51.064  15.430  22.100  0.00  0.00     0.029 C 
ENDBRANCH  30  31
ENDBRANCH  27  30
ENDBRANCH  23  24
ENDBRANCH  20  23
ENDBRANCH   4  17
TORSDOF 5
ENDMDL
MODEL 3
REMARK VINA RESULT:      -3.3      1.894      2.916
REMARK  5 active torsions:
REMARK  status: ('A' for Active; 'I' for Inactive)
REMARK    1  A    between atoms: N_11  and  C_4 
REMARK    2  A    between atoms: C_18  and  N_15 
REMARK    3  A    between atoms: C_21  and  C_18 
REMARK    4  A    between atoms: O_28  and  C_23 
REMARK    5  A    between atoms: C_31  and  O_28 
ROOT
ATOM      1  N   UNL d   1     -48.558  13.511  22.973  0.00  0.00    -0.195 N 
ATOM      2  C   UNL d   1     -49.365  13.535  22.957  0.00  0.00     0.168 A 
ATOM      3  C   UNL d   1     -49.796  12.889  23.141  0.00  0.00     0.073 A 
ATOM      4  C   UNL d   1     -48.145  14.165  22.786  0.00  0.00     0.153 A 
ATOM      5  N   UNL d   1     -48.605  12.194  23.356  0.00  0.00    -0.143 NA
ATOM      6  C   UNL d   1     -49.412  12.219  23.341  0.00  0.00     0.185 A 
ATOM      7  N   UNL d   1     -49.740  14.213  22.755  0.00  0.00    -0.227 NA
ATOM      8  C   UNL d   1     -50.595  12.913  23.125  0.00  0.00     0.007 A 
ATOM      9  N   UNL d   1     -49.834  11.557  23.529  0.00  0.00    -0.225 NA
ATOM     10  C   UNL d   1     -48.511  14.839  22.585  0.00  0.00     0.057 A 
ATOM     11  C   UNL d   1     -51.024  12.267  23.309  0.00  0.00     0.019 A 
ATOM     12  C   UNL d   1     -49.318  14.863  22.570  0.00  0.00     0.086 A 
ATOM     13  C   UNL d   1     -50.643  11.581  23.514  0.00  0.00     0.083 A 
ATOM     14  C   UNL d   1     -50.969  13.594  22.922  0.00  0.00     0.000 C 
ATOM     15  C   UNL d   1     -49.704  15.570  22.359  0.00  0.00     0.021 C 
ATOM     16  C   UNL d   1     -51.064  10.935  23.698  0.00  0.00     0.021 C 
ENDROOT
BRANCH   4  17
ATOM     17  N   UNL d   1     -47.311  14.132  22.804  0.00  0.00    -0.286 N 
ATOM     18  C   UNL d   1     -47.262  13.710  22.095  0.00  0.00     0.101 A 
ATOM     19  C   UNL d   1     -46.523  13.497  21.801  0.00  0.00     0.100 A 
ATOM     20  N   UNL d   1     -45.829  13.706  22.215  0.00  0.00    -0.300 N 
ATOM     21  C   UNL d   1     -45.892  14.133  22.931  0.00  0.00     0.100 A 
ATOM     22  C   UNL d   1     -46.639  14.346  23.225  0.00  0.00     0.101 A 
BRANCH  20  23
ATOM     23  C   UNL d   1     -45.078  13.493  21.921  0.00  0.00     0.080 C 
BRANCH  23  24
ATOM     24  C   UNL d   1     -44.698  12.818  22.216  0.00  0.00     0.018 A 
ATOM     25  C   UNL d   1     -45.111  12.273  22.690  0.00  0.00     0.004 A 
ATOM     26  C   UNL d   1     -44.726  11.590  22.988  0.00  0.00     0.025 A 
ATOM     27  C   UNL d   1     -43.921  11.456  22.808  0.00  0.00     0.100 A 
ATOM     28  C   UNL d   1     -43.500  12.008  22.327  0.00  0.00     0.025 A 
ATOM     29  C   UNL d   1     -43.896  12.681  22.039  0.00  0.00     0.004 A 
BRANCH  27  30
ATOM     30  O   UNL d   1     -43.534  10.784  23.099  0.00  0.00    -0.305 OA
BRANCH  30  31
ATOM     31  C   UNL d   1     -43.972  10.179  23.472  0.00  0.00     0.123 C 
ATOM     32  C   UNL d   1     -43.612   9.439  23.628  0.00  0.00     0.029 C 
ENDBRANCH  30  31
ENDBRANCH  27  30
ENDBRANCH  23  24
ENDBRANCH  20  23
ENDBRANCH   4  17
TORSDOF 5
ENDMDL
MODEL 4
REMARK VINA RESULT:      -3.2      4.979      9.427
REMARK  5 active torsions:
REMARK  status: ('A' for Active; 'I' for Inactive)
REMARK    1  A    between atoms: N_11  and  C_4 
REMARK    2  A    between atoms: C_18  and  N_15 
REMARK    3  A    between atoms: C_21  and  C_18 
REMARK    4  A    between atoms: O_28  and  C_23 
REMARK    5  A    between atoms: C_31  and  O_28 
ROOT
ATOM      1  N   UNL d   1     -38.214  14.378  17.487  0.00  0.00    -0.195 N 
ATOM      2  C   UNL d   1     -38.128  14.025  16.765  0.00  0.00     0.168 A 
ATOM      3  C   UNL d   1     -38.081  14.465  16.101  0.00  0.00     0.073 A 
ATOM      4  C   UNL d   1     -38.260  13.924  18.139  0.00  0.00     0.153 A 
ATOM      5  N   UNL d   1     -38.206  15.611  16.886  0.00  0.00    -0.143 NA
ATOM      6  C   UNL d   1     -38.119  15.259  16.164  0.00  0.00     0.185 A 
ATOM      7  N   UNL d   1     -38.090  13.228  16.713  0.00  0.00    -0.227 NA
ATOM      8  C   UNL d   1     -37.995  14.116  15.386  0.00  0.00     0.007 A 
ATOM      9  N   UNL d   1     -38.073  15.716  15.501  0.00  0.00    -0.225 NA
ATOM     10  C   UNL d   1     -38.223  13.134  18.093  0.00  0.00     0.057 A 
ATOM     11  C   UNL d   1     -37.948  14.555  14.723  0.00  0.00     0.019 A 
ATOM     12  C   UNL d   1     -38.137  12.781  17.371  0.00  0.00     0.086 A 
ATOM     13  C   UNL d   1     -37.986  15.364  14.778  0.00  0.00     0.083 A 
ATOM     14  C   UNL d   1     -37.958  13.315  15.336  0.00  0.00     0.000 C 
ATOM     15  C   UNL d   1     -38.098  11.951  17.321  0.00  0.00     0.021 C 
ATOM     16  C   UNL d   1     -37.940  15.807  14.122  0.00  0.00     0.021 C 
ENDROOT
BRANCH   4  17
ATOM     17  N   UNL d   1     -38.349  14.295  18.881  0.00  0.00    -0.286 N 
ATOM     18  C   UNL d   1     -39.100  13.972  19.009  0.00  0.00     0.101 A 
ATOM     19  C   UNL d   1     -39.504  14.150  19.704  0.00  0.00     0.100 A 
ATOM     20  N   UNL d   1     -39.159  14.653  20.274  0.00  0.00    -0.300 N 
ATOM     21  C   UNL d   1     -38.400  14.973  20.134  0.00  0.00     0.100 A 
ATOM     22  C   UNL d   1     -37.995  14.791  19.432  0.00  0.00     0.101 A 
BRANCH  20  23
ATOM     23  C   UNL d   1     -39.565  14.836  20.980  0.00  0.00     0.080 C 
BRANCH  23  24
ATOM     24  C   UNL d   1     -40.343  14.572  21.087  0.00  0.00     0.018 A 
ATOM     25  C   UNL d   1     -40.500  13.879  21.518  0.00  0.00     0.004 A 
ATOM     26  C   UNL d   1     -41.287  13.612  21.626  0.00  0.00     0.025 A 
ATOM     27  C   UNL d   1     -41.920  14.045  21.298  0.00  0.00     0.100 A 
ATOM     28  C   UNL d   1     -41.765  14.750  20.859  0.00  0.00     0.025 A 
ATOM     29  C   UNL d   1     -40.977  15.002  20.760  0.00  0.00     0.004 A 
BRANCH  27  30
ATOM     30  O   UNL d   1     -42.701  13.788  21.400  0.00  0.00    -0.305 OA
BRANCH  30  31
ATOM     31  C   UNL d   1     -42.897  12.987  21.271  0.00  0.00     0.123 C 
ATOM     32  C   UNL d   1     -43.647  12.698  21.504  0.00  0.00     0.029 C 
ENDBRANCH  30  31
ENDBRANCH  27  30
ENDBRANCH  23  24
ENDBRANCH  20  23
ENDBRANCH   4  17
TORSDOF 5
ENDMDL
MODEL 5
REMARK VINA RESULT:      -2.0      1.609      3.261
REMARK  5 active torsions:
REMARK  status: ('A' for Active; 'I' for Inactive)
REMARK    1  A    between atoms: N_11  and  C_4 
REMARK    2  A    between atoms: C_18  and  N_15 
REMARK    3  A    between atoms: C_21  and  C_18 
REMARK    4  A    between atoms: O_28  and  C_23 
REMARK    5  A    between atoms: C_31  and  O_28 
ROOT
ATOM      1  N   UNL d   1     -44.290  12.743  22.083  0.00  0.00    -0.195 N 
ATOM      2  C   UNL d   1     -44.814  12.356  22.561  0.00  0.00     0.168 A 
ATOM      3  C   UNL d   1     -45.539  12.658  22.699  0.00  0.00     0.073 A 
ATOM      4  C   UNL d   1     -43.570  12.428  21.957  0.00  0.00     0.153 A 
ATOM      5  N   UNL d   1     -45.215  13.736  21.874  0.00  0.00    -0.143 NA
ATOM      6  C   UNL d   1     -45.738  13.349  22.353  0.00  0.00     0.185 A 
ATOM      7  N   UNL d   1     -44.604  11.664  22.903  0.00  0.00    -0.227 NA
ATOM      8  C   UNL d   1     -46.057  12.275  23.173  0.00  0.00     0.007 A 
ATOM      9  N   UNL d   1     -46.469  13.666  22.483  0.00  0.00    -0.225 NA
ATOM     10  C   UNL d   1     -43.358  11.742  22.293  0.00  0.00     0.057 A 
ATOM     11  C   UNL d   1     -46.783  12.576  23.309  0.00  0.00     0.019 A 
ATOM     12  C   UNL d   1     -43.881  11.355  22.772  0.00  0.00     0.086 A 
ATOM     13  C   UNL d   1     -46.992  13.279  22.962  0.00  0.00     0.083 A 
ATOM     14  C   UNL d   1     -45.845  11.579  23.514  0.00  0.00     0.000 C 
ATOM     15  C   UNL d   1     -43.660  10.635  23.125  0.00  0.00     0.021 C 
ATOM     16  C   UNL d   1     -47.712  13.584  23.094  0.00  0.00     0.021 C 
ENDROOT
BRANCH   4  17
ATOM     17  N   UNL d   1     -43.035  12.833  21.461  0.00  0.00    -0.286 N 
ATOM     18  C   UNL d   1     -42.463  12.906  22.054  0.00  0.00     0.101 A 
ATOM     19  C   UNL d   1     -41.752  13.286  21.886  0.00  0.00     0.100 A 
ATOM     20  N   UNL d   1     -41.611  13.596  21.125  0.00  0.00    -0.300 N 
ATOM     21  C   UNL d   1     -42.197  13.517  20.534  0.00  0.00     0.100 A 
ATOM     22  C   UNL d   1     -42.913  13.133  20.706  0.00  0.00     0.101 A 
BRANCH  20  23
ATOM     23  C   UNL d   1     -40.892  13.983  20.950  0.00  0.00     0.080 C 
BRANCH  23  24
ATOM     24  C   UNL d   1     -40.809  14.391  20.233  0.00  0.00     0.018 A 
ATOM     25  C   UNL d   1     -40.566  13.993  19.545  0.00  0.00     0.004 A 
ATOM     26  C   UNL d   1     -40.482  14.405  18.820  0.00  0.00     0.025 A 
ATOM     27  C   UNL d   1     -40.645  15.224  18.788  0.00  0.00     0.100 A 
ATOM     28  C   UNL d   1     -40.892  15.631  19.486  0.00  0.00     0.025 A 
ATOM     29  C   UNL d   1     -40.971  15.207  20.198  0.00  0.00     0.004 A 
BRANCH  27  30
ATOM     30  O   UNL d   1     -40.564  15.639  18.077  0.00  0.00    -0.305 OA
BRANCH  30  31
ATOM     31  C   UNL d   1     -41.047  15.445  17.423  0.00  0.00     0.123 C 
ATOM     32  C   UNL d   1     -41.025  15.919  16.733  0.00  0.00     0.029 C 
ENDBRANCH  30  31
ENDBRANCH  27  30
ENDBRANCH  23  24
ENDBRANCH  20  23
ENDBRANCH   4  17
TORSDOF 5
ENDMDL
