MODEL 1
REMARK VINA RESULT:      -4.9      0.000      0.000
REMARK  7 active torsions:
REMARK  status: ('A' for Active; 'I' for Inactive)
REMARK    1  A    between atoms: C_2  and  C_1 
REMARK    2  A    between atoms: O_12  and  C_1 
REMARK       I    between atoms: C_3  and  N_4 
REMARK    3  A    between atoms: C_11  and  C_3 
REMARK    4  A    between atoms: N_4  and  C_7 
REMARK    5  A    between atoms: C_5  and  C_13 
REMARK    6  A    between atoms: O_14  and  C_5 
REMARK    7  A    between atoms: C_13  and  C_11 
ROOT
ATOM      1  C   UNL d   1     -42.234-122.506 -50.644  0.00  0.00     0.063 A 
ATOM      2  C   UNL d   1     -41.989-123.046 -51.216  0.00  0.00     0.023 A 
ATOM      3  C   UNL d   1     -41.436-122.839 -51.793  0.00  0.00     0.059 A 
ATOM      4  C   UNL d   1     -41.920-121.729 -50.644  0.00  0.00     0.006 A 
ATOM      5  C   UNL d   1     -41.364-121.521 -51.225  0.00  0.00     0.002 A 
ATOM      6  C   UNL d   1     -41.130-122.080 -51.792  0.00  0.00     0.017 A 
ENDROOT
BRANCH   3   7
ATOM      7  N   UNL d   1     -41.191-123.399 -52.375  0.00  0.00    -0.321 N 
ATOM      8  C   UNL d   1     -41.364-123.261 -53.169  0.00  0.00     0.258 C 
ATOM      9  O   UNL d   1     -41.122-123.813 -53.743  0.00  0.00    -0.267 OA
ATOM     10  H   UNL d   1     -40.783-124.078 -52.139  0.00  0.00     0.169 HD
BRANCH   8  11
ATOM     11  C   UNL d   1     -41.772-122.586 -53.418  0.00  0.00     0.067 C 
BRANCH  11  12
ATOM     12  C   UNL d   1     -42.073-122.516 -54.170  0.00  0.00     0.072 C 
BRANCH  12  13
ATOM     13  C   UNL d   1     -42.328-121.789 -54.444  0.00  0.00     0.178 C 
ATOM     14  O   UNL d   1     -41.865-121.388 -54.997  0.00  0.00    -0.646 OA
BRANCH  13  15
ATOM     15  O   UNL d   1     -43.027-121.464 -54.178  0.00  0.00    -0.773 OA
ATOM     16  H   UNL d   1     -43.088-120.667 -54.066  0.00  0.00     0.167 HD
ENDBRANCH  13  15
ENDBRANCH  12  13
ENDBRANCH  11  12
ENDBRANCH   8  11
ENDBRANCH   3   7
BRANCH   1  17
ATOM     17  C   UNL d   1     -42.787-122.729 -50.074  0.00  0.00     0.178 C 
ATOM     18  O   UNL d   1     -42.677-123.439 -49.661  0.00  0.00    -0.646 OA
BRANCH  17  19
ATOM     19  O   UNL d   1     -43.431-122.257 -49.921  0.00  0.00    -0.773 OA
ATOM     20  H   UNL d   1     -44.070-122.226 -50.444  0.00  0.00     0.167 HD
ENDBRANCH  17  19
ENDBRANCH   1  17
TORSDOF 7
ENDMDL
MODEL 2
REMARK VINA RESULT:      -4.5      1.170      1.714
REMARK  7 active torsions:
REMARK  status: ('A' for Active; 'I' for Inactive)
REMARK    1  A    between atoms: C_2  and  C_1 
REMARK    2  A    between atoms: O_12  and  C_1 
REMARK       I    between atoms: C_3  and  N_4 
REMARK    3  A    between atoms: C_11  and  C_3 
REMARK    4  A    between atoms: N_4  and  C_7 
REMARK    5  A    between atoms: C_5  and  C_13 
REMARK    6  A    between atoms: O_14  and  C_5 
REMARK    7  A    between atoms: C_13  and  C_11 
ROOT
ATOM      1  C   UNL d   1     -42.481-123.082 -49.968  0.00  0.00     0.063 A 
ATOM      2  C   UNL d   1     -42.266-122.399 -50.377  0.00  0.00     0.023 A 
ATOM      3  C   UNL d   1     -41.592-122.377 -50.852  0.00  0.00     0.059 A 
ATOM      4  C   UNL d   1     -42.007-123.770 -50.034  0.00  0.00     0.006 A 
ATOM      5  C   UNL d   1     -41.329-123.748 -50.512  0.00  0.00     0.002 A 
ATOM      6  C   UNL d   1     -41.131-123.049 -50.915  0.00  0.00     0.017 A 
ENDROOT
BRANCH   3   7
ATOM      7  N   UNL d   1     -41.381-121.672 -51.266  0.00  0.00    -0.321 N 
ATOM      8  C   UNL d   1     -41.330-121.685 -52.089  0.00  0.00     0.258 C 
ATOM      9  O   UNL d   1     -41.123-120.991 -52.498  0.00  0.00    -0.267 OA
ATOM     10  H   UNL d   1     -41.230-120.980 -50.840  0.00  0.00     0.169 HD
BRANCH   8  11
ATOM     11  C   UNL d   1     -41.479-122.371 -52.526  0.00  0.00     0.067 C 
BRANCH  11  12
ATOM     12  C   UNL d   1     -41.272-122.437 -53.310  0.00  0.00     0.072 C 
BRANCH  12  13
ATOM     13  C   UNL d   1     -41.607-123.021 -53.775  0.00  0.00     0.178 C 
ATOM     14  O   UNL d   1     -41.130-123.635 -54.048  0.00  0.00    -0.646 OA
BRANCH  13  15
ATOM     15  O   UNL d   1     -42.400-122.998 -53.966  0.00  0.00    -0.773 OA
ATOM     16  H   UNL d   1     -42.844-123.672 -53.943  0.00  0.00     0.167 HD
ENDBRANCH  13  15
ENDBRANCH  12  13
ENDBRANCH  11  12
ENDBRANCH   8  11
ENDBRANCH   3   7
BRANCH   1  17
ATOM     17  C   UNL d   1     -43.158-123.088 -49.496  0.00  0.00     0.178 C 
ATOM     18  O   UNL d   1     -43.116-122.785 -48.726  0.00  0.00    -0.646 OA
BRANCH  17  19
ATOM     19  O   UNL d   1     -43.856-123.387 -49.786  0.00  0.00    -0.773 OA
ATOM     20  H   UNL d   1     -44.006-123.407 -50.598  0.00  0.00     0.167 HD
ENDBRANCH  17  19
ENDBRANCH   1  17
TORSDOF 7
ENDMDL
