MODEL 1
REMARK VINA RESULT:       0.4      0.000      0.000
REMARK  3 active torsions:
REMARK  status: ('A' for Active; 'I' for Inactive)
REMARK    1  A    between atoms: C_10  and  C_4 
REMARK    2  A    between atoms: C_11  and  C_6 
REMARK    3  A    between atoms: C_12  and  C_9 
ROOT
ATOM      1  N   UNL d   1      30.973  17.261 -24.087  0.00  0.00    -0.212 N 
ATOM      2  C   UNL d   1      30.628  17.968 -24.361  0.00  0.00     0.166 A 
ATOM      3  N   UNL d   1      30.388  16.681 -24.057  0.00  0.00    -0.158 NA
ATOM      4  C   UNL d   1      29.675  17.032 -24.314  0.00  0.00     0.169 A 
ATOM      5  C   UNL d   1      29.834  17.813 -24.496  0.00  0.00     0.066 A 
ATOM      6  C   UNL d   1      31.779  17.245 -23.902  0.00  0.00     0.086 A 
ATOM      7  N   UNL d   1      31.090  18.654 -24.449  0.00  0.00    -0.227 NA
ATOM      8  C   UNL d   1      32.251  17.925 -23.986  0.00  0.00     0.038 A 
ATOM      9  C   UNL d   1      31.905  18.631 -24.260  0.00  0.00     0.085 A 
ENDROOT
BRANCH   6  10
ATOM     10  C   UNL d   1      32.273  16.639 -23.623  0.00  0.00     0.018 A 
ATOM     11  C   UNL d   1      32.447  16.601 -22.820  0.00  0.00     0.002 A 
ATOM     12  C   UNL d   1      32.905  16.041 -22.550  0.00  0.00     0.000 A 
ATOM     13  C   UNL d   1      33.240  15.453 -23.073  0.00  0.00     0.000 A 
ATOM     14  C   UNL d   1      33.084  15.471 -23.859  0.00  0.00     0.000 A 
ATOM     15  C   UNL d   1      32.593  16.074 -24.136  0.00  0.00     0.002 A 
ENDBRANCH   6  10
BRANCH   9  16
ATOM     16  C   UNL d   1      32.348  19.307 -24.349  0.00  0.00     0.018 A 
ATOM     17  C   UNL d   1      32.795  19.434 -25.025  0.00  0.00     0.002 A 
ATOM     18  C   UNL d   1      33.229  20.110 -25.097  0.00  0.00     0.000 A 
ATOM     19  C   UNL d   1      33.241  20.703 -24.493  0.00  0.00     0.000 A 
ATOM     20  C   UNL d   1      32.794  20.577 -23.817  0.00  0.00     0.000 A 
ATOM     21  C   UNL d   1      32.343  19.878 -23.737  0.00  0.00     0.002 A 
ENDBRANCH   9  16
BRANCH   4  22
ATOM     22  C   UNL d   1      28.950  16.655 -24.371  0.00  0.00     0.231 C 
ATOM     23  O   UNL d   1      28.809  16.152 -25.008  0.00  0.00    -0.643 OA
ATOM     24  O   UNL d   1      28.380  16.792 -23.787  0.00  0.00    -0.643 OA
ENDBRANCH   4  22
TORSDOF 3
ENDMDL
MODEL 2
REMARK VINA RESULT:       0.5      1.788      3.518
REMARK  3 active torsions:
REMARK  status: ('A' for Active; 'I' for Inactive)
REMARK    1  A    between atoms: C_10  and  C_4 
REMARK    2  A    between atoms: C_11  and  C_6 
REMARK    3  A    between atoms: C_12  and  C_9 
ROOT
ATOM      1  N   UNL d   1      31.864  17.866 -24.018  0.00  0.00    -0.212 N 
ATOM      2  C   UNL d   1      31.236  18.287 -24.367  0.00  0.00     0.166 A 
ATOM      3  N   UNL d   1      32.524  18.360 -23.992  0.00  0.00    -0.158 NA
ATOM      4  C   UNL d   1      32.302  19.091 -24.327  0.00  0.00     0.169 A 
ATOM      5  C   UNL d   1      31.518  19.034 -24.551  0.00  0.00     0.066 A 
ATOM      6  C   UNL d   1      31.746  17.085 -23.771  0.00  0.00     0.086 A 
ATOM      7  N   UNL d   1      30.493  17.926 -24.467  0.00  0.00    -0.227 NA
ATOM      8  C   UNL d   1      31.007  16.715 -23.867  0.00  0.00     0.038 A 
ATOM      9  C   UNL d   1      30.379  17.136 -24.216  0.00  0.00     0.085 A 
ENDROOT
BRANCH   6  10
ATOM     10  C   UNL d   1      32.251  16.533 -23.413  0.00  0.00     0.018 A 
ATOM     11  C   UNL d   1      32.278  16.486 -22.593  0.00  0.00     0.002 A 
ATOM     12  C   UNL d   1      32.745  15.976 -22.250  0.00  0.00     0.000 A 
ATOM     13  C   UNL d   1      33.241  15.453 -22.709  0.00  0.00     0.000 A 
ATOM     14  C   UNL d   1      33.231  15.481 -23.510  0.00  0.00     0.000 A 
ATOM     15  C   UNL d   1      32.728  16.030 -23.866  0.00  0.00     0.002 A 
ENDBRANCH   6  10
BRANCH   9  16
ATOM     16  C   UNL d   1      29.649  16.792 -24.318  0.00  0.00     0.018 A 
ATOM     17  C   UNL d   1      29.471  16.375 -25.001  0.00  0.00     0.002 A 
ATOM     18  C   UNL d   1      28.742  16.040 -25.086  0.00  0.00     0.000 A 
ATOM     19  C   UNL d   1      28.145  16.103 -24.489  0.00  0.00     0.000 A 
ATOM     20  C   UNL d   1      28.324  16.519 -23.805  0.00  0.00     0.000 A 
ATOM     21  C   UNL d   1      29.078  16.868 -23.712  0.00  0.00     0.002 A 
ENDBRANCH   9  16
BRANCH   4  22
ATOM     22  C   UNL d   1      32.788  19.745 -24.413  0.00  0.00     0.231 C 
ATOM     23  O   UNL d   1      33.241  19.820 -25.097  0.00  0.00    -0.643 OA
ATOM     24  O   UNL d   1      32.810  20.310 -23.810  0.00  0.00    -0.643 OA
ENDBRANCH   4  22
TORSDOF 3
ENDMDL
MODEL 3
REMARK VINA RESULT:       1.5      4.611      5.753
REMARK  3 active torsions:
REMARK  status: ('A' for Active; 'I' for Inactive)
REMARK    1  A    between atoms: C_10  and  C_4 
REMARK    2  A    between atoms: C_11  and  C_6 
REMARK    3  A    between atoms: C_12  and  C_9 
ROOT
ATOM      1  N   UNL d   1      32.653  22.240 -21.022  0.00  0.00    -0.212 N 
ATOM      2  C   UNL d   1      32.506  23.045 -21.176  0.00  0.00     0.166 A 
ATOM      3  N   UNL d   1      32.644  22.127 -20.205  0.00  0.00    -0.158 NA
ATOM      4  C   UNL d   1      32.490  22.867 -19.852  0.00  0.00     0.169 A 
ATOM      5  C   UNL d   1      32.408  23.416 -20.452  0.00  0.00     0.066 A 
ATOM      6  C   UNL d   1      32.776  21.718 -21.652  0.00  0.00     0.086 A 
ATOM      7  N   UNL d   1      32.482  23.324 -21.960  0.00  0.00    -0.227 NA
ATOM      8  C   UNL d   1      32.754  21.986 -22.439  0.00  0.00     0.038 A 
ATOM      9  C   UNL d   1      32.607  22.791 -22.593  0.00  0.00     0.085 A 
ENDROOT
BRANCH   6  10
ATOM     10  C   UNL d   1      32.931  20.903 -21.677  0.00  0.00     0.018 A 
ATOM     11  C   UNL d   1      33.086  20.502 -20.975  0.00  0.00     0.002 A 
ATOM     12  C   UNL d   1      33.232  19.745 -20.987  0.00  0.00     0.000 A 
ATOM     13  C   UNL d   1      33.236  19.307 -21.722  0.00  0.00     0.000 A 
ATOM     14  C   UNL d   1      33.088  19.677 -22.417  0.00  0.00     0.000 A 
ATOM     15  C   UNL d   1      32.933  20.487 -22.392  0.00  0.00     0.002 A 
ENDBRANCH   6  10
BRANCH   9  16
ATOM     16  C   UNL d   1      32.582  23.074 -23.355  0.00  0.00     0.018 A 
ATOM     17  C   UNL d   1      33.240  23.035 -23.843  0.00  0.00     0.002 A 
ATOM     18  C   UNL d   1      33.198  23.320 -24.596  0.00  0.00     0.000 A 
ATOM     19  C   UNL d   1      32.489  23.663 -24.908  0.00  0.00     0.000 A 
ATOM     20  C   UNL d   1      31.831  23.702 -24.421  0.00  0.00     0.000 A 
ATOM     21  C   UNL d   1      31.869  23.408 -23.640  0.00  0.00     0.002 A 
ENDBRANCH   9  16
BRANCH   4  22
ATOM     22  C   UNL d   1      32.433  23.011 -19.048  0.00  0.00     0.231 C 
ATOM     23  O   UNL d   1      31.850  23.524 -18.773  0.00  0.00    -0.643 OA
ATOM     24  O   UNL d   1      32.963  22.636 -18.535  0.00  0.00    -0.643 OA
ENDBRANCH   4  22
TORSDOF 3
ENDMDL
MODEL 4
REMARK VINA RESULT:       2.2      3.202      4.953
REMARK  3 active torsions:
REMARK  status: ('A' for Active; 'I' for Inactive)
REMARK    1  A    between atoms: C_10  and  C_4 
REMARK    2  A    between atoms: C_11  and  C_6 
REMARK    3  A    between atoms: C_12  and  C_9 
ROOT
ATOM      1  N   UNL d   1      33.114  21.222 -23.209  0.00  0.00    -0.212 N 
ATOM      2  C   UNL d   1      33.056  20.954 -23.995  0.00  0.00     0.166 A 
ATOM      3  N   UNL d   1      33.179  22.044 -23.220  0.00  0.00    -0.158 NA
ATOM      4  C   UNL d   1      33.162  22.285 -24.019  0.00  0.00     0.169 A 
ATOM      5  C   UNL d   1      33.087  21.614 -24.479  0.00  0.00     0.066 A 
ATOM      6  C   UNL d   1      33.098  20.676 -22.588  0.00  0.00     0.086 A 
ATOM      7  N   UNL d   1      32.984  20.140 -24.156  0.00  0.00    -0.227 NA
ATOM      8  C   UNL d   1      33.026  19.861 -22.738  0.00  0.00     0.038 A 
ATOM      9  C   UNL d   1      32.968  19.592 -23.524  0.00  0.00     0.085 A 
ENDROOT
BRANCH   6  10
ATOM     10  C   UNL d   1      33.143  20.769 -21.764  0.00  0.00     0.018 A 
ATOM     11  C   UNL d   1      33.135  21.527 -21.445  0.00  0.00     0.002 A 
ATOM     12  C   UNL d   1      33.177  21.624 -20.681  0.00  0.00     0.000 A 
ATOM     13  C   UNL d   1      33.231  20.954 -20.152  0.00  0.00     0.000 A 
ATOM     14  C   UNL d   1      33.240  20.207 -20.441  0.00  0.00     0.000 A 
ATOM     15  C   UNL d   1      33.195  20.115 -21.260  0.00  0.00     0.002 A 
ENDBRANCH   6  10
BRANCH   9  16
ATOM     16  C   UNL d   1      32.897  18.800 -23.693  0.00  0.00     0.018 A 
ATOM     17  C   UNL d   1      32.520  18.290 -23.173  0.00  0.00     0.002 A 
ATOM     18  C   UNL d   1      32.458  17.506 -23.356  0.00  0.00     0.000 A 
ATOM     19  C   UNL d   1      32.772  17.186 -24.073  0.00  0.00     0.000 A 
ATOM     20  C   UNL d   1      33.150  17.696 -24.593  0.00  0.00     0.000 A 
ATOM     21  C   UNL d   1      33.216  18.508 -24.409  0.00  0.00     0.002 A 
ENDBRANCH   9  16
BRANCH   4  22
ATOM     22  C   UNL d   1      33.212  23.058 -24.286  0.00  0.00     0.231 C 
ATOM     23  O   UNL d   1      33.239  23.201 -25.097  0.00  0.00    -0.643 OA
ATOM     24  O   UNL d   1      33.233  23.673 -23.733  0.00  0.00    -0.643 OA
ENDBRANCH   4  22
TORSDOF 3
ENDMDL
MODEL 5
REMARK VINA RESULT:       2.4      2.750      4.626
REMARK  3 active torsions:
REMARK  status: ('A' for Active; 'I' for Inactive)
REMARK    1  A    between atoms: C_10  and  C_4 
REMARK    2  A    between atoms: C_11  and  C_6 
REMARK    3  A    between atoms: C_12  and  C_9 
ROOT
ATOM      1  N   UNL d   1      33.130  19.723 -22.982  0.00  0.00    -0.212 N 
ATOM      2  C   UNL d   1      33.111  19.378 -22.224  0.00  0.00     0.166 A 
ATOM      3  N   UNL d   1      33.104  19.118 -23.542  0.00  0.00    -0.158 NA
ATOM      4  C   UNL d   1      33.070  18.395 -23.127  0.00  0.00     0.169 A 
ATOM      5  C   UNL d   1      33.075  18.566 -22.329  0.00  0.00     0.066 A 
ATOM      6  C   UNL d   1      33.167  20.546 -23.056  0.00  0.00     0.086 A 
ATOM      7  N   UNL d   1      33.131  19.858 -21.545  0.00  0.00    -0.227 NA
ATOM      8  C   UNL d   1      33.187  21.035 -22.384  0.00  0.00     0.038 A 
ATOM      9  C   UNL d   1      33.169  20.690 -21.626  0.00  0.00     0.085 A 
ENDROOT
BRANCH   6  10
ATOM     10  C   UNL d   1      33.192  21.044 -23.720  0.00  0.00     0.018 A 
ATOM     11  C   UNL d   1      33.210  20.710 -24.472  0.00  0.00     0.002 A 
ATOM     12  C   UNL d   1      33.233  21.164 -25.095  0.00  0.00     0.000 A 
ATOM     13  C   UNL d   1      33.241  22.016 -25.022  0.00  0.00     0.000 A 
ATOM     14  C   UNL d   1      33.225  22.363 -24.299  0.00  0.00     0.000 A 
ATOM     15  C   UNL d   1      33.200  21.867 -23.640  0.00  0.00     0.002 A 
ENDBRANCH   6  10
BRANCH   9  16
ATOM     16  C   UNL d   1      33.187  21.150 -20.955  0.00  0.00     0.018 A 
ATOM     17  C   UNL d   1      33.223  21.968 -21.005  0.00  0.00     0.002 A 
ATOM     18  C   UNL d   1      33.241  22.409 -20.330  0.00  0.00     0.000 A 
ATOM     19  C   UNL d   1      33.223  22.055 -19.561  0.00  0.00     0.000 A 
ATOM     20  C   UNL d   1      33.187  21.238 -19.511  0.00  0.00     0.000 A 
ATOM     21  C   UNL d   1      33.169  20.776 -20.207  0.00  0.00     0.002 A 
ENDBRANCH   9  16
BRANCH   4  22
ATOM     22  C   UNL d   1      33.038  17.650 -23.467  0.00  0.00     0.231 C 
ATOM     23  O   UNL d   1      32.810  17.008 -23.005  0.00  0.00    -0.643 OA
ATOM     24  O   UNL d   1      33.235  17.565 -24.266  0.00  0.00    -0.643 OA
ENDBRANCH   4  22
TORSDOF 3
ENDMDL
