MODEL 1
REMARK VINA RESULT:      -8.3      0.000      0.000
REMARK  2 active torsions:
REMARK  status: ('A' for Active; 'I' for Inactive)
REMARK    1  A    between atoms: C_2  and  N_1 
REMARK    2  A    between atoms: C_4  and  C_7 
ROOT
ATOM      1  C   UNL d   1     -47.006  12.911  23.144  0.00  0.00     0.146 A 
ATOM      2  C   UNL d   1     -47.632  13.391  22.903  0.00  0.00     0.027 A 
ATOM      3  C   UNL d   1     -48.422  13.107  22.950  0.00  0.00     0.021 A 
ATOM      4  C   UNL d   1     -47.156  12.153  23.432  0.00  0.00     0.125 A 
ATOM      5  C   UNL d   1     -48.564  12.351  23.238  0.00  0.00     0.003 A 
ATOM      6  C   UNL d   1     -47.945  11.869  23.479  0.00  0.00     0.023 A 
ATOM      7  N   UNL d   1     -46.528  11.670  23.675  0.00  0.00    -0.146 N 
ENDROOT
BRANCH   3   8
ATOM      8  C   UNL d   1     -49.041  13.589  22.709  0.00  0.00     0.103 A 
ATOM      9  N   UNL d   1     -49.314  14.207  23.187  0.00  0.00    -0.145 NA
ATOM     10  N   UNL d   1     -49.933  14.689  22.945  0.00  0.00    -0.106 NA
ATOM     11  C   UNL d   1     -50.290  14.557  22.212  0.00  0.00     0.297 A 
ATOM     12  C   UNL d   1     -50.021  13.938  21.726  0.00  0.00     0.066 A 
ATOM     13  O   UNL d   1     -50.913  15.037  21.963  0.00  0.00    -0.264 OA
ATOM     14  C   UNL d   1     -49.398  13.457  21.976  0.00  0.00     0.024 A 
ATOM     15  C   UNL d   1     -49.131  12.841  21.490  0.00  0.00     0.002 C 
ENDBRANCH   3   8
BRANCH   1  16
ATOM     16  N   UNL d   1     -46.229  13.191  23.098  0.00  0.00    -0.112 N 
ATOM     17  O   UNL d   1     -45.756  12.990  22.453  0.00  0.00    -0.532 OA
ATOM     18  O   UNL d   1     -45.926  13.670  23.697  0.00  0.00    -0.532 OA
ENDBRANCH   1  16
TORSDOF 2
ENDMDL
MODEL 2
REMARK VINA RESULT:      -8.2      0.871      3.626
REMARK  2 active torsions:
REMARK  status: ('A' for Active; 'I' for Inactive)
REMARK    1  A    between atoms: C_2  and  N_1 
REMARK    2  A    between atoms: C_4  and  C_7 
ROOT
ATOM      1  C   UNL d   1     -49.761  14.138  22.414  0.00  0.00     0.146 A 
ATOM      2  C   UNL d   1     -49.047  13.869  22.726  0.00  0.00     0.027 A 
ATOM      3  C   UNL d   1     -48.678  13.187  22.403  0.00  0.00     0.021 A 
ATOM      4  C   UNL d   1     -50.113  13.738  21.785  0.00  0.00     0.125 A 
ATOM      5  C   UNL d   1     -49.033  12.792  21.777  0.00  0.00     0.003 A 
ATOM      6  C   UNL d   1     -49.744  13.056  21.462  0.00  0.00     0.023 A 
ATOM      7  N   UNL d   1     -50.831  14.007  21.471  0.00  0.00    -0.146 N 
ENDROOT
BRANCH   3   8
ATOM      8  C   UNL d   1     -47.967  12.923  22.717  0.00  0.00     0.103 A 
ATOM      9  N   UNL d   1     -47.256  13.315  22.555  0.00  0.00    -0.145 NA
ATOM     10  N   UNL d   1     -46.545  13.052  22.869  0.00  0.00    -0.106 NA
ATOM     11  C   UNL d   1     -46.536  12.385  23.356  0.00  0.00     0.297 A 
ATOM     12  C   UNL d   1     -47.247  11.986  23.523  0.00  0.00     0.066 A 
ATOM     13  O   UNL d   1     -45.825  12.114  23.676  0.00  0.00    -0.264 OA
ATOM     14  C   UNL d   1     -47.958  12.256  23.204  0.00  0.00     0.024 A 
ATOM     15  C   UNL d   1     -48.665  11.857  23.371  0.00  0.00     0.002 C 
ENDBRANCH   3   8
BRANCH   1  16
ATOM     16  N   UNL d   1     -50.124  14.810  22.733  0.00  0.00    -0.112 N 
ATOM     17  O   UNL d   1     -50.662  14.734  23.353  0.00  0.00    -0.532 OA
ATOM     18  O   UNL d   1     -49.949  15.557  22.430  0.00  0.00    -0.532 OA
ENDBRANCH   1  16
TORSDOF 2
ENDMDL
MODEL 3
REMARK VINA RESULT:      -7.9      1.379      1.781
REMARK  2 active torsions:
REMARK  status: ('A' for Active; 'I' for Inactive)
REMARK    1  A    between atoms: C_2  and  N_1 
REMARK    2  A    between atoms: C_4  and  C_7 
ROOT
ATOM      1  C   UNL d   1     -46.664  13.200  22.961  0.00  0.00     0.146 A 
ATOM      2  C   UNL d   1     -47.403  12.834  22.985  0.00  0.00     0.027 A 
ATOM      3  C   UNL d   1     -48.102  13.295  22.929  0.00  0.00     0.021 A 
ATOM      4  C   UNL d   1     -46.613  14.019  22.881  0.00  0.00     0.125 A 
ATOM      5  C   UNL d   1     -48.045  14.110  22.849  0.00  0.00     0.003 A 
ATOM      6  C   UNL d   1     -47.312  14.480  22.824  0.00  0.00     0.023 A 
ATOM      7  N   UNL d   1     -45.872  14.388  22.856  0.00  0.00    -0.146 N 
ENDROOT
BRANCH   3   8
ATOM      8  C   UNL d   1     -48.835  12.925  22.954  0.00  0.00     0.103 A 
ATOM      9  N   UNL d   1     -49.176  12.699  23.673  0.00  0.00    -0.145 NA
ATOM     10  N   UNL d   1     -49.908  12.329  23.698  0.00  0.00    -0.106 NA
ATOM     11  C   UNL d   1     -50.313  12.179  22.994  0.00  0.00     0.297 A 
ATOM     12  C   UNL d   1     -49.977  12.404  22.267  0.00  0.00     0.066 A 
ATOM     13  O   UNL d   1     -51.050  11.807  23.011  0.00  0.00    -0.264 OA
ATOM     14  C   UNL d   1     -49.240  12.776  22.250  0.00  0.00     0.024 A 
ATOM     15  C   UNL d   1     -48.906  12.999  21.524  0.00  0.00     0.002 C 
ENDBRANCH   3   8
BRANCH   1  16
ATOM     16  N   UNL d   1     -45.975  12.745  23.017  0.00  0.00    -0.112 N 
ATOM     17  O   UNL d   1     -45.438  12.732  22.391  0.00  0.00    -0.532 OA
ATOM     18  O   UNL d   1     -45.824  12.305  23.698  0.00  0.00    -0.532 OA
ENDBRANCH   1  16
TORSDOF 2
ENDMDL
MODEL 4
REMARK VINA RESULT:      -7.5      1.144      3.738
REMARK  2 active torsions:
REMARK  status: ('A' for Active; 'I' for Inactive)
REMARK    1  A    between atoms: C_2  and  N_1 
REMARK    2  A    between atoms: C_4  and  C_7 
ROOT
ATOM      1  C   UNL d   1     -49.807  13.848  22.273  0.00  0.00     0.146 A 
ATOM      2  C   UNL d   1     -49.098  13.450  22.413  0.00  0.00     0.027 A 
ATOM      3  C   UNL d   1     -48.512  13.796  22.905  0.00  0.00     0.021 A 
ATOM      4  C   UNL d   1     -49.939  14.586  22.617  0.00  0.00     0.125 A 
ATOM      5  C   UNL d   1     -48.649  14.531  23.244  0.00  0.00     0.003 A 
ATOM      6  C   UNL d   1     -49.353  14.932  23.109  0.00  0.00     0.023 A 
ATOM      7  N   UNL d   1     -50.650  14.987  22.477  0.00  0.00    -0.146 N 
ENDROOT
BRANCH   3   8
ATOM      8  C   UNL d   1     -47.808  13.395  23.040  0.00  0.00     0.103 A 
ATOM      9  N   UNL d   1     -47.803  12.648  23.397  0.00  0.00    -0.145 NA
ATOM     10  N   UNL d   1     -47.100  12.247  23.532  0.00  0.00    -0.106 NA
ATOM     11  C   UNL d   1     -46.384  12.593  23.309  0.00  0.00     0.297 A 
ATOM     12  C   UNL d   1     -46.381  13.343  22.950  0.00  0.00     0.066 A 
ATOM     13  O   UNL d   1     -45.673  12.195  23.442  0.00  0.00    -0.264 OA
ATOM     14  C   UNL d   1     -47.092  13.741  22.817  0.00  0.00     0.024 A 
ATOM     15  C   UNL d   1     -47.088  14.488  22.459  0.00  0.00     0.002 C 
ENDBRANCH   3   8
BRANCH   1  16
ATOM     16  N   UNL d   1     -50.384  13.507  21.789  0.00  0.00    -0.112 N 
ATOM     17  O   UNL d   1     -50.373  13.642  20.975  0.00  0.00    -0.532 OA
ATOM     18  O   UNL d   1     -50.973  13.032  22.119  0.00  0.00    -0.532 OA
ENDBRANCH   1  16
TORSDOF 2
ENDMDL
MODEL 5
REMARK VINA RESULT:      -6.7      1.388      3.784
REMARK  2 active torsions:
REMARK  status: ('A' for Active; 'I' for Inactive)
REMARK    1  A    between atoms: C_2  and  N_1 
REMARK    2  A    between atoms: C_4  and  C_7 
ROOT
ATOM      1  C   UNL d   1     -50.043  12.808  22.841  0.00  0.00     0.146 A 
ATOM      2  C   UNL d   1     -49.287  12.627  23.116  0.00  0.00     0.027 A 
ATOM      3  C   UNL d   1     -48.658  12.507  22.572  0.00  0.00     0.021 A 
ATOM      4  C   UNL d   1     -50.181  12.871  22.030  0.00  0.00     0.125 A 
ATOM      5  C   UNL d   1     -48.802  12.572  21.767  0.00  0.00     0.003 A 
ATOM      6  C   UNL d   1     -49.553  12.751  21.486  0.00  0.00     0.023 A 
ATOM      7  N   UNL d   1     -50.940  13.053  21.751  0.00  0.00    -0.146 N 
ENDROOT
BRANCH   3   8
ATOM      8  C   UNL d   1     -47.908  12.328  22.853  0.00  0.00     0.103 A 
ATOM      9  N   UNL d   1     -47.730  11.574  23.145  0.00  0.00    -0.145 NA
ATOM     10  N   UNL d   1     -46.979  11.394  23.425  0.00  0.00    -0.106 NA
ATOM     11  C   UNL d   1     -46.391  11.974  23.417  0.00  0.00     0.297 A 
ATOM     12  C   UNL d   1     -46.564  12.734  23.125  0.00  0.00     0.066 A 
ATOM     13  O   UNL d   1     -45.635  11.801  23.698  0.00  0.00    -0.264 OA
ATOM     14  C   UNL d   1     -47.320  12.908  22.845  0.00  0.00     0.024 A 
ATOM     15  C   UNL d   1     -47.490  13.665  22.554  0.00  0.00     0.002 C 
ENDBRANCH   3   8
BRANCH   1  16
ATOM     16  N   UNL d   1     -50.662  12.926  23.377  0.00  0.00    -0.112 N 
ATOM     17  O   UNL d   1     -50.877  13.691  23.596  0.00  0.00    -0.532 OA
ATOM     18  O   UNL d   1     -51.064  12.279  23.692  0.00  0.00    -0.532 OA
ENDBRANCH   1  16
TORSDOF 2
ENDMDL
