MODEL 1
REMARK VINA RESULT:      30.5      0.000      0.000
REMARK  2 active torsions:
REMARK  status: ('A' for Active; 'I' for Inactive)
REMARK    1  A    between atoms: C_10  and  N_1 
REMARK    2  A    between atoms: C_13  and  C_10 
ROOT
ATOM      1  N   UNL d   1      14.404  12.761  -1.252  0.00  0.00    -0.260 N 
ATOM      2  C   UNL d   1      14.655  13.101  -1.951  0.00  0.00     0.174 A 
ATOM      3  C   UNL d   1      13.814  12.229  -1.048  0.00  0.00     0.348 A 
ATOM      4  N   UNL d   1      13.243  11.826  -1.454  0.00  0.00    -0.216 NA
ATOM      5  C   UNL d   1      13.013  11.780  -2.243  0.00  0.00     0.137 A 
ATOM      6  O   UNL d   1      14.430  13.058  -2.733  0.00  0.00    -0.316 OA
ATOM      7  C   UNL d   1      13.794  12.342  -1.749  0.00  0.00     0.079 A 
ATOM      8  C   UNL d   1      13.267  12.121  -2.934  0.00  0.00     0.022 A 
ATOM      9  C   UNL d   1      13.850  12.646  -3.135  0.00  0.00     0.094 A 
ATOM     10  O   UNL d   1      13.806  12.075  -0.256  0.00  0.00    -0.245 OA
ATOM     11  C   UNL d   1      15.280  13.633  -2.000  0.00  0.00     0.055 C 
ATOM     12  C   UNL d   1      12.769  11.809  -3.503  0.00  0.00    -0.001 A 
ATOM     13  C   UNL d   1      13.938  12.867  -3.926  0.00  0.00     0.024 A 
ATOM     14  C   UNL d   1      12.860  12.030  -4.284  0.00  0.00    -0.000 A 
ATOM     15  C   UNL d   1      13.446  12.560  -4.496  0.00  0.00     0.002 A 
ENDROOT
BRANCH   1  16
ATOM     16  C   UNL d   1      14.727  12.891  -0.494  0.00  0.00     0.082 C 
BRANCH  16  17
ATOM     17  C   UNL d   1      15.142  13.616  -0.334  0.00  0.00     0.017 A 
ATOM     18  C   UNL d   1      15.974  13.605  -0.194  0.00  0.00     0.002 A 
ATOM     19  C   UNL d   1      16.390  14.330  -0.034  0.00  0.00     0.000 A 
ATOM     20  C   UNL d   1      15.969  15.062  -0.015  0.00  0.00     0.000 A 
ATOM     21  C   UNL d   1      15.124  15.075  -0.157  0.00  0.00     0.000 A 
ATOM     22  C   UNL d   1      14.721  14.348  -0.315  0.00  0.00     0.002 A 
ENDBRANCH  16  17
ENDBRANCH   1  16
TORSDOF 2
ENDMDL
MODEL 2
REMARK VINA RESULT:      31.9      8.660     10.279
REMARK  2 active torsions:
REMARK  status: ('A' for Active; 'I' for Inactive)
REMARK    1  A    between atoms: C_10  and  N_1 
REMARK    2  A    between atoms: C_13  and  C_10 
ROOT
ATOM      1  N   UNL d   1      23.597  12.359  -3.330  0.00  0.00    -0.260 N 
ATOM      2  C   UNL d   1      22.961  12.728  -2.972  0.00  0.00     0.174 A 
ATOM      3  C   UNL d   1      24.349  12.144  -3.088  0.00  0.00     0.348 A 
ATOM      4  N   UNL d   1      24.768  12.207  -2.400  0.00  0.00    -0.216 NA
ATOM      5  C   UNL d   1      24.616  12.515  -1.652  0.00  0.00     0.137 A 
ATOM      6  O   UNL d   1      22.807  13.034  -2.234  0.00  0.00    -0.316 OA
ATOM      7  C   UNL d   1      24.012  12.456  -2.547  0.00  0.00     0.079 A 
ATOM      8  C   UNL d   1      23.982  12.881  -1.303  0.00  0.00     0.022 A 
ATOM      9  C   UNL d   1      23.238  13.094  -1.542  0.00  0.00     0.094 A 
ATOM     10  O   UNL d   1      24.766  11.783  -3.678  0.00  0.00    -0.245 OA
ATOM     11  C   UNL d   1      22.249  12.882  -3.354  0.00  0.00     0.055 C 
ATOM     12  C   UNL d   1      24.237  13.034  -0.541  0.00  0.00    -0.001 A 
ATOM     13  C   UNL d   1      22.735  13.470  -1.006  0.00  0.00     0.024 A 
ATOM     14  C   UNL d   1      23.736  13.406  -0.014  0.00  0.00    -0.000 A 
ATOM     15  C   UNL d   1      22.983  13.625  -0.247  0.00  0.00     0.002 A 
ENDROOT
BRANCH   1  16
ATOM     16  C   UNL d   1      23.632  12.084  -4.117  0.00  0.00     0.082 C 
BRANCH  16  17
ATOM     17  C   UNL d   1      24.011  12.561  -4.711  0.00  0.00     0.017 A 
ATOM     18  C   UNL d   1      24.294  13.332  -4.517  0.00  0.00     0.002 A 
ATOM     19  C   UNL d   1      24.674  13.809  -5.110  0.00  0.00     0.000 A 
ATOM     20  C   UNL d   1      24.768  13.511  -5.895  0.00  0.00     0.000 A 
ATOM     21  C   UNL d   1      24.482  12.728  -6.093  0.00  0.00     0.000 A 
ATOM     22  C   UNL d   1      24.106  12.262  -5.495  0.00  0.00     0.002 A 
ENDBRANCH  16  17
ENDBRANCH   1  16
TORSDOF 2
ENDMDL
