MODEL 1
REMARK VINA RESULT:      33.0      0.000      0.000
REMARK  4 active torsions:
REMARK  status: ('A' for Active; 'I' for Inactive)
REMARK    1  A    between atoms: N_2  and  S_1 
REMARK    2  A    between atoms: C_5  and  S_1 
REMARK    3  A    between atoms: C_4  and  C_3 
REMARK    4  A    between atoms: C_12  and  C_3 
ROOT
ATOM      1  N   UNL d   1      45.241 -16.269  44.326  0.00  0.00    -0.230 N 
ATOM      2  C   UNL d   1      45.859 -17.708  43.807  0.00  0.00     0.137 A 
ATOM      3  C   UNL d   1      45.566 -17.630  44.567  0.00  0.00     0.011 A 
ATOM      4  C   UNL d   1      45.842 -17.055  43.301  0.00  0.00     0.011 A 
ATOM      5  C   UNL d   1      45.532 -16.335  43.561  0.00  0.00     0.088 A 
ATOM      6  C   UNL d   1      45.257 -16.911  44.826  0.00  0.00     0.088 A 
ENDROOT
BRANCH   1   7
ATOM      7  S   UNL d   1      44.931 -15.550  44.586  0.00  0.00     0.271 S 
ATOM      8  O   UNL d   1      44.197 -15.526  44.955  0.00  0.00    -0.200 OA
ATOM      9  O   UNL d   1      44.369 -16.116  44.783  0.00  0.00    -0.200 OA
BRANCH   7  10
ATOM     10  C   UNL d   1      45.358 -14.854  44.476  0.00  0.00     0.104 A 
ATOM     11  C   UNL d   1      45.999 -14.687  44.955  0.00  0.00     0.013 A 
ATOM     12  C   UNL d   1      46.432 -13.990  44.850  0.00  0.00     0.001 A 
ATOM     13  C   UNL d   1      46.207 -13.458  44.248  0.00  0.00     0.000 A 
ATOM     14  C   UNL d   1      45.559 -13.634  43.768  0.00  0.00     0.001 A 
ATOM     15  C   UNL d   1      46.641 -12.761  44.143  0.00  0.00     0.000 C 
ATOM     16  C   UNL d   1      45.139 -14.328  43.883  0.00  0.00     0.013 A 
ENDBRANCH   7  10
ENDBRANCH   1   7
BRANCH   2  17
ATOM     17  C   UNL d   1      46.074 -17.502  43.027  0.00  0.00     0.196 C 
ATOM     18  O   UNL d   1      46.548 -16.851  42.884  0.00  0.00    -0.647 OA
ATOM     19  O   UNL d   1      45.802 -17.962  42.397  0.00  0.00    -0.647 OA
ENDBRANCH   2  17
BRANCH   2  20
ATOM     20  C   UNL d   1      46.119 -18.488  43.737  0.00  0.00    -0.005 A 
ATOM     21  C   UNL d   1      46.227 -18.807  42.986  0.00  0.00    -0.003 A 
ATOM     22  C   UNL d   1      46.487 -19.588  42.908  0.00  0.00    -0.000 A 
ATOM     23  C   UNL d   1      46.640 -20.048  43.580  0.00  0.00    -0.000 A 
ATOM     24  C   UNL d   1      46.528 -19.717  44.333  0.00  0.00    -0.000 A 
ATOM     25  C   UNL d   1      46.270 -18.944  44.404  0.00  0.00    -0.003 A 
ENDBRANCH   2  20
TORSDOF 4
ENDMDL
