MODEL 1
REMARK VINA RESULT:      48.6      0.000      0.000
REMARK  3 active torsions:
REMARK  status: ('A' for Active; 'I' for Inactive)
REMARK    1  A    between atoms: S_10  and  C_3 
REMARK    2  A    between atoms: C_14  and  S_10 
REMARK    3  A    between atoms: C_16  and  C_14 
ROOT
ATOM      1  C   UNL d   1     -57.230 -98.844 -43.544  0.00  0.00     0.155 A 
ATOM      2  C   UNL d   1     -57.197 -98.801 -44.369  0.00  0.00     0.107 A 
ATOM      3  C   UNL d   1     -55.774 -98.785 -44.305  0.00  0.00     0.182 A 
ATOM      4  N   UNL d   1     -55.804 -98.827 -43.489  0.00  0.00    -0.250 N 
ATOM      5  N   UNL d   1     -56.463 -98.771 -44.752  0.00  0.00    -0.220 NA
ATOM      6  C   UNL d   1     -56.538 -98.856 -43.105  0.00  0.00     0.285 A 
ATOM      7  N   UNL d   1     -58.021 -98.866 -43.320  0.00  0.00    -0.239 NA
ATOM      8  C   UNL d   1     -57.965 -98.797 -44.660  0.00  0.00     0.037 A 
ATOM      9  C   UNL d   1     -58.481 -98.838 -44.007  0.00  0.00     0.083 A 
ATOM     10  O   UNL d   1     -56.562 -98.899 -42.277  0.00  0.00    -0.265 OA
ATOM     11  C   UNL d   1     -55.103 -98.839 -43.046  0.00  0.00     0.104 C 
ATOM     12  C   UNL d   1     -58.270 -98.762 -45.421  0.00  0.00     0.003 A 
ATOM     13  C   UNL d   1     -59.299 -98.843 -44.127  0.00  0.00     0.019 A 
ATOM     14  C   UNL d   1     -59.088 -98.768 -45.540  0.00  0.00     0.000 A 
ATOM     15  C   UNL d   1     -59.597 -98.808 -44.896  0.00  0.00     0.002 A 
ENDROOT
BRANCH   3  16
ATOM     16  S   UNL d   1     -55.042 -98.755 -44.683  0.00  0.00    -0.050 SA
BRANCH  16  17
ATOM     17  C   UNL d   1     -54.894 -99.232 -45.340  0.00  0.00     0.032 C 
ATOM     18  C   UNL d   1     -54.899 -98.906 -46.095  0.00  0.00     0.007 C 
BRANCH  17  19
ATOM     19  C   UNL d   1     -54.741-100.034 -45.231  0.00  0.00     0.007 C 
ATOM     20  C   UNL d   1     -54.712-100.543 -45.884  0.00  0.00     0.001 C 
ENDBRANCH  17  19
ENDBRANCH  16  17
ENDBRANCH   3  16
TORSDOF 3
ENDMDL
