MODEL 1
REMARK VINA RESULT:      -2.8      0.000      0.000
REMARK  4 active torsions:
REMARK  status: ('A' for Active; 'I' for Inactive)
REMARK    1  A    between atoms: N_4  and  C_1 
REMARK    2  A    between atoms: N_9  and  N_4 
REMARK    3  A    between atoms: C_8  and  C_7 
REMARK    4  A    between atoms: C_10  and  N_9 
ROOT
ATOM      1  N   UNL d   1      30.860  16.391 -23.647  0.00  0.00    -0.146 NA
ENDROOT
BRANCH   1   2
ATOM      2  C   UNL d   1      31.559  16.613 -24.025  0.00  0.00     0.122 A 
ATOM      3  C   UNL d   1      31.954  16.216 -24.642  0.00  0.00     0.101 A 
ATOM      4  N   UNL d   1      32.612  16.618 -24.850  0.00  0.00    -0.244 NA
ATOM      5  C   UNL d   1      31.720  15.538 -24.983  0.00  0.00     0.022 C 
ATOM      6  C   UNL d   1      32.669  17.276 -24.385  0.00  0.00     0.083 A 
ATOM      7  C   UNL d   1      32.003  17.287 -23.853  0.00  0.00     0.039 A 
ATOM      8  C   UNL d   1      33.203  17.888 -24.333  0.00  0.00     0.019 A 
ATOM      9  C   UNL d   1      31.912  17.913 -23.298  0.00  0.00     0.003 A 
ATOM     10  C   UNL d   1      32.481  18.526 -23.271  0.00  0.00     0.000 A 
ATOM     11  C   UNL d   1      33.115  18.494 -23.796  0.00  0.00     0.002 A 
ENDBRANCH   1   2
BRANCH   1  12
ATOM     12  N   UNL d   1      30.142  16.772 -23.839  0.00  0.00    -0.148 NA
BRANCH  12  13
ATOM     13  C   UNL d   1      29.394  16.468 -23.617  0.00  0.00     0.109 A 
ATOM     14  C   UNL d   1      28.706  16.833 -23.845  0.00  0.00     0.084 A 
ATOM     15  C   UNL d   1      27.976  16.522 -23.619  0.00  0.00     0.008 A 
ATOM     16  C   UNL d   1      27.960  15.815 -23.144  0.00  0.00     0.000 A 
ATOM     17  C   UNL d   1      28.685  15.453 -22.917  0.00  0.00     0.002 A 
ATOM     18  C   UNL d   1      29.393  15.803 -23.170  0.00  0.00     0.021 A 
BRANCH  14  19
ATOM     19  C   UNL d   1      28.736  17.510 -24.301  0.00  0.00     0.212 C 
ATOM     20  O   UNL d   1      28.927  17.480 -25.097  0.00  0.00    -0.644 OA
ATOM     21  O   UNL d   1      28.574  18.258 -23.982  0.00  0.00    -0.644 OA
ENDBRANCH  14  19
ENDBRANCH  12  13
ENDBRANCH   1  12
TORSDOF 4
ENDMDL
MODEL 2
REMARK VINA RESULT:      -2.8      1.704      3.948
REMARK  4 active torsions:
REMARK  status: ('A' for Active; 'I' for Inactive)
REMARK    1  A    between atoms: N_4  and  C_1 
REMARK    2  A    between atoms: N_9  and  N_4 
REMARK    3  A    between atoms: C_8  and  C_7 
REMARK    4  A    between atoms: C_10  and  N_9 
ROOT
ATOM      1  N   UNL d   1      30.839  17.235 -24.816  0.00  0.00    -0.146 NA
ENDROOT
BRANCH   1   2
ATOM      2  C   UNL d   1      30.258  16.682 -24.621  0.00  0.00     0.122 A 
ATOM      3  C   UNL d   1      30.271  15.859 -24.753  0.00  0.00     0.101 A 
ATOM      4  N   UNL d   1      29.598  15.527 -24.481  0.00  0.00    -0.244 NA
ATOM      5  C   UNL d   1      30.861  15.453 -25.097  0.00  0.00     0.022 C 
ATOM      6  C   UNL d   1      29.132  16.108 -24.169  0.00  0.00     0.083 A 
ATOM      7  C   UNL d   1      29.540  16.852 -24.252  0.00  0.00     0.039 A 
ATOM      8  C   UNL d   1      28.398  16.118 -23.817  0.00  0.00     0.019 A 
ATOM      9  C   UNL d   1      29.187  17.564 -23.975  0.00  0.00     0.003 A 
ATOM     10  C   UNL d   1      28.431  17.537 -23.617  0.00  0.00     0.000 A 
ATOM     11  C   UNL d   1      28.057  16.807 -23.549  0.00  0.00     0.002 A 
ENDBRANCH   1   2
BRANCH   1  12
ATOM     12  N   UNL d   1      31.545  17.271 -24.372  0.00  0.00    -0.148 NA
BRANCH  12  13
ATOM     13  C   UNL d   1      32.079  17.915 -24.421  0.00  0.00     0.109 A 
ATOM     14  C   UNL d   1      32.704  17.983 -23.908  0.00  0.00     0.084 A 
ATOM     15  C   UNL d   1      33.222  18.624 -23.968  0.00  0.00     0.008 A 
ATOM     16  C   UNL d   1      33.086  19.206 -24.575  0.00  0.00     0.000 A 
ATOM     17  C   UNL d   1      32.431  19.116 -25.096  0.00  0.00     0.002 A 
ATOM     18  C   UNL d   1      31.939  18.455 -24.996  0.00  0.00     0.021 A 
BRANCH  14  19
ATOM     19  C   UNL d   1      32.823  17.418 -23.331  0.00  0.00     0.212 C 
ATOM     20  O   UNL d   1      33.239  16.730 -23.488  0.00  0.00    -0.644 OA
ATOM     21  O   UNL d   1      32.529  17.511 -22.562  0.00  0.00    -0.644 OA
ENDBRANCH  14  19
ENDBRANCH  12  13
ENDBRANCH   1  12
TORSDOF 4
ENDMDL
MODEL 3
REMARK VINA RESULT:      -2.0      2.038      3.409
REMARK  4 active torsions:
REMARK  status: ('A' for Active; 'I' for Inactive)
REMARK    1  A    between atoms: N_4  and  C_1 
REMARK    2  A    between atoms: N_9  and  N_4 
REMARK    3  A    between atoms: C_8  and  C_7 
REMARK    4  A    between atoms: C_10  and  N_9 
ROOT
ATOM      1  N   UNL d   1      33.034  18.485 -23.220  0.00  0.00    -0.146 NA
ENDROOT
BRANCH   1   2
ATOM      2  C   UNL d   1      33.102  19.307 -23.224  0.00  0.00     0.122 A 
ATOM      3  C   UNL d   1      33.198  19.808 -23.883  0.00  0.00     0.101 A 
ATOM      4  N   UNL d   1      33.241  20.569 -23.646  0.00  0.00    -0.244 NA
ATOM      5  C   UNL d   1      33.240  19.576 -24.642  0.00  0.00     0.022 C 
ATOM      6  C   UNL d   1      33.177  20.591 -22.840  0.00  0.00     0.083 A 
ATOM      7  C   UNL d   1      33.088  19.792 -22.557  0.00  0.00     0.039 A 
ATOM      8  C   UNL d   1      33.181  21.189 -22.288  0.00  0.00     0.019 A 
ATOM      9  C   UNL d   1      33.008  19.640 -21.733  0.00  0.00     0.003 A 
ATOM     10  C   UNL d   1      33.016  20.278 -21.193  0.00  0.00     0.000 A 
ATOM     11  C   UNL d   1      33.103  21.041 -21.491  0.00  0.00     0.002 A 
ENDBRANCH   1   2
BRANCH   1  12
ATOM     12  N   UNL d   1      32.476  18.110 -23.715  0.00  0.00    -0.148 NA
BRANCH  12  13
ATOM     13  C   UNL d   1      32.388  17.277 -23.750  0.00  0.00     0.109 A 
ATOM     14  C   UNL d   1      31.695  16.937 -23.999  0.00  0.00     0.084 A 
ATOM     15  C   UNL d   1      31.623  16.115 -24.029  0.00  0.00     0.008 A 
ATOM     16  C   UNL d   1      32.287  15.636 -23.794  0.00  0.00     0.000 A 
ATOM     17  C   UNL d   1      32.996  16.009 -23.538  0.00  0.00     0.002 A 
ATOM     18  C   UNL d   1      33.020  16.839 -23.526  0.00  0.00     0.021 A 
BRANCH  14  19
ATOM     19  C   UNL d   1      31.066  17.409 -24.222  0.00  0.00     0.212 C 
ATOM     20  O   UNL d   1      30.467  17.595 -23.696  0.00  0.00    -0.644 OA
ATOM     21  O   UNL d   1      31.005  17.720 -24.988  0.00  0.00    -0.644 OA
ENDBRANCH  14  19
ENDBRANCH  12  13
ENDBRANCH   1  12
TORSDOF 4
ENDMDL
MODEL 4
REMARK VINA RESULT:      -1.2      1.341      1.526
REMARK  4 active torsions:
REMARK  status: ('A' for Active; 'I' for Inactive)
REMARK    1  A    between atoms: N_4  and  C_1 
REMARK    2  A    between atoms: N_9  and  N_4 
REMARK    3  A    between atoms: C_8  and  C_7 
REMARK    4  A    between atoms: C_10  and  N_9 
ROOT
ATOM      1  N   UNL d   1      30.911  16.311 -24.442  0.00  0.00    -0.146 NA
ENDROOT
BRANCH   1   2
ATOM      2  C   UNL d   1      31.610  16.709 -24.257  0.00  0.00     0.122 A 
ATOM      3  C   UNL d   1      32.289  16.401 -23.884  0.00  0.00     0.101 A 
ATOM      4  N   UNL d   1      32.843  16.972 -23.808  0.00  0.00    -0.244 NA
ATOM      5  C   UNL d   1      32.385  15.652 -23.637  0.00  0.00     0.022 C 
ATOM      6  C   UNL d   1      32.550  17.657 -24.121  0.00  0.00     0.083 A 
ATOM      7  C   UNL d   1      31.764  17.504 -24.412  0.00  0.00     0.039 A 
ATOM      8  C   UNL d   1      32.844  18.411 -24.206  0.00  0.00     0.019 A 
ATOM      9  C   UNL d   1      31.316  18.120 -24.771  0.00  0.00     0.003 A 
ATOM     10  C   UNL d   1      31.649  18.884 -24.842  0.00  0.00     0.000 A 
ATOM     11  C   UNL d   1      32.411  19.007 -24.553  0.00  0.00     0.002 A 
ENDBRANCH   1   2
BRANCH   1  12
ATOM     12  N   UNL d   1      30.305  16.245 -23.872  0.00  0.00    -0.148 NA
BRANCH  12  13
ATOM     13  C   UNL d   1      29.533  15.978 -24.060  0.00  0.00     0.109 A 
ATOM     14  C   UNL d   1      28.981  15.845 -23.480  0.00  0.00     0.084 A 
ATOM     15  C   UNL d   1      28.224  15.582 -23.680  0.00  0.00     0.008 A 
ATOM     16  C   UNL d   1      28.038  15.454 -24.501  0.00  0.00     0.000 A 
ATOM     17  C   UNL d   1      28.625  15.598 -25.086  0.00  0.00     0.002 A 
ATOM     18  C   UNL d   1      29.371  15.861 -24.836  0.00  0.00     0.021 A 
BRANCH  14  19
ATOM     19  C   UNL d   1      29.173  15.972 -22.697  0.00  0.00     0.212 C 
ATOM     20  O   UNL d   1      29.656  15.453 -22.287  0.00  0.00    -0.644 OA
ATOM     21  O   UNL d   1      28.890  16.630 -22.279  0.00  0.00    -0.644 OA
ENDBRANCH  14  19
ENDBRANCH  12  13
ENDBRANCH   1  12
TORSDOF 4
ENDMDL
MODEL 5
REMARK VINA RESULT:      -0.9      1.112      1.573
REMARK  4 active torsions:
REMARK  status: ('A' for Active; 'I' for Inactive)
REMARK    1  A    between atoms: N_4  and  C_1 
REMARK    2  A    between atoms: N_9  and  N_4 
REMARK    3  A    between atoms: C_8  and  C_7 
REMARK    4  A    between atoms: C_10  and  N_9 
ROOT
ATOM      1  N   UNL d   1      30.760  17.077 -24.500  0.00  0.00    -0.146 NA
ENDROOT
BRANCH   1   2
ATOM      2  C   UNL d   1      31.457  16.701 -24.269  0.00  0.00     0.122 A 
ATOM      3  C   UNL d   1      31.764  15.977 -24.546  0.00  0.00     0.101 A 
ATOM      4  N   UNL d   1      32.452  15.811 -24.177  0.00  0.00    -0.244 NA
ATOM      5  C   UNL d   1      31.430  15.511 -25.096  0.00  0.00     0.022 C 
ATOM      6  C   UNL d   1      32.616  16.408 -23.658  0.00  0.00     0.083 A 
ATOM      7  C   UNL d   1      31.989  16.983 -23.705  0.00  0.00     0.039 A 
ATOM      8  C   UNL d   1      33.223  16.553 -23.135  0.00  0.00     0.019 A 
ATOM      9  C   UNL d   1      32.008  17.673 -23.223  0.00  0.00     0.003 A 
ATOM     10  C   UNL d   1      32.647  17.791 -22.696  0.00  0.00     0.000 A 
ATOM     11  C   UNL d   1      33.241  17.220 -22.669  0.00  0.00     0.002 A 
ENDBRANCH   1   2
BRANCH   1  12
ATOM     12  N   UNL d   1      30.022  16.726 -24.334  0.00  0.00    -0.148 NA
BRANCH  12  13
ATOM     13  C   UNL d   1      29.307  17.164 -24.305  0.00  0.00     0.109 A 
ATOM     14  C   UNL d   1      28.648  16.869 -23.936  0.00  0.00     0.084 A 
ATOM     15  C   UNL d   1      27.951  17.312 -23.916  0.00  0.00     0.008 A 
ATOM     16  C   UNL d   1      27.940  18.078 -24.287  0.00  0.00     0.000 A 
ATOM     17  C   UNL d   1      28.636  18.364 -24.665  0.00  0.00     0.002 A 
ATOM     18  C   UNL d   1      29.311  17.883 -24.659  0.00  0.00     0.021 A 
BRANCH  14  19
ATOM     19  C   UNL d   1      28.672  16.133 -23.583  0.00  0.00     0.212 C 
ATOM     20  O   UNL d   1      28.494  15.453 -24.005  0.00  0.00    -0.644 OA
ATOM     21  O   UNL d   1      28.876  16.038 -22.786  0.00  0.00    -0.644 OA
ENDBRANCH  14  19
ENDBRANCH  12  13
ENDBRANCH   1  12
TORSDOF 4
ENDMDL
MODEL 6
REMARK VINA RESULT:      -0.5      3.148      4.668
REMARK  4 active torsions:
REMARK  status: ('A' for Active; 'I' for Inactive)
REMARK    1  A    between atoms: N_4  and  C_1 
REMARK    2  A    between atoms: N_9  and  N_4 
REMARK    3  A    between atoms: C_8  and  C_7 
REMARK    4  A    between atoms: C_10  and  N_9 
ROOT
ATOM      1  N   UNL d   1      33.241  19.974 -22.510  0.00  0.00    -0.146 NA
ENDROOT
BRANCH   1   2
ATOM      2  C   UNL d   1      33.092  20.765 -22.327  0.00  0.00     0.122 A 
ATOM      3  C   UNL d   1      33.093  21.418 -22.844  0.00  0.00     0.101 A 
ATOM      4  N   UNL d   1      32.921  22.087 -22.443  0.00  0.00    -0.244 NA
ATOM      5  C   UNL d   1      33.241  21.393 -23.625  0.00  0.00     0.022 C 
ATOM      6  C   UNL d   1      32.805  21.897 -21.666  0.00  0.00     0.083 A 
ATOM      7  C   UNL d   1      32.911  21.057 -21.577  0.00  0.00     0.039 A 
ATOM      8  C   UNL d   1      32.620  22.327 -21.001  0.00  0.00     0.019 A 
ATOM      9  C   UNL d   1      32.824  20.695 -20.822  0.00  0.00     0.003 A 
ATOM     10  C   UNL d   1      32.632  21.167 -20.158  0.00  0.00     0.000 A 
ATOM     11  C   UNL d   1      32.535  21.978 -20.270  0.00  0.00     0.002 A 
ENDBRANCH   1   2
BRANCH   1  12
ATOM     12  N   UNL d   1      32.681  19.535 -22.947  0.00  0.00    -0.148 NA
BRANCH  12  13
ATOM     13  C   UNL d   1      32.734  18.705 -23.047  0.00  0.00     0.109 A 
ATOM     14  C   UNL d   1      32.380  18.333 -23.675  0.00  0.00     0.084 A 
ATOM     15  C   UNL d   1      32.441  17.513 -23.760  0.00  0.00     0.008 A 
ATOM     16  C   UNL d   1      32.880  17.072 -23.179  0.00  0.00     0.000 A 
ATOM     17  C   UNL d   1      33.239  17.478 -22.535  0.00  0.00     0.002 A 
ATOM     18  C   UNL d   1      33.150  18.301 -22.493  0.00  0.00     0.021 A 
BRANCH  14  19
ATOM     19  C   UNL d   1      31.962  18.768 -24.225  0.00  0.00     0.212 C 
ATOM     20  O   UNL d   1      32.338  19.127 -24.858  0.00  0.00    -0.644 OA
ATOM     21  O   UNL d   1      31.142  18.869 -24.169  0.00  0.00    -0.644 OA
ENDBRANCH  14  19
ENDBRANCH  12  13
ENDBRANCH   1  12
TORSDOF 4
ENDMDL
MODEL 7
REMARK VINA RESULT:      -0.4      2.052      4.018
REMARK  4 active torsions:
REMARK  status: ('A' for Active; 'I' for Inactive)
REMARK    1  A    between atoms: N_4  and  C_1 
REMARK    2  A    between atoms: N_9  and  N_4 
REMARK    3  A    between atoms: C_8  and  C_7 
REMARK    4  A    between atoms: C_10  and  N_9 
ROOT
ATOM      1  N   UNL d   1      32.033  17.931 -23.393  0.00  0.00    -0.146 NA
ENDROOT
BRANCH   1   2
ATOM      2  C   UNL d   1      31.953  17.153 -23.656  0.00  0.00     0.122 A 
ATOM      3  C   UNL d   1      32.489  16.522 -23.556  0.00  0.00     0.101 A 
ATOM      4  N   UNL d   1      32.200  15.860 -23.895  0.00  0.00    -0.244 NA
ATOM      5  C   UNL d   1      33.188  16.561 -23.180  0.00  0.00     0.022 C 
ATOM      6  C   UNL d   1      31.481  16.031 -24.222  0.00  0.00     0.083 A 
ATOM      7  C   UNL d   1      31.310  16.853 -24.077  0.00  0.00     0.039 A 
ATOM      8  C   UNL d   1      30.929  15.597 -24.633  0.00  0.00     0.019 A 
ATOM      9  C   UNL d   1      30.592  17.193 -24.355  0.00  0.00     0.003 A 
ATOM     10  C   UNL d   1      30.046  16.718 -24.775  0.00  0.00     0.000 A 
ATOM     11  C   UNL d   1      30.235  15.926 -24.902  0.00  0.00     0.002 A 
ENDBRANCH   1   2
BRANCH   1  12
ATOM     12  N   UNL d   1      32.634  18.418 -23.706  0.00  0.00    -0.148 NA
BRANCH  12  13
ATOM     13  C   UNL d   1      32.838  19.159 -23.373  0.00  0.00     0.109 A 
ATOM     14  C   UNL d   1      32.970  19.808 -23.840  0.00  0.00     0.084 A 
ATOM     15  C   UNL d   1      33.170  20.532 -23.497  0.00  0.00     0.008 A 
ATOM     16  C   UNL d   1      33.233  20.582 -22.649  0.00  0.00     0.000 A 
ATOM     17  C   UNL d   1      33.091  19.895 -22.183  0.00  0.00     0.002 A 
ATOM     18  C   UNL d   1      32.893  19.191 -22.574  0.00  0.00     0.021 A 
BRANCH  14  19
ATOM     19  C   UNL d   1      32.907  19.747 -24.652  0.00  0.00     0.212 C 
ATOM     20  O   UNL d   1      32.508  20.312 -25.091  0.00  0.00    -0.644 OA
ATOM     21  O   UNL d   1      33.241  19.114 -25.069  0.00  0.00    -0.644 OA
ENDBRANCH  14  19
ENDBRANCH  12  13
ENDBRANCH   1  12
TORSDOF 4
ENDMDL
