MODEL 1
REMARK VINA RESULT:      52.0      0.000      0.000
REMARK  6 active torsions:
REMARK  status: ('A' for Active; 'I' for Inactive)
REMARK    1  A    between atoms: C_6  and  N_2 
REMARK    2  A    between atoms: C_7  and  C_6 
REMARK    3  A    between atoms: C_8  and  C_7 
REMARK       I    between atoms: N_13  and  C_8 
REMARK    4  A    between atoms: C_10  and  C_17 
REMARK    5  A    between atoms: C_14  and  N_13 
REMARK    6  A    between atoms: C_17  and  C_14 
ROOT
ATOM      1  C   UNL d   1      59.945  49.657  50.797  0.00  0.00     0.082 C 
ENDROOT
BRANCH   1   2
ATOM      2  C   UNL d   1      59.164  49.483  50.986  0.00  0.00     0.088 C 
BRANCH   2   3
ATOM      3  N   UNL d   1      58.572  49.559  50.418  0.00  0.00    -0.268 N 
ATOM      4  C   UNL d   1      58.685  49.624  49.606  0.00  0.00     0.296 A 
ATOM      5  S   UNL d   1      57.905  49.689  49.256  0.00  0.00    -0.025 SA
ATOM      6  O   UNL d   1      59.413  49.625  49.217  0.00  0.00    -0.259 OA
ATOM      7  C   UNL d   1      57.373  49.662  49.844  0.00  0.00     0.050 A 
ATOM      8  C   UNL d   1      56.545  49.701  49.819  0.00  0.00     0.008 A 
ATOM      9  C   UNL d   1      57.761  49.582  50.568  0.00  0.00     0.073 A 
ATOM     10  C   UNL d   1      56.106  49.660  50.522  0.00  0.00     0.001 A 
ATOM     11  C   UNL d   1      56.504  49.580  51.241  0.00  0.00     0.002 A 
ATOM     12  C   UNL d   1      57.330  49.541  51.262  0.00  0.00     0.018 A 
ENDBRANCH   2   3
ENDBRANCH   1   2
BRANCH   1  13
ATOM     13  C   UNL d   1      60.548  49.127  50.983  0.00  0.00     0.281 C 
ATOM     14  O   UNL d   1      61.312  49.407  51.124  0.00  0.00    -0.265 OA
ATOM     15  N   UNL d   1      60.396  48.321  51.030  0.00  0.00    -0.206 NA
BRANCH  15  16
ATOM     16  C   UNL d   1      60.997  47.795  51.215  0.00  0.00     0.102 C 
BRANCH  16  17
ATOM     17  C   UNL d   1      60.895  46.989  51.095  0.00  0.00     0.021 C 
BRANCH  17  18
ATOM     18  C   UNL d   1      61.292  46.602  50.484  0.00  0.00     0.002 A 
ATOM     19  C   UNL d   1      60.879  46.056  50.007  0.00  0.00     0.000 A 
ATOM     20  C   UNL d   1      61.280  45.669  49.393  0.00  0.00     0.000 A 
ATOM     21  C   UNL d   1      62.075  45.820  49.255  0.00  0.00     0.000 A 
ATOM     22  C   UNL d   1      62.480  46.363  49.732  0.00  0.00     0.000 A 
ATOM     23  C   UNL d   1      62.103  46.758  50.346  0.00  0.00     0.000 A 
ENDBRANCH  17  18
ENDBRANCH  16  17
ENDBRANCH  15  16
ENDBRANCH   1  13
TORSDOF 6
ENDMDL
