MODEL 1
REMARK VINA RESULT:      17.5      0.000      0.000
REMARK  3 active torsions:
REMARK  status: ('A' for Active; 'I' for Inactive)
REMARK    1  A    between atoms: C_7  and  N_1 
REMARK    2  A    between atoms: C_2  and  C_5 
REMARK    3  A    between atoms: N_3  and  C_2 
REMARK       I    between atoms: C_6  and  N_4 
ROOT
ATOM      1  C   UNL d   1      45.001 -15.212  44.600  0.00  0.00     0.120 C 
ATOM      2  S   UNL d   1      44.254 -15.218  44.953  0.00  0.00    -0.059 SA
ENDROOT
BRANCH   1   3
ATOM      3  C   UNL d   1      45.389 -14.488  44.466  0.00  0.00     0.028 A 
ATOM      4  C   UNL d   1      45.148 -14.002  43.842  0.00  0.00     0.026 A 
ATOM      5  C   UNL d   1      45.531 -13.284  43.707  0.00  0.00     0.127 A 
ATOM      6  C   UNL d   1      46.154 -13.052  44.195  0.00  0.00     0.024 A 
ATOM      7  C   UNL d   1      46.395 -13.538  44.819  0.00  0.00     0.002 A 
ATOM      8  C   UNL d   1      46.012 -14.256  44.955  0.00  0.00     0.002 A 
BRANCH   5   9
ATOM      9  N   UNL d   1      45.294 -12.794  43.084  0.00  0.00    -0.114 N 
ATOM     10  O   UNL d   1      45.691 -12.805  42.359  0.00  0.00    -0.532 OA
ATOM     11  O   UNL d   1      44.651 -12.290  43.198  0.00  0.00    -0.532 OA
ENDBRANCH   5   9
ENDBRANCH   1   3
BRANCH   1  12
ATOM     12  N   UNL d   1      45.362 -15.921  44.382  0.00  0.00    -0.293 N 
ATOM     13  C   UNL d   1      45.550 -16.062  43.587  0.00  0.00     0.100 A 
ATOM     14  C   UNL d   1      45.910 -16.771  43.368  0.00  0.00     0.102 A 
ATOM     15  N   UNL d   1      46.084 -17.342  43.941  0.00  0.00    -0.269 N 
ATOM     16  C   UNL d   1      45.896 -17.201  44.735  0.00  0.00     0.102 A 
ATOM     17  C   UNL d   1      46.445 -18.050  43.722  0.00  0.00     0.265 C 
ATOM     18  C   UNL d   1      45.535 -16.492  44.955  0.00  0.00     0.100 A 
ATOM     19  O   UNL d   1      46.619 -18.621  44.295  0.00  0.00    -0.267 OA
ATOM     20  C   UNL d   1      46.633 -18.192  42.933  0.00  0.00     0.066 C 
ENDBRANCH   1  12
TORSDOF 3
ENDMDL
MODEL 2
REMARK VINA RESULT:      19.8      1.590      2.349
REMARK  3 active torsions:
REMARK  status: ('A' for Active; 'I' for Inactive)
REMARK    1  A    between atoms: C_7  and  N_1 
REMARK    2  A    between atoms: C_2  and  C_5 
REMARK    3  A    between atoms: N_3  and  C_2 
REMARK       I    between atoms: C_6  and  N_4 
ROOT
ATOM      1  C   UNL d   1      45.521 -13.002  44.399  0.00  0.00     0.120 C 
ATOM      2  S   UNL d   1      45.868 -12.491  44.948  0.00  0.00    -0.059 SA
ENDROOT
BRANCH   1   3
ATOM      3  C   UNL d   1      45.150 -12.693  43.722  0.00  0.00     0.028 A 
ATOM      4  C   UNL d   1      45.553 -12.683  43.000  0.00  0.00     0.026 A 
ATOM      5  C   UNL d   1      45.188 -12.377  42.327  0.00  0.00     0.127 A 
ATOM      6  C   UNL d   1      44.420 -12.080  42.375  0.00  0.00     0.024 A 
ATOM      7  C   UNL d   1      44.017 -12.089  43.097  0.00  0.00     0.002 A 
ATOM      8  C   UNL d   1      44.381 -12.396  43.771  0.00  0.00     0.002 A 
BRANCH   5   9
ATOM      9  N   UNL d   1      45.587 -12.365  41.602  0.00  0.00    -0.114 N 
ATOM     10  O   UNL d   1      45.220 -12.080  40.919  0.00  0.00    -0.532 OA
ATOM     11  O   UNL d   1      46.363 -12.645  41.573  0.00  0.00    -0.532 OA
ENDBRANCH   5   9
ENDBRANCH   1   3
BRANCH   1  12
ATOM     12  N   UNL d   1      45.542 -13.818  44.523  0.00  0.00    -0.293 N 
ATOM     13  C   UNL d   1      44.835 -14.246  44.584  0.00  0.00     0.100 A 
ATOM     14  C   UNL d   1      44.856 -15.061  44.708  0.00  0.00     0.102 A 
ATOM     15  N   UNL d   1      45.582 -15.453  44.770  0.00  0.00    -0.269 N 
ATOM     16  C   UNL d   1      46.289 -15.025  44.708  0.00  0.00     0.102 A 
ATOM     17  C   UNL d   1      45.603 -16.268  44.893  0.00  0.00     0.265 C 
ATOM     18  C   UNL d   1      46.268 -14.209  44.585  0.00  0.00     0.100 A 
ATOM     19  O   UNL d   1      46.328 -16.659  44.955  0.00  0.00    -0.267 OA
ATOM     20  C   UNL d   1      44.902 -16.694  44.954  0.00  0.00     0.066 C 
ENDBRANCH   1  12
TORSDOF 3
ENDMDL
