MODEL 1
REMARK VINA RESULT:      48.7      0.000      0.000
REMARK  4 active torsions:
REMARK  status: ('A' for Active; 'I' for Inactive)
REMARK    1  A    between atoms: C_2  and  S_1 
REMARK    2  A    between atoms: N_3  and  S_1 
REMARK    3  A    between atoms: C_5  and  C_11 
REMARK    4  A    between atoms: O_20  and  C_8 
ROOT
ATOM      1  S   UNL d   1     -55.541-102.304 -39.741  0.00  0.00     0.273 S 
ATOM      2  O   UNL d   1     -54.899-101.838 -39.501  0.00  0.00    -0.200 OA
ATOM      3  O   UNL d   1     -56.184-102.771 -39.977  0.00  0.00    -0.200 OA
ENDROOT
BRANCH   1   4
ATOM      4  C   UNL d   1     -55.708-102.457 -38.952  0.00  0.00     0.128 A 
ATOM      5  C   UNL d   1     -55.130-102.346 -38.377  0.00  0.00     0.044 A 
ATOM      6  C   UNL d   1     -55.298-102.500 -37.584  0.00  0.00     0.141 A 
ATOM      7  F   UNL d   1     -54.716-102.387 -37.007  0.00  0.00    -0.204 F 
ATOM      8  C   UNL d   1     -56.048-102.766 -37.372  0.00  0.00     0.032 A 
ATOM      9  C   UNL d   1     -56.630-102.878 -37.949  0.00  0.00     0.027 A 
ATOM     10  C   UNL d   1     -56.459-102.724 -38.737  0.00  0.00     0.106 A 
BRANCH  10  11
ATOM     11  O   UNL d   1     -57.038-102.835 -39.322  0.00  0.00    -0.327 OA
ATOM     12  C   UNL d   1     -57.839-102.857 -39.107  0.00  0.00     0.181 C 
ENDBRANCH  10  11
ENDBRANCH   1   4
BRANCH   1  13
ATOM     13  N   UNL d   1     -55.371-102.149 -40.537  0.00  0.00    -0.229 N 
ATOM     14  C   UNL d   1     -54.880-101.513 -40.749  0.00  0.00     0.092 A 
ATOM     15  C   UNL d   1     -54.711-101.358 -41.545  0.00  0.00     0.025 A 
ATOM     16  C   UNL d   1     -55.033-101.840 -42.130  0.00  0.00     0.062 A 
ATOM     17  C   UNL d   1     -55.520-102.474 -41.934  0.00  0.00     0.025 A 
ATOM     18  C   UNL d   1     -55.690-102.628 -41.138  0.00  0.00     0.092 A 
BRANCH  16  19
ATOM     19  C   UNL d   1     -54.864-101.685 -42.927  0.00  0.00     0.297 C 
ATOM     20  O   UNL d   1     -54.726-102.311 -43.450  0.00  0.00    -0.264 OA
ATOM     21  N   UNL d   1     -54.830-100.903 -43.207  0.00  0.00    -0.102 N 
ENDBRANCH  16  19
ENDBRANCH   1  13
TORSDOF 4
ENDMDL
