MODEL 1
REMARK VINA RESULT:      48.0      0.000      0.000
REMARK  5 active torsions:
REMARK  status: ('A' for Active; 'I' for Inactive)
REMARK    1  A    between atoms: C_3  and  S_1 
REMARK    2  A    between atoms: N_5  and  S_1 
REMARK    3  A    between atoms: C_2  and  C_8 
REMARK       I    between atoms: N_4  and  C_2 
REMARK    4  A    between atoms: C_9  and  N_4 
REMARK    5  A    between atoms: O_17  and  C_16 
ROOT
ATOM      1  C   UNL d   1      14.957  15.722  -1.501  0.00  0.00     0.104 A 
ATOM      2  C   UNL d   1      14.360  14.397  -2.339  0.00  0.00     0.058 A 
ATOM      3  C   UNL d   1      14.844  15.023  -1.140  0.00  0.00     0.013 A 
ATOM      4  C   UNL d   1      14.775  15.774  -2.288  0.00  0.00     0.013 A 
ATOM      5  C   UNL d   1      14.480  15.142  -2.728  0.00  0.00     0.005 A 
ATOM      6  C   UNL d   1      14.548  14.366  -1.552  0.00  0.00     0.005 A 
ENDROOT
BRANCH   2   7
ATOM      7  C   UNL d   1      14.057  13.725  -2.760  0.00  0.00     0.279 C 
ATOM      8  N   UNL d   1      13.615  13.794  -3.402  0.00  0.00    -0.208 NA
ATOM      9  O   UNL d   1      14.260  12.959  -2.448  0.00  0.00    -0.265 OA
BRANCH   8  10
ATOM     10  C   UNL d   1      13.335  13.123  -3.792  0.00  0.00     0.087 A 
ATOM     11  C   UNL d   1      13.337  13.105  -4.600  0.00  0.00     0.043 A 
ATOM     12  C   UNL d   1      13.057  12.434  -4.988  0.00  0.00     0.096 A 
ATOM     13  C   UNL d   1      12.774  11.781  -4.570  0.00  0.00     0.024 A 
ATOM     14  C   UNL d   1      12.777  11.811  -3.734  0.00  0.00     0.004 A 
ATOM     15  C   UNL d   1      13.058  12.484  -3.349  0.00  0.00     0.019 A 
BRANCH  12  16
ATOM     16  O   UNL d   1      13.059  12.421  -5.624  0.00  0.00    -0.328 OA
ATOM     17  C   UNL d   1      13.106  11.789  -6.140  0.00  0.00     0.181 C 
ENDBRANCH  12  16
ENDBRANCH   8  10
ENDBRANCH   2   7
BRANCH   1  18
ATOM     18  S   UNL d   1      15.269  16.464  -1.122  0.00  0.00     0.271 S 
ATOM     19  O   UNL d   1      15.404  16.106  -0.370  0.00  0.00    -0.200 OA
ATOM     20  O   UNL d   1      15.139  16.800  -1.842  0.00  0.00    -0.200 OA
BRANCH  18  21
ATOM     21  N   UNL d   1      15.567  17.230  -0.810  0.00  0.00    -0.226 N 
ATOM     22  C   UNL d   1      16.165  17.236  -0.226  0.00  0.00     0.111 C 
ATOM     23  C   UNL d   1      15.257  17.941  -1.093  0.00  0.00     0.111 C 
ENDBRANCH  18  21
ENDBRANCH   1  18
TORSDOF 5
ENDMDL
