MODEL 1
REMARK VINA RESULT:      -9.7      0.000      0.000
REMARK  3 active torsions:
REMARK  status: ('A' for Active; 'I' for Inactive)
REMARK    1  A    between atoms: C_9  and  C_4 
REMARK    2  A    between atoms: C_10  and  C_7 
REMARK    3  A    between atoms: C_11  and  C_10 
ROOT
ATOM      1  C   UNL d   1      51.527  33.185  53.152  0.00  0.00     0.179 A 
ATOM      2  N   UNL d   1      51.957  33.804  52.819  0.00  0.00    -0.282 N 
ATOM      3  N   UNL d   1      50.720  33.359  53.075  0.00  0.00    -0.221 NA
ATOM      4  C   UNL d   1      50.651  34.083  52.695  0.00  0.00     0.101 A 
ATOM      5  S   UNL d   1      52.063  32.628  53.436  0.00  0.00    -0.048 SA
ATOM      6  C   UNL d   1      51.413  34.361  52.535  0.00  0.00     0.101 A 
ATOM      7  C   UNL d   1      52.820  32.902  53.279  0.00  0.00     0.050 A 
ATOM      8  C   UNL d   1      52.753  33.635  52.894  0.00  0.00     0.089 A 
ENDROOT
BRANCH   7   9
ATOM      9  C   UNL d   1      53.524  32.517  53.469  0.00  0.00     0.008 C 
BRANCH   9  10
ATOM     10  C   UNL d   1      54.024  32.838  54.038  0.00  0.00     0.001 A 
ATOM     11  C   UNL d   1      54.692  33.268  53.806  0.00  0.00     0.002 A 
ATOM     12  C   UNL d   1      55.193  33.588  54.375  0.00  0.00     0.030 A 
ATOM     13  C   UNL d   1      55.030  33.482  55.177  0.00  0.00     0.140 A 
ATOM     14  C   UNL d   1      54.367  33.055  55.409  0.00  0.00     0.030 A 
ATOM     15  F   UNL d   1      55.539  33.807  55.747  0.00  0.00    -0.204 F 
ATOM     16  C   UNL d   1      53.862  32.731  54.840  0.00  0.00     0.002 A 
ENDBRANCH   9  10
ENDBRANCH   7   9
BRANCH   4  17
ATOM     17  C   UNL d   1      49.953  34.468  52.505  0.00  0.00     0.019 A 
ATOM     18  C   UNL d   1      49.585  34.955  53.054  0.00  0.00     0.002 A 
ATOM     19  C   UNL d   1      48.884  35.340  52.860  0.00  0.00     0.000 A 
ATOM     20  C   UNL d   1      48.549  35.238  52.112  0.00  0.00     0.000 A 
ATOM     21  C   UNL d   1      48.918  34.749  51.559  0.00  0.00     0.000 A 
ATOM     22  C   UNL d   1      49.619  34.363  51.752  0.00  0.00     0.002 A 
ENDBRANCH   4  17
TORSDOF 3
ENDMDL
MODEL 2
REMARK VINA RESULT:      -7.9      1.597      2.032
REMARK  3 active torsions:
REMARK  status: ('A' for Active; 'I' for Inactive)
REMARK    1  A    between atoms: C_9  and  C_4 
REMARK    2  A    between atoms: C_10  and  C_7 
REMARK    3  A    between atoms: C_11  and  C_10 
ROOT
ATOM      1  C   UNL d   1      51.531  33.941  52.527  0.00  0.00     0.179 A 
ATOM      2  N   UNL d   1      51.226  33.637  53.229  0.00  0.00    -0.282 N 
ATOM      3  N   UNL d   1      50.939  34.392  52.161  0.00  0.00    -0.221 NA
ATOM      4  C   UNL d   1      50.269  34.367  52.635  0.00  0.00     0.101 A 
ATOM      5  S   UNL d   1      52.309  33.681  52.455  0.00  0.00    -0.048 SA
ATOM      6  C   UNL d   1      50.443  33.901  53.297  0.00  0.00     0.101 A 
ATOM      7  C   UNL d   1      52.483  33.219  53.110  0.00  0.00     0.050 A 
ATOM      8  C   UNL d   1      51.807  33.192  53.591  0.00  0.00     0.089 A 
ENDROOT
BRANCH   7   9
ATOM      9  C   UNL d   1      53.202  32.847  53.263  0.00  0.00     0.008 C 
BRANCH   9  10
ATOM     10  C   UNL d   1      53.230  32.029  53.344  0.00  0.00     0.001 A 
ATOM     11  C   UNL d   1      53.490  31.693  54.055  0.00  0.00     0.002 A 
ATOM     12  C   UNL d   1      53.518  30.875  54.137  0.00  0.00     0.030 A 
ATOM     13  C   UNL d   1      53.288  30.388  53.512  0.00  0.00     0.140 A 
ATOM     14  C   UNL d   1      53.030  30.720  52.805  0.00  0.00     0.030 A 
ATOM     15  F   UNL d   1      53.319  29.563  53.599  0.00  0.00    -0.204 F 
ATOM     16  C   UNL d   1      53.000  31.542  52.719  0.00  0.00     0.002 A 
ENDBRANCH   9  10
ENDBRANCH   7   9
BRANCH   4  17
ATOM     17  C   UNL d   1      49.553  34.736  52.486  0.00  0.00     0.019 A 
ATOM     18  C   UNL d   1      49.222  35.238  53.045  0.00  0.00     0.002 A 
ATOM     19  C   UNL d   1      48.502  35.607  52.892  0.00  0.00     0.000 A 
ATOM     20  C   UNL d   1      48.112  35.473  52.176  0.00  0.00     0.000 A 
ATOM     21  C   UNL d   1      48.444  34.968  51.615  0.00  0.00     0.000 A 
ATOM     22  C   UNL d   1      49.164  34.598  51.766  0.00  0.00     0.002 A 
ENDBRANCH   4  17
TORSDOF 3
ENDMDL
MODEL 3
REMARK VINA RESULT:      -7.7      2.605      5.069
REMARK  3 active torsions:
REMARK  status: ('A' for Active; 'I' for Inactive)
REMARK    1  A    between atoms: C_9  and  C_4 
REMARK    2  A    between atoms: C_10  and  C_7 
REMARK    3  A    between atoms: C_11  and  C_10 
ROOT
ATOM      1  C   UNL d   1      53.099  32.040  53.618  0.00  0.00     0.179 A 
ATOM      2  N   UNL d   1      52.612  31.707  53.045  0.00  0.00    -0.282 N 
ATOM      3  N   UNL d   1      53.413  31.426  54.080  0.00  0.00    -0.221 NA
ATOM      4  C   UNL d   1      53.120  30.716  53.792  0.00  0.00     0.101 A 
ATOM      5  S   UNL d   1      53.091  32.857  53.516  0.00  0.00    -0.048 SA
ATOM      6  C   UNL d   1      52.624  30.885  53.152  0.00  0.00     0.101 A 
ATOM      7  C   UNL d   1      52.599  33.027  52.881  0.00  0.00     0.050 A 
ATOM      8  C   UNL d   1      52.302  32.310  52.589  0.00  0.00     0.089 A 
ENDROOT
BRANCH   7   9
ATOM      9  C   UNL d   1      52.431  33.778  52.587  0.00  0.00     0.008 C 
BRANCH   9  10
ATOM     10  C   UNL d   1      51.661  34.066  52.616  0.00  0.00     0.001 A 
ATOM     11  C   UNL d   1      51.172  34.006  51.951  0.00  0.00     0.002 A 
ATOM     12  C   UNL d   1      50.402  34.294  51.980  0.00  0.00     0.030 A 
ATOM     13  C   UNL d   1      50.115  34.642  52.671  0.00  0.00     0.140 A 
ATOM     14  C   UNL d   1      50.600  34.703  53.333  0.00  0.00     0.030 A 
ATOM     15  F   UNL d   1      49.337  34.931  52.695  0.00  0.00    -0.204 F 
ATOM     16  C   UNL d   1      51.375  34.414  53.307  0.00  0.00     0.002 A 
ENDBRANCH   9  10
ENDBRANCH   7   9
BRANCH   4  17
ATOM     17  C   UNL d   1      53.285  29.968  54.083  0.00  0.00     0.019 A 
ATOM     18  C   UNL d   1      53.651  29.409  53.605  0.00  0.00     0.002 A 
ATOM     19  C   UNL d   1      53.816  28.658  53.900  0.00  0.00     0.000 A 
ATOM     20  C   UNL d   1      53.614  28.466  54.677  0.00  0.00     0.000 A 
ATOM     21  C   UNL d   1      53.246  29.027  55.158  0.00  0.00     0.000 A 
ATOM     22  C   UNL d   1      53.081  29.778  54.864  0.00  0.00     0.002 A 
ENDBRANCH   4  17
TORSDOF 3
ENDMDL
MODEL 4
REMARK VINA RESULT:      -7.7      2.704      3.803
REMARK  3 active torsions:
REMARK  status: ('A' for Active; 'I' for Inactive)
REMARK    1  A    between atoms: C_9  and  C_4 
REMARK    2  A    between atoms: C_10  and  C_7 
REMARK    3  A    between atoms: C_11  and  C_10 
ROOT
ATOM      1  C   UNL d   1      52.768  32.400  53.369  0.00  0.00     0.179 A 
ATOM      2  N   UNL d   1      53.516  32.327  53.703  0.00  0.00    -0.282 N 
ATOM      3  N   UNL d   1      52.514  33.184  53.471  0.00  0.00    -0.221 NA
ATOM      4  C   UNL d   1      53.105  33.593  53.867  0.00  0.00     0.101 A 
ATOM      5  S   UNL d   1      52.554  31.667  53.060  0.00  0.00    -0.048 SA
ATOM      6  C   UNL d   1      53.726  33.067  54.013  0.00  0.00     0.101 A 
ATOM      7  C   UNL d   1      53.170  31.144  53.204  0.00  0.00     0.050 A 
ATOM      8  C   UNL d   1      53.768  31.556  53.604  0.00  0.00     0.089 A 
ENDROOT
BRANCH   7   9
ATOM      9  C   UNL d   1      53.189  30.349  52.988  0.00  0.00     0.008 C 
BRANCH   9  10
ATOM     10  C   UNL d   1      53.246  29.768  53.568  0.00  0.00     0.001 A 
ATOM     11  C   UNL d   1      52.564  29.500  53.952  0.00  0.00     0.002 A 
ATOM     12  C   UNL d   1      52.621  28.920  54.533  0.00  0.00     0.030 A 
ATOM     13  C   UNL d   1      53.357  28.604  54.733  0.00  0.00     0.140 A 
ATOM     14  C   UNL d   1      54.036  28.870  54.351  0.00  0.00     0.030 A 
ATOM     15  F   UNL d   1      53.409  28.019  55.319  0.00  0.00    -0.204 F 
ATOM     16  C   UNL d   1      53.982  29.453  53.768  0.00  0.00     0.002 A 
ENDBRANCH   9  10
ENDBRANCH   7   9
BRANCH   4  17
ATOM     17  C   UNL d   1      53.088  34.383  54.083  0.00  0.00     0.019 A 
ATOM     18  C   UNL d   1      52.889  34.959  53.532  0.00  0.00     0.002 A 
ATOM     19  C   UNL d   1      52.874  35.752  53.753  0.00  0.00     0.000 A 
ATOM     20  C   UNL d   1      53.057  35.970  54.528  0.00  0.00     0.000 A 
ATOM     21  C   UNL d   1      53.256  35.392  55.082  0.00  0.00     0.000 A 
ATOM     22  C   UNL d   1      53.273  34.599  54.863  0.00  0.00     0.002 A 
ENDBRANCH   4  17
TORSDOF 3
ENDMDL
MODEL 5
REMARK VINA RESULT:      -7.1      1.995      5.107
REMARK  3 active torsions:
REMARK  status: ('A' for Active; 'I' for Inactive)
REMARK    1  A    between atoms: C_9  and  C_4 
REMARK    2  A    between atoms: C_10  and  C_7 
REMARK    3  A    between atoms: C_11  and  C_10 
ROOT
ATOM      1  C   UNL d   1      51.478  33.583  53.305  0.00  0.00     0.179 A 
ATOM      2  N   UNL d   1      51.804  34.191  52.856  0.00  0.00    -0.282 N 
ATOM      3  N   UNL d   1      52.062  33.300  53.822  0.00  0.00    -0.221 NA
ATOM      4  C   UNL d   1      52.748  33.732  53.692  0.00  0.00     0.101 A 
ATOM      5  S   UNL d   1      50.694  33.485  53.071  0.00  0.00    -0.048 SA
ATOM      6  C   UNL d   1      52.592  34.284  53.096  0.00  0.00     0.101 A 
ATOM      7  C   UNL d   1      50.538  34.032  52.479  0.00  0.00     0.050 A 
ATOM      8  C   UNL d   1      51.230  34.471  52.346  0.00  0.00     0.089 A 
ENDROOT
BRANCH   7   9
ATOM      9  C   UNL d   1      49.820  34.128  52.087  0.00  0.00     0.008 C 
BRANCH   9  10
ATOM     10  C   UNL d   1      49.308  34.732  52.312  0.00  0.00     0.001 A 
ATOM     11  C   UNL d   1      48.829  35.100  51.747  0.00  0.00     0.002 A 
ATOM     12  C   UNL d   1      48.317  35.703  51.972  0.00  0.00     0.030 A 
ATOM     13  C   UNL d   1      48.280  35.942  52.761  0.00  0.00     0.140 A 
ATOM     14  C   UNL d   1      48.755  35.577  53.324  0.00  0.00     0.030 A 
ATOM     15  F   UNL d   1      47.762  36.552  52.983  0.00  0.00    -0.204 F 
ATOM     16  C   UNL d   1      49.271  34.970  53.101  0.00  0.00     0.002 A 
ENDBRANCH   9  10
ENDBRANCH   7   9
BRANCH   4  17
ATOM     17  C   UNL d   1      53.463  33.639  54.081  0.00  0.00     0.019 A 
ATOM     18  C   UNL d   1      54.044  33.152  53.767  0.00  0.00     0.002 A 
ATOM     19  C   UNL d   1      54.762  33.060  54.160  0.00  0.00     0.000 A 
ATOM     20  C   UNL d   1      54.898  33.458  54.871  0.00  0.00     0.000 A 
ATOM     21  C   UNL d   1      54.314  33.948  55.187  0.00  0.00     0.000 A 
ATOM     22  C   UNL d   1      53.596  34.041  54.794  0.00  0.00     0.002 A 
ENDBRANCH   4  17
TORSDOF 3
ENDMDL
