MODEL 1
REMARK VINA RESULT:       2.1      0.000      0.000
REMARK  5 active torsions:
REMARK  status: ('A' for Active; 'I' for Inactive)
REMARK    1  A    between atoms: C_10  and  C_3 
REMARK    2  A    between atoms: C_11  and  N_5 
REMARK    3  A    between atoms: O_17  and  C_10 
REMARK    4  A    between atoms: C_22  and  O_17 
REMARK    5  A    between atoms: O_21  and  C_18 
ROOT
ATOM      1  C   UNL d   1     -41.358-121.174 -51.425  0.00  0.00     0.086 A 
ATOM      2  C   UNL d   1     -41.410-121.764 -50.856  0.00  0.00     0.038 A 
ATOM      3  C   UNL d   1     -41.552-122.552 -51.067  0.00  0.00     0.165 A 
ATOM      4  C   UNL d   1     -41.449-121.370 -52.226  0.00  0.00     0.282 A 
ATOM      5  N   UNL d   1     -41.590-122.149 -52.447  0.00  0.00    -0.194 N 
ATOM      6  N   UNL d   1     -41.642-122.738 -51.869  0.00  0.00    -0.157 NA
ATOM      7  C   UNL d   1     -41.214-120.457 -51.038  0.00  0.00     0.137 A 
ATOM      8  C   UNL d   1     -41.300-121.421 -50.114  0.00  0.00     0.039 A 
ATOM      9  S   UNL d   1     -41.179-120.612 -50.231  0.00  0.00    -0.066 SA
ATOM     10  O   UNL d   1     -41.398-120.786 -52.802  0.00  0.00    -0.265 OA
ATOM     11  N   UNL d   1     -41.123-119.719 -51.402  0.00  0.00    -0.141 N 
ENDROOT
BRANCH   5  12
ATOM     12  C   UNL d   1     -41.680-122.343 -53.243  0.00  0.00     0.086 A 
ATOM     13  C   UNL d   1     -42.192-121.901 -53.725  0.00  0.00     0.021 A 
ATOM     14  C   UNL d   1     -42.278-122.100 -54.521  0.00  0.00     0.026 A 
ATOM     15  C   UNL d   1     -41.860-122.734 -54.838  0.00  0.00     0.094 A 
ATOM     16  C   UNL d   1     -41.349-123.175 -54.357  0.00  0.00     0.026 A 
ATOM     17  C   UNL d   1     -41.263-122.974 -53.558  0.00  0.00     0.021 A 
BRANCH  15  18
ATOM     18  O   UNL d   1     -41.952-122.925 -55.632  0.00  0.00    -0.328 OA
ATOM     19  C   UNL d   1     -41.971-122.322 -56.204  0.00  0.00     0.181 C 
ENDBRANCH  15  18
ENDBRANCH   5  12
BRANCH   3  20
ATOM     20  C   UNL d   1     -41.604-123.140 -50.493  0.00  0.00     0.320 C 
ATOM     21  O   UNL d   1     -41.129-123.817 -50.550  0.00  0.00    -0.257 OA
BRANCH  20  22
ATOM     22  O   UNL d   1     -42.130-123.055 -49.860  0.00  0.00    -0.270 OA
BRANCH  22  23
ATOM     23  C   UNL d   1     -42.280-123.691 -49.363  0.00  0.00     0.126 C 
ATOM     24  C   UNL d   1     -42.862-123.641 -48.781  0.00  0.00     0.029 C 
ENDBRANCH  22  23
ENDBRANCH  20  22
ENDBRANCH   3  20
TORSDOF 5
ENDMDL
