MODEL 1
REMARK VINA RESULT:      -6.1      0.000      0.000
REMARK  1 active torsions:
REMARK  status: ('A' for Active; 'I' for Inactive)
REMARK    1  A    between atoms: C_2  and  C_1 
ROOT
ATOM      1  C   UNL d   1     -41.564-122.557 -53.368  0.00  0.00     0.089 A 
ATOM      2  C   UNL d   1     -41.316-123.332 -53.260  0.00  0.00     0.302 A 
ATOM      3  C   UNL d   1     -41.667-122.054 -52.713  0.00  0.00     0.009 A 
ATOM      4  O   UNL d   1     -41.170-123.613 -52.496  0.00  0.00    -0.273 OA
ATOM      5  C   UNL d   1     -41.517-122.345 -51.952  0.00  0.00     0.023 A 
ATOM      6  C   UNL d   1     -41.270-123.120 -51.844  0.00  0.00     0.103 A 
ATOM      7  O   UNL d   1     -41.220-123.817 -53.924  0.00  0.00    -0.259 OA
ATOM      8  C   UNL d   1     -41.620-121.842 -51.299  0.00  0.00     0.002 A 
ATOM      9  C   UNL d   1     -41.123-123.402 -51.083  0.00  0.00     0.025 A 
ATOM     10  C   UNL d   1     -41.470-122.134 -50.540  0.00  0.00     0.000 A 
ATOM     11  C   UNL d   1     -41.223-122.909 -50.432  0.00  0.00     0.002 A 
ENDROOT
BRANCH   1  12
ATOM     12  C   UNL d   1     -41.711-122.277 -54.138  0.00  0.00     0.140 A 
ATOM     13  S   UNL d   1     -42.317-122.409 -54.677  0.00  0.00    -0.024 SA
ATOM     14  C   UNL d   1     -42.152-121.974 -55.347  0.00  0.00     0.236 A 
ATOM     15  N   UNL d   1     -42.611-121.934 -56.045  0.00  0.00    -0.118 N 
ATOM     16  N   UNL d   1     -41.459-121.573 -55.242  0.00  0.00    -0.119 NA
ATOM     17  N   UNL d   1     -41.173-121.752 -54.492  0.00  0.00    -0.139 NA
ENDBRANCH   1  12
TORSDOF 1
ENDMDL
MODEL 2
REMARK VINA RESULT:      -5.5      2.650      3.932
REMARK  1 active torsions:
REMARK  status: ('A' for Active; 'I' for Inactive)
REMARK    1  A    between atoms: C_2  and  C_1 
ROOT
ATOM      1  C   UNL d   1     -41.506-122.758 -51.562  0.00  0.00     0.089 A 
ATOM      2  C   UNL d   1     -41.338-121.990 -51.801  0.00  0.00     0.302 A 
ATOM      3  C   UNL d   1     -41.548-123.372 -52.121  0.00  0.00     0.009 A 
ATOM      4  O   UNL d   1     -41.210-121.829 -52.602  0.00  0.00    -0.273 OA
ATOM      5  C   UNL d   1     -41.418-123.200 -52.921  0.00  0.00     0.023 A 
ATOM      6  C   UNL d   1     -41.250-122.432 -53.160  0.00  0.00     0.103 A 
ATOM      7  O   UNL d   1     -41.301-121.392 -51.229  0.00  0.00    -0.259 OA
ATOM      8  C   UNL d   1     -41.460-123.813 -53.479  0.00  0.00     0.002 A 
ATOM      9  C   UNL d   1     -41.123-122.270 -53.959  0.00  0.00     0.025 A 
ATOM     10  C   UNL d   1     -41.331-123.641 -54.278  0.00  0.00     0.000 A 
ATOM     11  C   UNL d   1     -41.163-122.874 -54.516  0.00  0.00     0.002 A 
ENDROOT
BRANCH   1  12
ATOM     12  C   UNL d   1     -41.634-122.917 -50.755  0.00  0.00     0.140 A 
ATOM     13  S   UNL d   1     -41.131-123.108 -50.134  0.00  0.00    -0.024 SA
ATOM     14  C   UNL d   1     -41.588-123.200 -49.464  0.00  0.00     0.236 A 
ATOM     15  N   UNL d   1     -41.320-123.396 -48.697  0.00  0.00    -0.118 N 
ATOM     16  N   UNL d   1     -42.363-123.072 -49.650  0.00  0.00    -0.119 NA
ATOM     17  N   UNL d   1     -42.407-122.894 -50.451  0.00  0.00    -0.139 NA
ENDBRANCH   1  12
TORSDOF 1
ENDMDL
MODEL 3
REMARK VINA RESULT:      -5.4      2.752      3.810
REMARK  1 active torsions:
REMARK  status: ('A' for Active; 'I' for Inactive)
REMARK    1  A    between atoms: C_2  and  C_1 
ROOT
ATOM      1  C   UNL d   1     -41.974-123.020 -49.862  0.00  0.00     0.089 A 
ATOM      2  C   UNL d   1     -42.675-122.683 -49.598  0.00  0.00     0.302 A 
ATOM      3  C   UNL d   1     -41.452-123.378 -49.323  0.00  0.00     0.009 A 
ATOM      4  O   UNL d   1     -42.861-122.700 -48.793  0.00  0.00    -0.273 OA
ATOM      5  C   UNL d   1     -41.647-123.390 -48.518  0.00  0.00     0.023 A 
ATOM      6  C   UNL d   1     -42.348-123.053 -48.254  0.00  0.00     0.103 A 
ATOM      7  O   UNL d   1     -43.182-122.331 -50.150  0.00  0.00    -0.259 OA
ATOM      8  C   UNL d   1     -41.125-123.748 -47.981  0.00  0.00     0.002 A 
ATOM      9  C   UNL d   1     -42.534-123.070 -47.451  0.00  0.00     0.025 A 
ATOM     10  C   UNL d   1     -41.320-123.760 -47.177  0.00  0.00     0.000 A 
ATOM     11  C   UNL d   1     -42.021-123.423 -46.913  0.00  0.00     0.002 A 
ENDROOT
BRANCH   1  12
ATOM     12  C   UNL d   1     -41.790-123.001 -50.674  0.00  0.00     0.140 A 
ATOM     13  S   UNL d   1     -41.465-122.426 -51.162  0.00  0.00    -0.024 SA
ATOM     14  C   UNL d   1     -41.419-122.736 -51.915  0.00  0.00     0.236 A 
ATOM     15  N   UNL d   1     -41.125-122.355 -52.599  0.00  0.00    -0.118 N 
ATOM     16  N   UNL d   1     -41.707-123.491 -51.911  0.00  0.00    -0.119 NA
ATOM     17  N   UNL d   1     -41.942-123.669 -51.144  0.00  0.00    -0.139 NA
ENDBRANCH   1  12
TORSDOF 1
ENDMDL
MODEL 4
REMARK VINA RESULT:      -3.4      3.215      4.434
REMARK  1 active torsions:
REMARK  status: ('A' for Active; 'I' for Inactive)
REMARK    1  A    between atoms: C_2  and  C_1 
ROOT
ATOM      1  C   UNL d   1     -41.840-123.009 -50.520  0.00  0.00     0.089 A 
ATOM      2  C   UNL d   1     -42.227-122.330 -50.770  0.00  0.00     0.302 A 
ATOM      3  C   UNL d   1     -41.473-123.511 -51.073  0.00  0.00     0.009 A 
ATOM      4  O   UNL d   1     -42.252-122.144 -51.575  0.00  0.00    -0.273 OA
ATOM      5  C   UNL d   1     -41.503-123.316 -51.878  0.00  0.00     0.023 A 
ATOM      6  C   UNL d   1     -41.891-122.637 -52.128  0.00  0.00     0.103 A 
ATOM      7  O   UNL d   1     -42.587-121.843 -50.204  0.00  0.00    -0.259 OA
ATOM      8  C   UNL d   1     -41.137-123.817 -52.429  0.00  0.00     0.002 A 
ATOM      9  C   UNL d   1     -41.916-122.451 -52.931  0.00  0.00     0.025 A 
ATOM     10  C   UNL d   1     -41.168-123.622 -53.233  0.00  0.00     0.000 A 
ATOM     11  C   UNL d   1     -41.555-122.943 -53.482  0.00  0.00     0.002 A 
ENDROOT
BRANCH   1  12
ATOM     12  C   UNL d   1     -41.817-123.193 -49.708  0.00  0.00     0.140 A 
ATOM     13  S   UNL d   1     -41.204-123.261 -49.165  0.00  0.00    -0.024 SA
ATOM     14  C   UNL d   1     -41.531-123.456 -48.445  0.00  0.00     0.236 A 
ATOM     15  N   UNL d   1     -41.123-123.583 -47.726  0.00  0.00    -0.118 N 
ATOM     16  N   UNL d   1     -42.333-123.512 -48.522  0.00  0.00    -0.119 NA
ATOM     17  N   UNL d   1     -42.525-123.351 -49.304  0.00  0.00    -0.139 NA
ENDBRANCH   1  12
TORSDOF 1
ENDMDL
