MODEL 1
REMARK VINA RESULT:      -5.8      0.000      0.000
REMARK  1 active torsions:
REMARK  status: ('A' for Active; 'I' for Inactive)
REMARK    1  A    between atoms: C_4  and  C_1 
ROOT
ATOM      1  C   UNL d   1      56.062   0.092  32.813  0.00  0.00     0.036 A 
ATOM      2  C   UNL d   1      56.162  -0.696  32.575  0.00  0.00     0.061 A 
ATOM      3  C   UNL d   1      56.449   0.681  32.395  0.00  0.00     0.004 A 
ATOM      4  C   UNL d   1      56.635  -0.885  31.940  0.00  0.00     0.023 A 
ATOM      5  C   UNL d   1      57.021  -0.281  31.525  0.00  0.00     0.059 A 
ATOM      6 CL   UNL d   1      55.775  -1.287  32.993  0.00  0.00    -0.082 Cl
ATOM      7  C   UNL d   1      56.932   0.496  31.747  0.00  0.00     0.011 A 
ATOM      8 CL   UNL d   1      57.496  -0.478  30.887  0.00  0.00    -0.082 Cl
ENDROOT
BRANCH   1   9
ATOM      9  C   UNL d   1      55.584   0.290  33.455  0.00  0.00     0.136 A 
ATOM     10  S   UNL d   1      55.816   0.350  34.245  0.00  0.00    -0.024 SA
ATOM     11  C   UNL d   1      55.160   0.562  34.698  0.00  0.00     0.236 A 
ATOM     12  N   UNL d   1      55.140   0.682  35.514  0.00  0.00    -0.118 N 
ATOM     13  N   UNL d   1      54.499   0.638  34.183  0.00  0.00    -0.119 NA
ATOM     14  N   UNL d   1      54.760   0.471  33.418  0.00  0.00    -0.139 NA
ENDBRANCH   1   9
TORSDOF 1
ENDMDL
MODEL 2
REMARK VINA RESULT:      -5.3      2.365      3.254
REMARK  1 active torsions:
REMARK  status: ('A' for Active; 'I' for Inactive)
REMARK    1  A    between atoms: C_4  and  C_1 
ROOT
ATOM      1  C   UNL d   1      56.595   0.031  32.138  0.00  0.00     0.036 A 
ATOM      2  C   UNL d   1      56.325  -0.724  32.351  0.00  0.00     0.061 A 
ATOM      3  C   UNL d   1      56.309   0.681  32.546  0.00  0.00     0.004 A 
ATOM      4  C   UNL d   1      55.787  -0.820  32.953  0.00  0.00     0.023 A 
ATOM      5  C   UNL d   1      55.505  -0.156  33.359  0.00  0.00     0.059 A 
ATOM      6 CL   UNL d   1      56.612  -1.375  31.942  0.00  0.00    -0.082 Cl
ATOM      7  C   UNL d   1      55.760   0.589  33.161  0.00  0.00     0.011 A 
ATOM      8 CL   UNL d   1      54.962  -0.261  33.965  0.00  0.00    -0.082 Cl
ENDROOT
BRANCH   1   9
ATOM      9  C   UNL d   1      57.141   0.137  31.528  0.00  0.00     0.136 A 
ATOM     10  S   UNL d   1      57.913   0.422  31.599  0.00  0.00    -0.024 SA
ATOM     11  C   UNL d   1      58.259   0.437  30.850  0.00  0.00     0.236 A 
ATOM     12  N   UNL d   1      59.024   0.682  30.663  0.00  0.00    -0.118 N 
ATOM     13  N   UNL d   1      57.693   0.156  30.294  0.00  0.00    -0.119 NA
ATOM     14  N   UNL d   1      57.006  -0.028  30.712  0.00  0.00    -0.139 NA
ENDBRANCH   1   9
TORSDOF 1
ENDMDL
MODEL 3
REMARK VINA RESULT:      -5.0      2.183      3.279
REMARK  1 active torsions:
REMARK  status: ('A' for Active; 'I' for Inactive)
REMARK    1  A    between atoms: C_4  and  C_1 
ROOT
ATOM      1  C   UNL d   1      56.259  -0.110  32.890  0.00  0.00     0.036 A 
ATOM      2  C   UNL d   1      56.652   0.363  33.446  0.00  0.00     0.061 A 
ATOM      3  C   UNL d   1      55.476  -0.312  33.029  0.00  0.00     0.004 A 
ATOM      4  C   UNL d   1      56.273   0.625  34.116  0.00  0.00     0.023 A 
ATOM      5  C   UNL d   1      55.482   0.415  34.246  0.00  0.00     0.059 A 
ATOM      6 CL   UNL d   1      57.436   0.565  33.307  0.00  0.00    -0.082 Cl
ATOM      7  C   UNL d   1      55.084  -0.048  33.710  0.00  0.00     0.011 A 
ATOM      8 CL   UNL d   1      55.106   0.682  34.924  0.00  0.00    -0.082 Cl
ENDROOT
BRANCH   1   9
ATOM      9  C   UNL d   1      56.637  -0.379  32.208  0.00  0.00     0.136 A 
ATOM     10  S   UNL d   1      57.074   0.073  31.673  0.00  0.00    -0.024 SA
ATOM     11  C   UNL d   1      57.351  -0.422  31.074  0.00  0.00     0.236 A 
ATOM     12  N   UNL d   1      57.811  -0.203  30.425  0.00  0.00    -0.118 N 
ATOM     13  N   UNL d   1      57.083  -1.203  31.234  0.00  0.00    -0.119 NA
ATOM     14  N   UNL d   1      56.644  -1.177  31.931  0.00  0.00    -0.139 NA
ENDBRANCH   1   9
TORSDOF 1
ENDMDL
MODEL 4
REMARK VINA RESULT:      -4.2      1.315      1.706
REMARK  1 active torsions:
REMARK  status: ('A' for Active; 'I' for Inactive)
REMARK    1  A    between atoms: C_4  and  C_1 
ROOT
ATOM      1  C   UNL d   1      56.993   0.195  32.193  0.00  0.00     0.036 A 
ATOM      2  C   UNL d   1      57.701   0.519  32.478  0.00  0.00     0.061 A 
ATOM      3  C   UNL d   1      56.927   0.039  31.391  0.00  0.00     0.004 A 
ATOM      4  C   UNL d   1      58.320   0.679  31.976  0.00  0.00     0.023 A 
ATOM      5  C   UNL d   1      58.242   0.517  31.167  0.00  0.00     0.059 A 
ATOM      6 CL   UNL d   1      57.767   0.675  33.281  0.00  0.00    -0.082 Cl
ATOM      7  C   UNL d   1      57.554   0.200  30.874  0.00  0.00     0.011 A 
ATOM      8 CL   UNL d   1      58.870   0.682  30.666  0.00  0.00    -0.082 Cl
ENDROOT
BRANCH   1   9
ATOM      9  C   UNL d   1      56.361   0.029  32.697  0.00  0.00     0.136 A 
ATOM     10  S   UNL d   1      55.826   0.571  33.016  0.00  0.00    -0.024 SA
ATOM     11  C   UNL d   1      55.286   0.164  33.488  0.00  0.00     0.236 A 
ATOM     12  N   UNL d   1      54.657   0.488  33.913  0.00  0.00    -0.118 N 
ATOM     13  N   UNL d   1      55.484  -0.653  33.467  0.00  0.00    -0.119 NA
ATOM     14  N   UNL d   1      56.145  -0.736  32.980  0.00  0.00    -0.139 NA
ENDBRANCH   1   9
TORSDOF 1
ENDMDL
