MODEL 1
REMARK VINA RESULT:      20.0      0.000      0.000
REMARK  9 active torsions:
REMARK  status: ('A' for Active; 'I' for Inactive)
REMARK    1  A    between atoms: C_9  and  N_1 
REMARK    2  A    between atoms: S_8  and  C_2 
REMARK    3  A    between atoms: C_7  and  C_12 
REMARK       I    between atoms: N_13  and  C_7 
REMARK    4  A    between atoms: C_26  and  S_8 
REMARK    5  A    between atoms: C_27  and  N_13 
REMARK    6  A    between atoms: C_15  and  C_27 
REMARK    7  A    between atoms: C_16  and  C_26 
REMARK    8  A    between atoms: O_31  and  C_16 
REMARK    9  A    between atoms: C_33  and  O_31 
ROOT
ATOM      1  N   UNL d   1      56.527  -1.357  32.267  0.00  0.00    -0.254 N 
ATOM      2  C   UNL d   1      57.258  -1.063  32.475  0.00  0.00     0.182 A 
ATOM      3  C   UNL d   1      56.420  -1.738  31.548  0.00  0.00     0.268 A 
ATOM      4  N   UNL d   1      57.887  -1.151  31.957  0.00  0.00    -0.222 NA
ATOM      5  C   UNL d   1      57.045  -1.826  31.032  0.00  0.00     0.074 A 
ATOM      6  C   UNL d   1      57.792  -1.530  31.235  0.00  0.00     0.088 A 
ATOM      7  C   UNL d   1      58.432  -1.616  30.716  0.00  0.00     0.024 A 
ATOM      8  C   UNL d   1      56.950  -2.207  30.306  0.00  0.00     0.006 A 
ATOM      9  C   UNL d   1      58.325  -1.998  29.993  0.00  0.00     0.059 A 
ATOM     10  O   UNL d   1      55.673  -2.034  31.345  0.00  0.00    -0.267 OA
ATOM     11  C   UNL d   1      57.578  -2.295  29.789  0.00  0.00     0.005 A 
ENDROOT
BRANCH   9  12
ATOM     12  C   UNL d   1      58.964  -2.086  29.469  0.00  0.00     0.279 C 
ATOM     13  N   UNL d   1      59.634  -1.646  29.590  0.00  0.00    -0.204 NA
ATOM     14  O   UNL d   1      58.898  -2.616  28.845  0.00  0.00    -0.265 OA
BRANCH  13  15
ATOM     15  C   UNL d   1      59.682  -1.121  30.220  0.00  0.00     0.127 C 
BRANCH  15  16
ATOM     16  C   UNL d   1      60.205  -0.486  30.188  0.00  0.00     0.119 A 
ATOM     17  O   UNL d   1      60.377   0.114  30.705  0.00  0.00    -0.304 OA
ATOM     18  C   UNL d   1      60.952   0.601  30.383  0.00  0.00     0.123 A 
ATOM     19  C   UNL d   1      61.133   0.280  29.640  0.00  0.00     0.029 A 
ATOM     20  C   UNL d   1      60.683  -0.380  29.517  0.00  0.00     0.028 A 
ENDBRANCH  15  16
ENDBRANCH  13  15
ENDBRANCH   9  12
BRANCH   2  21
ATOM     21  S   UNL d   1      57.365  -0.680  33.198  0.00  0.00    -0.044 SA
BRANCH  21  22
ATOM     22  C   UNL d   1      57.493   0.128  33.222  0.00  0.00     0.107 C 
BRANCH  22  23
ATOM     23  C   UNL d   1      58.194   0.417  33.547  0.00  0.00     0.307 C 
ATOM     24  O   UNL d   1      58.809   0.682  33.060  0.00  0.00    -0.258 OA
BRANCH  23  25
ATOM     25  O   UNL d   1      58.275   0.441  34.372  0.00  0.00    -0.271 OA
BRANCH  25  26
ATOM     26  C   UNL d   1      57.626   0.664  34.829  0.00  0.00     0.126 C 
ATOM     27  C   UNL d   1      56.892   0.677  34.481  0.00  0.00     0.029 C 
ENDBRANCH  25  26
ENDBRANCH  23  25
ENDBRANCH  22  23
ENDBRANCH  21  22
ENDBRANCH   2  21
BRANCH   1  28
ATOM     28  C   UNL d   1      55.891  -1.270  32.787  0.00  0.00     0.069 A 
ATOM     29  C   UNL d   1      55.667  -1.897  33.274  0.00  0.00     0.020 A 
ATOM     30  C   UNL d   1      55.043  -1.818  33.787  0.00  0.00     0.031 A 
ATOM     31  C   UNL d   1      54.630  -1.105  33.818  0.00  0.00     0.140 A 
ATOM     32  C   UNL d   1      54.854  -0.478  33.331  0.00  0.00     0.031 A 
ATOM     33  F   UNL d   1      53.988  -1.024  34.346  0.00  0.00    -0.204 F 
ATOM     34  C   UNL d   1      55.481  -0.558  32.816  0.00  0.00     0.020 A 
ENDBRANCH   1  28
TORSDOF 9
ENDMDL
