MODEL 1
REMARK VINA RESULT:      50.5      0.000      0.000
REMARK  6 active torsions:
REMARK  status: ('A' for Active; 'I' for Inactive)
REMARK    1  A    between atoms: S_9  and  C_3 
REMARK    2  A    between atoms: C_11  and  C_4 
REMARK    3  A    between atoms: C_20  and  S_9 
REMARK    4  A    between atoms: C_12  and  C_20 
REMARK       I    between atoms: N_17  and  C_12 
REMARK    5  A    between atoms: C_25  and  N_17 
REMARK    6  A    between atoms: C_24  and  C_25 
ROOT
ATOM      1  N   UNL d   1      43.819 -16.193  37.234  0.00  0.00    -0.263 N 
ATOM      2  C   UNL d   1      43.098 -16.450  36.934  0.00  0.00     0.202 A 
ATOM      3  C   UNL d   1      44.074 -16.747  37.788  0.00  0.00     0.202 A 
ATOM      4  C   UNL d   1      44.007 -15.482  36.862  0.00  0.00     0.074 A 
ATOM      5  N   UNL d   1      42.901 -17.155  37.295  0.00  0.00    -0.121 NA
ATOM      6  N   UNL d   1      43.502 -17.349  37.829  0.00  0.00    -0.121 NA
ATOM      7  S   UNL d   1      42.839 -15.898  36.378  0.00  0.00    -0.046 SA
ATOM      8  C   UNL d   1      43.395 -15.302  36.331  0.00  0.00     0.056 A 
ENDROOT
BRANCH   3   9
ATOM      9  S   UNL d   1      44.788 -16.641  38.188  0.00  0.00    -0.043 SA
BRANCH   9  10
ATOM     10  C   UNL d   1      45.211 -17.293  38.471  0.00  0.00     0.101 C 
BRANCH  10  11
ATOM     11  C   UNL d   1      45.758 -17.196  39.078  0.00  0.00     0.286 C 
ATOM     12  N   UNL d   1      45.720 -17.683  39.751  0.00  0.00    -0.206 NA
ATOM     13  O   UNL d   1      46.341 -16.617  39.018  0.00  0.00    -0.265 OA
BRANCH  12  14
ATOM     14  C   UNL d   1      46.269 -17.587  40.364  0.00  0.00     0.102 C 
BRANCH  14  15
ATOM     15  C   UNL d   1      46.363 -18.185  40.937  0.00  0.00     0.021 A 
ATOM     16  C   UNL d   1      46.276 -18.026  41.745  0.00  0.00     0.028 A 
ATOM     17  C   UNL d   1      46.371 -18.626  42.291  0.00  0.00     0.119 A 
ATOM     18  O   UNL d   1      46.322 -18.643  43.107  0.00  0.00    -0.300 OA
ATOM     19  C   UNL d   1      46.554 -19.385  42.038  0.00  0.00     0.119 A 
ATOM     20  C   UNL d   1      46.468 -19.386  43.366  0.00  0.00     0.304 A 
ATOM     21  O   UNL d   1      46.614 -19.860  42.701  0.00  0.00    -0.300 OA
ATOM     22  C   UNL d   1      46.639 -19.538  41.240  0.00  0.00     0.026 A 
ATOM     23  C   UNL d   1      46.541 -18.927  40.688  0.00  0.00     0.004 A 
ENDBRANCH  14  15
ENDBRANCH  12  14
ENDBRANCH  10  11
ENDBRANCH   9  10
ENDBRANCH   3   9
BRANCH   4  24
ATOM     24  C   UNL d   1      44.670 -15.000  36.966  0.00  0.00     0.017 A 
ATOM     25  C   UNL d   1      45.354 -15.140  36.541  0.00  0.00     0.002 A 
ATOM     26  C   UNL d   1      46.013 -14.664  36.642  0.00  0.00     0.011 A 
ATOM     27  C   UNL d   1      45.982 -14.033  37.184  0.00  0.00     0.058 A 
ATOM     28  C   UNL d   1      45.291 -13.890  37.615  0.00  0.00     0.011 A 
ATOM     29 CL   UNL d   1      46.641 -13.546  37.295  0.00  0.00    -0.082 Cl
ATOM     30  C   UNL d   1      44.633 -14.375  37.506  0.00  0.00     0.002 A 
ENDBRANCH   4  24
TORSDOF 6
ENDMDL
