MODEL 1
REMARK VINA RESULT:      -8.8      0.000      0.000
REMARK  2 active torsions:
REMARK  status: ('A' for Active; 'I' for Inactive)
REMARK    1  A    between atoms: S_8  and  C_4 
REMARK    2  A    between atoms: C_12  and  S_8 
ROOT
ATOM      1  C   UNL d   1      53.204  32.881  53.887  0.00  0.00     0.141 A 
ATOM      2  O   UNL d   1      52.705  32.558  53.315  0.00  0.00    -0.303 OA
ATOM      3  C   UNL d   1      53.689  32.276  54.177  0.00  0.00     0.110 A 
ATOM      4  C   UNL d   1      53.278  33.643  54.179  0.00  0.00     0.137 A 
ATOM      5  C   UNL d   1      53.488  31.582  53.784  0.00  0.00     0.043 A 
ATOM      6  C   UNL d   1      52.881  31.750  53.250  0.00  0.00     0.102 A 
ATOM      7  N   UNL d   1      53.840  33.810  54.766  0.00  0.00    -0.215 NA
ATOM      8  N   UNL d   1      54.245  32.446  54.759  0.00  0.00    -0.222 NA
ATOM      9  C   UNL d   1      54.319  33.210  55.051  0.00  0.00     0.200 A 
ATOM     10  C   UNL d   1      53.785  30.811  53.845  0.00  0.00     0.004 A 
ATOM     11  C   UNL d   1      52.565  31.152  52.774  0.00  0.00     0.025 A 
ATOM     12  C   UNL d   1      53.469  30.212  53.369  0.00  0.00     0.000 A 
ATOM     13  C   UNL d   1      52.864  30.384  52.838  0.00  0.00     0.002 A 
ENDROOT
BRANCH   4  14
ATOM     14  S   UNL d   1      52.795  34.256  53.894  0.00  0.00    -0.066 SA
BRANCH  14  15
ATOM     15  C   UNL d   1      52.988  35.041  54.066  0.00  0.00     0.031 C 
ATOM     16  C   UNL d   1      52.677  35.405  54.736  0.00  0.00     0.007 C 
ATOM     17  C   UNL d   1      53.489  35.456  53.566  0.00  0.00     0.007 C 
ENDBRANCH  14  15
ENDBRANCH   4  14
TORSDOF 2
ENDMDL
MODEL 2
REMARK VINA RESULT:      -8.6      1.474      3.615
REMARK  2 active torsions:
REMARK  status: ('A' for Active; 'I' for Inactive)
REMARK    1  A    between atoms: S_8  and  C_4 
REMARK    2  A    between atoms: C_12  and  S_8 
ROOT
ATOM      1  C   UNL d   1      53.542  32.063  53.779  0.00  0.00     0.141 A 
ATOM      2  O   UNL d   1      54.195  32.120  54.281  0.00  0.00    -0.303 OA
ATOM      3  C   UNL d   1      53.169  32.801  53.757  0.00  0.00     0.110 A 
ATOM      4  C   UNL d   1      53.243  31.437  53.343  0.00  0.00     0.137 A 
ATOM      5  C   UNL d   1      53.590  33.311  54.245  0.00  0.00     0.043 A 
ATOM      6  C   UNL d   1      54.225  32.896  54.571  0.00  0.00     0.102 A 
ATOM      7  N   UNL d   1      52.564  31.542  52.877  0.00  0.00    -0.215 NA
ATOM      8  N   UNL d   1      52.496  32.901  53.294  0.00  0.00    -0.222 NA
ATOM      9  C   UNL d   1      52.196  32.274  52.857  0.00  0.00     0.200 A 
ATOM     10  C   UNL d   1      53.475  34.110  54.435  0.00  0.00     0.004 A 
ATOM     11  C   UNL d   1      54.750  33.273  55.089  0.00  0.00     0.025 A 
ATOM     12  C   UNL d   1      54.000  34.487  54.952  0.00  0.00     0.000 A 
ATOM     13  C   UNL d   1      54.631  34.070  55.275  0.00  0.00     0.002 A 
ENDROOT
BRANCH   4  14
ATOM     14  S   UNL d   1      53.612  30.693  53.359  0.00  0.00    -0.066 SA
BRANCH  14  15
ATOM     15  C   UNL d   1      53.153  30.008  53.305  0.00  0.00     0.031 C 
ATOM     16  C   UNL d   1      52.978  29.574  53.982  0.00  0.00     0.007 C 
ATOM     17  C   UNL d   1      52.872  29.763  52.574  0.00  0.00     0.007 C 
ENDBRANCH  14  15
ENDBRANCH   4  14
TORSDOF 2
ENDMDL
MODEL 3
REMARK VINA RESULT:      -8.6      1.794      2.785
REMARK  2 active torsions:
REMARK  status: ('A' for Active; 'I' for Inactive)
REMARK    1  A    between atoms: S_8  and  C_4 
REMARK    2  A    between atoms: C_12  and  S_8 
ROOT
ATOM      1  C   UNL d   1      52.703  33.659  53.550  0.00  0.00     0.141 A 
ATOM      2  O   UNL d   1      52.998  34.279  54.007  0.00  0.00    -0.303 OA
ATOM      3  C   UNL d   1      53.140  32.978  53.726  0.00  0.00     0.110 A 
ATOM      4  C   UNL d   1      52.096  33.627  52.999  0.00  0.00     0.137 A 
ATOM      5  C   UNL d   1      53.703  33.179  54.290  0.00  0.00     0.043 A 
ATOM      6  C   UNL d   1      53.620  33.982  54.468  0.00  0.00     0.102 A 
ATOM      7  N   UNL d   1      51.919  32.912  52.617  0.00  0.00    -0.215 NA
ATOM      8  N   UNL d   1      52.960  32.272  53.345  0.00  0.00    -0.222 NA
ATOM      9  C   UNL d   1      52.352  32.240  52.794  0.00  0.00     0.200 A 
ATOM     10  C   UNL d   1      54.286  32.728  54.669  0.00  0.00     0.004 A 
ATOM     11  C   UNL d   1      54.118  34.340  55.023  0.00  0.00     0.025 A 
ATOM     12  C   UNL d   1      54.784  33.087  55.224  0.00  0.00     0.000 A 
ATOM     13  C   UNL d   1      54.698  33.887  55.398  0.00  0.00     0.002 A 
ENDROOT
BRANCH   4  14
ATOM     14  S   UNL d   1      51.653  34.306  52.817  0.00  0.00    -0.066 SA
BRANCH  14  15
ATOM     15  C   UNL d   1      50.929  34.227  52.427  0.00  0.00     0.031 C 
ATOM     16  C   UNL d   1      50.232  34.151  52.860  0.00  0.00     0.007 C 
ATOM     17  C   UNL d   1      50.906  34.226  51.606  0.00  0.00     0.007 C 
ENDBRANCH  14  15
ENDBRANCH   4  14
TORSDOF 2
ENDMDL
MODEL 4
REMARK VINA RESULT:      -8.4      1.467      3.425
REMARK  2 active torsions:
REMARK  status: ('A' for Active; 'I' for Inactive)
REMARK    1  A    between atoms: S_8  and  C_4 
REMARK    2  A    between atoms: C_12  and  S_8 
ROOT
ATOM      1  C   UNL d   1      52.686  32.263  53.281  0.00  0.00     0.141 A 
ATOM      2  O   UNL d   1      51.901  32.448  53.109  0.00  0.00    -0.303 OA
ATOM      3  C   UNL d   1      53.102  32.970  53.386  0.00  0.00     0.110 A 
ATOM      4  C   UNL d   1      53.073  31.543  53.355  0.00  0.00     0.137 A 
ATOM      5  C   UNL d   1      52.573  33.591  53.279  0.00  0.00     0.043 A 
ATOM      6  C   UNL d   1      51.830  33.275  53.108  0.00  0.00     0.102 A 
ATOM      7  N   UNL d   1      53.883  31.524  53.535  0.00  0.00    -0.215 NA
ATOM      8  N   UNL d   1      53.905  32.946  53.564  0.00  0.00    -0.222 NA
ATOM      9  C   UNL d   1      54.292  32.226  53.639  0.00  0.00     0.200 A 
ATOM     10  C   UNL d   1      52.676  34.413  53.316  0.00  0.00     0.004 A 
ATOM     11  C   UNL d   1      51.184  33.775  52.972  0.00  0.00     0.025 A 
ATOM     12  C   UNL d   1      52.031  34.912  53.180  0.00  0.00     0.000 A 
ATOM     13  C   UNL d   1      51.291  34.593  53.010  0.00  0.00     0.002 A 
ENDROOT
BRANCH   4  14
ATOM     14  S   UNL d   1      52.663  30.829  53.252  0.00  0.00    -0.066 SA
BRANCH  14  15
ATOM     15  C   UNL d   1      53.080  30.116  53.247  0.00  0.00     0.031 C 
ATOM     16  C   UNL d   1      53.200  29.703  53.950  0.00  0.00     0.007 C 
ATOM     17  C   UNL d   1      53.375  29.820  52.541  0.00  0.00     0.007 C 
ENDBRANCH  14  15
ENDBRANCH   4  14
TORSDOF 2
ENDMDL
MODEL 5
REMARK VINA RESULT:      -8.1      1.833      2.952
REMARK  2 active torsions:
REMARK  status: ('A' for Active; 'I' for Inactive)
REMARK    1  A    between atoms: S_8  and  C_4 
REMARK    2  A    between atoms: C_12  and  S_8 
ROOT
ATOM      1  C   UNL d   1      52.682  33.591  53.690  0.00  0.00     0.141 A 
ATOM      2  O   UNL d   1      52.191  34.223  53.888  0.00  0.00    -0.303 OA
ATOM      3  C   UNL d   1      52.348  33.198  53.043  0.00  0.00     0.110 A 
ATOM      4  C   UNL d   1      53.386  33.324  54.015  0.00  0.00     0.137 A 
ATOM      5  C   UNL d   1      51.653  33.588  52.843  0.00  0.00     0.043 A 
ATOM      6  C   UNL d   1      51.551  34.222  53.361  0.00  0.00     0.102 A 
ATOM      7  N   UNL d   1      53.766  32.659  53.695  0.00  0.00    -0.215 NA
ATOM      8  N   UNL d   1      52.728  32.539  52.729  0.00  0.00    -0.222 NA
ATOM      9  C   UNL d   1      53.433  32.272  53.054  0.00  0.00     0.200 A 
ATOM     10  C   UNL d   1      51.095  33.444  52.247  0.00  0.00     0.004 A 
ATOM     11  C   UNL d   1      50.891  34.718  53.291  0.00  0.00     0.025 A 
ATOM     12  C   UNL d   1      50.435  33.939  52.177  0.00  0.00     0.000 A 
ATOM     13  C   UNL d   1      50.337  34.571  52.696  0.00  0.00     0.002 A 
ENDROOT
BRANCH   4  14
ATOM     14  S   UNL d   1      53.728  33.713  54.665  0.00  0.00    -0.066 SA
BRANCH  14  15
ATOM     15  C   UNL d   1      54.406  33.400  55.017  0.00  0.00     0.031 C 
ATOM     16  C   UNL d   1      55.150  33.686  54.807  0.00  0.00     0.007 C 
ATOM     17  C   UNL d   1      54.337  32.804  55.577  0.00  0.00     0.007 C 
ENDBRANCH  14  15
ENDBRANCH   4  14
TORSDOF 2
ENDMDL
MODEL 6
REMARK VINA RESULT:      -7.9      1.864      2.213
REMARK  2 active torsions:
REMARK  status: ('A' for Active; 'I' for Inactive)
REMARK    1  A    between atoms: S_8  and  C_4 
REMARK    2  A    between atoms: C_12  and  S_8 
ROOT
ATOM      1  C   UNL d   1      52.049  33.186  53.176  0.00  0.00     0.141 A 
ATOM      2  O   UNL d   1      51.941  32.373  53.089  0.00  0.00    -0.303 OA
ATOM      3  C   UNL d   1      52.842  33.322  53.368  0.00  0.00     0.110 A 
ATOM      4  C   UNL d   1      51.528  33.816  53.106  0.00  0.00     0.137 A 
ATOM      5  C   UNL d   1      53.222  32.593  53.399  0.00  0.00     0.043 A 
ATOM      6  C   UNL d   1      52.671  32.003  53.227  0.00  0.00     0.102 A 
ATOM      7  N   UNL d   1      51.797  34.591  53.227  0.00  0.00    -0.215 NA
ATOM      8  N   UNL d   1      53.104  34.092  53.488  0.00  0.00    -0.222 NA
ATOM      9  C   UNL d   1      52.583  34.723  53.417  0.00  0.00     0.200 A 
ATOM     10  C   UNL d   1      54.009  32.391  53.564  0.00  0.00     0.004 A 
ATOM     11  C   UNL d   1      52.899  31.208  53.218  0.00  0.00     0.025 A 
ATOM     12  C   UNL d   1      54.237  31.595  53.555  0.00  0.00     0.000 A 
ATOM     13  C   UNL d   1      53.684  31.010  53.383  0.00  0.00     0.002 A 
ENDROOT
BRANCH   4  14
ATOM     14  S   UNL d   1      50.731  33.688  52.913  0.00  0.00    -0.066 SA
BRANCH  14  15
ATOM     15  C   UNL d   1      50.286  34.303  52.587  0.00  0.00     0.031 C 
ATOM     16  C   UNL d   1      50.277  34.418  51.771  0.00  0.00     0.007 C 
ATOM     17  C   UNL d   1      49.854  34.798  53.078  0.00  0.00     0.007 C 
ENDBRANCH  14  15
ENDBRANCH   4  14
TORSDOF 2
ENDMDL
