MODEL 1
REMARK VINA RESULT:      -6.7      0.000      0.000
REMARK  5 active torsions:
REMARK  status: ('A' for Active; 'I' for Inactive)
REMARK    1  A    between atoms: N_2  and  C_7 
REMARK    2  A    between atoms: N_6  and  C_3 
REMARK    3  A    between atoms: N_8  and  N_6 
REMARK    4  A    between atoms: C_15  and  N_8 
REMARK    5  A    between atoms: C_16  and  C_15 
ROOT
ATOM      1  C   UNL d   1     -46.001  12.172  23.248  0.00  0.00     0.127 A 
ATOM      2  C   UNL d   1     -45.774  12.724  22.679  0.00  0.00     0.024 A 
ATOM      3  C   UNL d   1     -46.678  12.321  23.698  0.00  0.00     0.024 A 
ATOM      4  C   UNL d   1     -46.882  13.554  23.005  0.00  0.00     0.021 A 
ATOM      5  C   UNL d   1     -47.115  13.014  23.572  0.00  0.00     0.003 A 
ATOM      6  C   UNL d   1     -46.221  13.408  22.567  0.00  0.00     0.003 A 
ENDROOT
BRANCH   4   7
ATOM      7  C   UNL d   1     -47.318  14.245  22.881  0.00  0.00     0.122 C 
BRANCH   7   8
ATOM      8  N   UNL d   1     -48.122  14.197  22.733  0.00  0.00    -0.144 NA
BRANCH   8   9
ATOM      9  N   UNL d   1     -48.553  14.905  22.556  0.00  0.00    -0.121 NA
BRANCH   9  10
ATOM     10  C   UNL d   1     -49.381  14.836  22.445  0.00  0.00     0.217 A 
ATOM     11  N   UNL d   1     -49.710  14.405  21.854  0.00  0.00    -0.181 NA
ATOM     12  C   UNL d   1     -50.538  14.463  21.917  0.00  0.00     0.288 A 
ATOM     13  O   UNL d   1     -51.064  14.080  21.387  0.00  0.00    -0.265 OA
ATOM     14  C   UNL d   1     -50.716  14.932  22.549  0.00  0.00     0.101 A 
ATOM     15  S   UNL d   1     -49.989  15.166  22.880  0.00  0.00    -0.041 SA
ENDBRANCH   9  10
ENDBRANCH   8   9
ENDBRANCH   7   8
ENDBRANCH   4   7
BRANCH   1  16
ATOM     16  N   UNL d   1     -45.589  11.502  23.379  0.00  0.00    -0.114 N 
ATOM     17  O   UNL d   1     -44.776  11.420  23.235  0.00  0.00    -0.532 OA
ATOM     18  O   UNL d   1     -45.881  10.806  23.664  0.00  0.00    -0.532 OA
ENDBRANCH   1  16
TORSDOF 5
ENDMDL
MODEL 2
REMARK VINA RESULT:      -6.7      1.280      1.630
REMARK  5 active torsions:
REMARK  status: ('A' for Active; 'I' for Inactive)
REMARK    1  A    between atoms: N_2  and  C_7 
REMARK    2  A    between atoms: N_6  and  C_3 
REMARK    3  A    between atoms: N_8  and  N_6 
REMARK    4  A    between atoms: C_15  and  N_8 
REMARK    5  A    between atoms: C_16  and  C_15 
ROOT
ATOM      1  C   UNL d   1     -46.446  11.870  23.454  0.00  0.00     0.127 A 
ATOM      2  C   UNL d   1     -46.733  12.643  23.468  0.00  0.00     0.024 A 
ATOM      3  C   UNL d   1     -46.985  11.245  23.509  0.00  0.00     0.024 A 
ATOM      4  C   UNL d   1     -48.070  12.172  23.591  0.00  0.00     0.021 A 
ATOM      5  C   UNL d   1     -47.796  11.402  23.578  0.00  0.00     0.003 A 
ATOM      6  C   UNL d   1     -47.544  12.780  23.537  0.00  0.00     0.003 A 
ENDROOT
BRANCH   4   7
ATOM      7  C   UNL d   1     -48.878  12.327  23.660  0.00  0.00     0.122 C 
BRANCH   7   8
ATOM      8  N   UNL d   1     -49.255  12.782  23.093  0.00  0.00    -0.144 NA
BRANCH   8   9
ATOM      9  N   UNL d   1     -50.100  12.846  23.108  0.00  0.00    -0.121 NA
BRANCH   9  10
ATOM     10  C   UNL d   1     -50.450  13.443  22.635  0.00  0.00     0.217 A 
ATOM     11  N   UNL d   1     -50.525  14.205  22.875  0.00  0.00    -0.181 NA
ATOM     12  C   UNL d   1     -50.896  14.636  22.267  0.00  0.00     0.288 A 
ATOM     13  O   UNL d   1     -51.064  15.456  22.326  0.00  0.00    -0.265 OA
ATOM     14  C   UNL d   1     -51.048  14.135  21.652  0.00  0.00     0.101 A 
ATOM     15  S   UNL d   1     -50.768  13.387  21.885  0.00  0.00    -0.041 SA
ENDBRANCH   9  10
ENDBRANCH   8   9
ENDBRANCH   7   8
ENDBRANCH   4   7
BRANCH   1  16
ATOM     16  N   UNL d   1     -45.669  11.706  23.388  0.00  0.00    -0.114 N 
ATOM     17  O   UNL d   1     -45.310  11.025  23.698  0.00  0.00    -0.532 OA
ATOM     18  O   UNL d   1     -45.111  12.158  23.020  0.00  0.00    -0.532 OA
ENDBRANCH   1  16
TORSDOF 5
ENDMDL
MODEL 3
REMARK VINA RESULT:      -5.9      1.541      4.789
REMARK  5 active torsions:
REMARK  status: ('A' for Active; 'I' for Inactive)
REMARK    1  A    between atoms: N_2  and  C_7 
REMARK    2  A    between atoms: N_6  and  C_3 
REMARK    3  A    between atoms: N_8  and  N_6 
REMARK    4  A    between atoms: C_15  and  N_8 
REMARK    5  A    between atoms: C_16  and  C_15 
ROOT
ATOM      1  C   UNL d   1     -49.886  14.374  22.272  0.00  0.00     0.127 A 
ATOM      2  C   UNL d   1     -49.688  13.644  22.600  0.00  0.00     0.024 A 
ATOM      3  C   UNL d   1     -49.307  14.963  22.235  0.00  0.00     0.024 A 
ATOM      4  C   UNL d   1     -48.360  14.087  22.849  0.00  0.00     0.021 A 
ATOM      5  C   UNL d   1     -48.545  14.814  22.526  0.00  0.00     0.003 A 
ATOM      6  C   UNL d   1     -48.925  13.514  22.884  0.00  0.00     0.003 A 
ENDROOT
BRANCH   4   7
ATOM      7  C   UNL d   1     -47.600  13.940  23.139  0.00  0.00     0.122 C 
BRANCH   7   8
ATOM      8  N   UNL d   1     -47.354  13.169  23.260  0.00  0.00    -0.144 NA
BRANCH   8   9
ATOM      9  N   UNL d   1     -46.598  13.027  23.616  0.00  0.00    -0.121 NA
BRANCH   9  10
ATOM     10  C   UNL d   1     -46.300  12.244  23.591  0.00  0.00     0.217 A 
ATOM     11  N   UNL d   1     -45.530  12.071  23.447  0.00  0.00    -0.181 NA
ATOM     12  C   UNL d   1     -45.439  11.245  23.464  0.00  0.00     0.288 A 
ATOM     13  O   UNL d   1     -44.702  10.863  23.336  0.00  0.00    -0.265 OA
ATOM     14  C   UNL d   1     -46.157  10.909  23.619  0.00  0.00     0.101 A 
ATOM     15  S   UNL d   1     -46.696  11.537  23.698  0.00  0.00    -0.041 SA
ENDBRANCH   9  10
ENDBRANCH   8   9
ENDBRANCH   7   8
ENDBRANCH   4   7
BRANCH   1  16
ATOM     16  N   UNL d   1     -50.615  14.530  21.988  0.00  0.00    -0.114 N 
ATOM     17  O   UNL d   1     -51.029  14.031  21.471  0.00  0.00    -0.532 OA
ATOM     18  O   UNL d   1     -51.064  15.180  22.150  0.00  0.00    -0.532 OA
ENDBRANCH   1  16
TORSDOF 5
ENDMDL
MODEL 4
REMARK VINA RESULT:      -5.8      2.338      5.049
REMARK  5 active torsions:
REMARK  status: ('A' for Active; 'I' for Inactive)
REMARK    1  A    between atoms: N_2  and  C_7 
REMARK    2  A    between atoms: N_6  and  C_3 
REMARK    3  A    between atoms: N_8  and  N_6 
REMARK    4  A    between atoms: C_15  and  N_8 
REMARK    5  A    between atoms: C_16  and  C_15 
ROOT
ATOM      1  C   UNL d   1     -48.617  13.272  22.370  0.00  0.00     0.127 A 
ATOM      2  C   UNL d   1     -48.066  13.565  22.908  0.00  0.00     0.024 A 
ATOM      3  C   UNL d   1     -48.674  12.454  22.266  0.00  0.00     0.024 A 
ATOM      4  C   UNL d   1     -47.638  12.247  23.228  0.00  0.00     0.021 A 
ATOM      5  C   UNL d   1     -48.181  11.946  22.698  0.00  0.00     0.003 A 
ATOM      6  C   UNL d   1     -47.584  13.045  23.329  0.00  0.00     0.003 A 
ENDROOT
BRANCH   4   7
ATOM      7  C   UNL d   1     -47.147  11.740  23.659  0.00  0.00     0.122 C 
BRANCH   7   8
ATOM      8  N   UNL d   1     -46.375  11.619  23.416  0.00  0.00    -0.144 NA
BRANCH   8   9
ATOM      9  N   UNL d   1     -45.956  10.938  23.695  0.00  0.00    -0.121 NA
BRANCH   9  10
ATOM     10  C   UNL d   1     -45.149  10.865  23.479  0.00  0.00     0.217 A 
ATOM     11  N   UNL d   1     -44.753  11.427  23.067  0.00  0.00    -0.181 NA
ATOM     12  C   UNL d   1     -43.970  11.168  22.954  0.00  0.00     0.288 A 
ATOM     13  O   UNL d   1     -43.394  11.618  22.542  0.00  0.00    -0.265 OA
ATOM     14  C   UNL d   1     -43.887  10.443  23.300  0.00  0.00     0.101 A 
ATOM     15  S   UNL d   1     -44.628  10.254  23.629  0.00  0.00    -0.041 SA
ENDBRANCH   9  10
ENDBRANCH   8   9
ENDBRANCH   7   8
ENDBRANCH   4   7
BRANCH   1  16
ATOM     16  N   UNL d   1     -49.097  13.750  21.949  0.00  0.00    -0.114 N 
ATOM     17  O   UNL d   1     -49.426  13.547  21.214  0.00  0.00    -0.532 OA
ATOM     18  O   UNL d   1     -49.339  14.491  22.154  0.00  0.00    -0.532 OA
ENDBRANCH   1  16
TORSDOF 5
ENDMDL
MODEL 5
REMARK VINA RESULT:      -5.7      2.213      4.591
REMARK  5 active torsions:
REMARK  status: ('A' for Active; 'I' for Inactive)
REMARK    1  A    between atoms: N_2  and  C_7 
REMARK    2  A    between atoms: N_6  and  C_3 
REMARK    3  A    between atoms: N_8  and  N_6 
REMARK    4  A    between atoms: C_15  and  N_8 
REMARK    5  A    between atoms: C_16  and  C_15 
ROOT
ATOM      1  C   UNL d   1     -49.689  12.333  23.059  0.00  0.00     0.127 A 
ATOM      2  C   UNL d   1     -49.310  13.065  23.067  0.00  0.00     0.024 A 
ATOM      3  C   UNL d   1     -49.255  11.659  23.262  0.00  0.00     0.024 A 
ATOM      4  C   UNL d   1     -48.090  12.459  23.475  0.00  0.00     0.021 A 
ATOM      5  C   UNL d   1     -48.455  11.729  23.470  0.00  0.00     0.003 A 
ATOM      6  C   UNL d   1     -48.514  13.115  23.276  0.00  0.00     0.003 A 
ENDROOT
BRANCH   4   7
ATOM      7  C   UNL d   1     -47.293  12.527  23.682  0.00  0.00     0.122 C 
BRANCH   7   8
ATOM      8  N   UNL d   1     -46.720  12.538  23.097  0.00  0.00    -0.144 NA
BRANCH   8   9
ATOM      9  N   UNL d   1     -45.903  12.559  23.319  0.00  0.00    -0.121 NA
BRANCH   9  10
ATOM     10  C   UNL d   1     -45.344  12.728  22.717  0.00  0.00     0.217 A 
ATOM     11  N   UNL d   1     -44.701  12.270  22.572  0.00  0.00    -0.181 NA
ATOM     12  C   UNL d   1     -44.276  12.606  21.941  0.00  0.00     0.288 A 
ATOM     13  O   UNL d   1     -43.568  12.272  21.638  0.00  0.00    -0.265 OA
ATOM     14  C   UNL d   1     -44.660  13.274  21.699  0.00  0.00     0.101 A 
ATOM     15  S   UNL d   1     -45.330  13.349  22.186  0.00  0.00    -0.041 SA
ENDBRANCH   9  10
ENDBRANCH   8   9
ENDBRANCH   7   8
ENDBRANCH   4   7
BRANCH   1  16
ATOM     16  N   UNL d   1     -50.457  12.253  22.861  0.00  0.00    -0.114 N 
ATOM     17  O   UNL d   1     -51.008  11.818  23.304  0.00  0.00    -0.532 OA
ATOM     18  O   UNL d   1     -50.824  12.571  22.217  0.00  0.00    -0.532 OA
ENDBRANCH   1  16
TORSDOF 5
ENDMDL
MODEL 6
REMARK VINA RESULT:      -5.4      8.473      8.899
REMARK  5 active torsions:
REMARK  status: ('A' for Active; 'I' for Inactive)
REMARK    1  A    between atoms: N_2  and  C_7 
REMARK    2  A    between atoms: N_6  and  C_3 
REMARK    3  A    between atoms: N_8  and  N_6 
REMARK    4  A    between atoms: C_15  and  N_8 
REMARK    5  A    between atoms: C_16  and  C_15 
ROOT
ATOM      1  C   UNL d   1     -39.205  15.384  22.194  0.00  0.00     0.127 A 
ATOM      2  C   UNL d   1     -39.751  15.831  21.767  0.00  0.00     0.024 A 
ATOM      3  C   UNL d   1     -39.083  14.595  21.980  0.00  0.00     0.024 A 
ATOM      4  C   UNL d   1     -40.045  14.719  20.931  0.00  0.00     0.021 A 
ATOM      5  C   UNL d   1     -39.506  14.267  21.346  0.00  0.00     0.003 A 
ATOM      6  C   UNL d   1     -40.163  15.488  21.140  0.00  0.00     0.003 A 
ENDROOT
BRANCH   4   7
ATOM      7  C   UNL d   1     -40.467  14.391  20.299  0.00  0.00     0.122 C 
BRANCH   7   8
ATOM      8  N   UNL d   1     -40.264  14.585  19.531  0.00  0.00    -0.144 NA
BRANCH   8   9
ATOM      9  N   UNL d   1     -40.609  14.151  18.890  0.00  0.00    -0.121 NA
BRANCH   9  10
ATOM     10  C   UNL d   1     -40.575  14.497  18.127  0.00  0.00     0.217 A 
ATOM     11  N   UNL d   1     -41.220  14.780  17.743  0.00  0.00    -0.181 NA
ATOM     12  C   UNL d   1     -40.978  15.079  17.006  0.00  0.00     0.288 A 
ATOM     13  O   UNL d   1     -41.510  15.421  16.454  0.00  0.00    -0.265 OA
ATOM     14  C   UNL d   1     -40.179  14.980  16.938  0.00  0.00     0.101 A 
ATOM     15  S   UNL d   1     -39.928  14.614  17.642  0.00  0.00    -0.041 SA
ENDBRANCH   9  10
ENDBRANCH   8   9
ENDBRANCH   7   8
ENDBRANCH   4   7
BRANCH   1  16
ATOM     16  N   UNL d   1     -38.791  15.687  22.805  0.00  0.00    -0.114 N 
ATOM     17  O   UNL d   1     -37.996  15.922  22.757  0.00  0.00    -0.532 OA
ATOM     18  O   UNL d   1     -39.063  15.815  23.553  0.00  0.00    -0.532 OA
ENDBRANCH   1  16
TORSDOF 5
ENDMDL
MODEL 7
REMARK VINA RESULT:      -5.2      1.782      4.935
REMARK  5 active torsions:
REMARK  status: ('A' for Active; 'I' for Inactive)
REMARK    1  A    between atoms: N_2  and  C_7 
REMARK    2  A    between atoms: N_6  and  C_3 
REMARK    3  A    between atoms: N_8  and  N_6 
REMARK    4  A    between atoms: C_15  and  N_8 
REMARK    5  A    between atoms: C_16  and  C_15 
ROOT
ATOM      1  C   UNL d   1     -50.174  14.352  22.550  0.00  0.00     0.127 A 
ATOM      2  C   UNL d   1     -49.579  14.394  23.118  0.00  0.00     0.024 A 
ATOM      3  C   UNL d   1     -50.379  13.612  22.242  0.00  0.00     0.024 A 
ATOM      4  C   UNL d   1     -49.399  12.984  23.071  0.00  0.00     0.021 A 
ATOM      5  C   UNL d   1     -49.988  12.931  22.507  0.00  0.00     0.003 A 
ATOM      6  C   UNL d   1     -49.200  13.705  23.370  0.00  0.00     0.003 A 
ENDROOT
BRANCH   4   7
ATOM      7  C   UNL d   1     -49.010  12.304  23.335  0.00  0.00     0.122 C 
BRANCH   7   8
ATOM      8  N   UNL d   1     -48.193  12.265  23.303  0.00  0.00    -0.144 NA
BRANCH   8   9
ATOM      9  N   UNL d   1     -47.800  11.571  23.590  0.00  0.00    -0.121 NA
BRANCH   9  10
ATOM     10  C   UNL d   1     -46.965  11.547  23.529  0.00  0.00     0.217 A 
ATOM     11  N   UNL d   1     -46.530  10.894  23.697  0.00  0.00    -0.181 NA
ATOM     12  C   UNL d   1     -45.727  11.074  23.575  0.00  0.00     0.288 A 
ATOM     13  O   UNL d   1     -45.111  10.518  23.698  0.00  0.00    -0.265 OA
ATOM     14  C   UNL d   1     -45.670  11.841  23.330  0.00  0.00     0.101 A 
ATOM     15  S   UNL d   1     -46.447  12.137  23.302  0.00  0.00    -0.041 SA
ENDBRANCH   9  10
ENDBRANCH   8   9
ENDBRANCH   7   8
ENDBRANCH   4   7
BRANCH   1  16
ATOM     16  N   UNL d   1     -50.558  15.000  22.286  0.00  0.00    -0.114 N 
ATOM     17  O   UNL d   1     -50.883  15.070  21.526  0.00  0.00    -0.532 OA
ATOM     18  O   UNL d   1     -50.694  15.679  22.699  0.00  0.00    -0.532 OA
ENDBRANCH   1  16
TORSDOF 5
ENDMDL
MODEL 8
REMARK VINA RESULT:      -5.2      8.457      9.634
REMARK  5 active torsions:
REMARK  status: ('A' for Active; 'I' for Inactive)
REMARK    1  A    between atoms: N_2  and  C_7 
REMARK    2  A    between atoms: N_6  and  C_3 
REMARK    3  A    between atoms: N_8  and  N_6 
REMARK    4  A    between atoms: C_15  and  N_8 
REMARK    5  A    between atoms: C_16  and  C_15 
ROOT
ATOM      1  C   UNL d   1     -40.595  15.209  17.839  0.00  0.00     0.127 A 
ATOM      2  C   UNL d   1     -40.623  15.821  18.390  0.00  0.00     0.024 A 
ATOM      3  C   UNL d   1     -40.558  14.429  18.112  0.00  0.00     0.024 A 
ATOM      4  C   UNL d   1     -40.578  14.890  19.464  0.00  0.00     0.021 A 
ATOM      5  C   UNL d   1     -40.550  14.276  18.927  0.00  0.00     0.003 A 
ATOM      6  C   UNL d   1     -40.614  15.650  19.197  0.00  0.00     0.003 A 
ENDROOT
BRANCH   4   7
ATOM      7  C   UNL d   1     -40.569  14.737  20.277  0.00  0.00     0.122 C 
BRANCH   7   8
ATOM      8  N   UNL d   1     -39.864  14.551  20.648  0.00  0.00    -0.144 NA
BRANCH   8   9
ATOM      9  N   UNL d   1     -39.833  14.538  21.495  0.00  0.00    -0.121 NA
BRANCH   9  10
ATOM     10  C   UNL d   1     -39.137  14.236  21.851  0.00  0.00     0.217 A 
ATOM     11  N   UNL d   1     -39.003  13.453  21.962  0.00  0.00    -0.181 NA
ATOM     12  C   UNL d   1     -38.262  13.362  22.328  0.00  0.00     0.288 A 
ATOM     13  O   UNL d   1     -37.940  12.613  22.528  0.00  0.00    -0.265 OA
ATOM     14  C   UNL d   1     -37.940  14.094  22.442  0.00  0.00     0.101 A 
ATOM     15  S   UNL d   1     -38.490  14.641  22.142  0.00  0.00    -0.041 SA
ENDBRANCH   9  10
ENDBRANCH   8   9
ENDBRANCH   7   8
ENDBRANCH   4   7
BRANCH   1  16
ATOM     16  N   UNL d   1     -40.603  15.343  17.053  0.00  0.00    -0.114 N 
ATOM     17  O   UNL d   1     -41.274  15.254  16.573  0.00  0.00    -0.532 OA
ATOM     18  O   UNL d   1     -39.979  15.580  16.599  0.00  0.00    -0.532 OA
ENDBRANCH   1  16
TORSDOF 5
ENDMDL
