MODEL 1
REMARK VINA RESULT:      -2.8      0.000      0.000
REMARK  1 active torsions:
REMARK  status: ('A' for Active; 'I' for Inactive)
REMARK    1  A    between atoms: C_6  and  C_1 
ROOT
ATOM      1  C   UNL d   1      30.618  16.534 -24.028  0.00  0.00     0.163 A 
ATOM      2  N   UNL d   1      30.826  17.284 -24.299  0.00  0.00    -0.225 NA
ATOM      3  N   UNL d   1      31.250  16.207 -23.593  0.00  0.00    -0.225 NA
ATOM      4  C   UNL d   1      31.600  17.449 -24.039  0.00  0.00     0.101 A 
ATOM      5  C   UNL d   1      31.866  16.775 -23.597  0.00  0.00     0.101 A 
ATOM      6  C   UNL d   1      32.098  18.078 -24.125  0.00  0.00     0.021 A 
ATOM      7  C   UNL d   1      32.610  16.777 -23.271  0.00  0.00     0.021 A 
ATOM      8  C   UNL d   1      32.851  18.062 -23.787  0.00  0.00     0.002 A 
ATOM      9  C   UNL d   1      33.098  17.435 -23.375  0.00  0.00     0.002 A 
ENDROOT
BRANCH   1  10
ATOM     10  C   UNL d   1      29.887  16.179 -24.177  0.00  0.00     0.039 A 
ATOM     11  C   UNL d   1      29.715  15.799 -24.888  0.00  0.00     0.024 A 
ATOM     12  C   UNL d   1      28.982  15.453 -25.014  0.00  0.00     0.099 A 
ATOM     13  N   UNL d   1      28.380  15.454 -24.464  0.00  0.00    -0.242 NA
ATOM     14  C   UNL d   1      28.543  15.843 -23.726  0.00  0.00     0.099 A 
ATOM     15  C   UNL d   1      29.302  16.202 -23.596  0.00  0.00     0.024 A 
ENDBRANCH   1  10
TORSDOF 1
ENDMDL
MODEL 2
REMARK VINA RESULT:      -2.7      4.592      6.375
REMARK  1 active torsions:
REMARK  status: ('A' for Active; 'I' for Inactive)
REMARK    1  A    between atoms: C_6  and  C_1 
ROOT
ATOM      1  C   UNL d   1      32.880  21.369 -21.404  0.00  0.00     0.163 A 
ATOM      2  N   UNL d   1      32.942  20.611 -21.087  0.00  0.00    -0.225 NA
ATOM      3  N   UNL d   1      32.945  21.333 -22.235  0.00  0.00    -0.225 NA
ATOM      4  C   UNL d   1      33.050  20.075 -21.716  0.00  0.00     0.101 A 
ATOM      5  C   UNL d   1      33.051  20.527 -22.435  0.00  0.00     0.101 A 
ATOM      6  C   UNL d   1      33.144  19.274 -21.760  0.00  0.00     0.021 A 
ATOM      7  C   UNL d   1      33.147  20.148 -23.147  0.00  0.00     0.021 A 
ATOM      8  C   UNL d   1      33.239  18.907 -22.494  0.00  0.00     0.002 A 
ATOM      9  C   UNL d   1      33.241  19.328 -23.162  0.00  0.00     0.002 A 
ENDROOT
BRANCH   1  10
ATOM     10  C   UNL d   1      32.769  22.049 -20.948  0.00  0.00     0.039 A 
ATOM     11  C   UNL d   1      33.154  22.169 -20.229  0.00  0.00     0.024 A 
ATOM     12  C   UNL d   1      33.029  22.852 -19.793  0.00  0.00     0.099 A 
ATOM     13  N   UNL d   1      32.528  23.452 -20.024  0.00  0.00    -0.242 NA
ATOM     14  C   UNL d   1      32.124  23.342 -20.764  0.00  0.00     0.099 A 
ATOM     15  C   UNL d   1      32.253  22.635 -21.216  0.00  0.00     0.024 A 
ENDBRANCH   1  10
TORSDOF 1
ENDMDL
MODEL 3
REMARK VINA RESULT:      -2.6      0.833      1.145
REMARK  1 active torsions:
REMARK  status: ('A' for Active; 'I' for Inactive)
REMARK    1  A    between atoms: C_6  and  C_1 
ROOT
ATOM      1  C   UNL d   1      31.069  17.158 -24.339  0.00  0.00     0.163 A 
ATOM      2  N   UNL d   1      31.403  17.708 -24.854  0.00  0.00    -0.225 NA
ATOM      3  N   UNL d   1      31.496  17.147 -23.624  0.00  0.00    -0.225 NA
ATOM      4  C   UNL d   1      32.055  18.059 -24.472  0.00  0.00     0.101 A 
ATOM      5  C   UNL d   1      32.114  17.707 -23.701  0.00  0.00     0.101 A 
ATOM      6  C   UNL d   1      32.592  18.622 -24.684  0.00  0.00     0.021 A 
ATOM      7  C   UNL d   1      32.705  17.944 -23.196  0.00  0.00     0.021 A 
ATOM      8  C   UNL d   1      33.186  18.849 -24.157  0.00  0.00     0.002 A 
ATOM      9  C   UNL d   1      33.241  18.522 -23.440  0.00  0.00     0.002 A 
ENDROOT
BRANCH   1  10
ATOM     10  C   UNL d   1      30.408  16.698 -24.526  0.00  0.00     0.039 A 
ATOM     11  C   UNL d   1      29.638  16.938 -24.356  0.00  0.00     0.024 A 
ATOM     12  C   UNL d   1      28.997  16.464 -24.550  0.00  0.00     0.099 A 
ATOM     13  N   UNL d   1      29.064  15.739 -24.916  0.00  0.00    -0.242 NA
ATOM     14  C   UNL d   1      29.853  15.479 -25.097  0.00  0.00     0.099 A 
ATOM     15  C   UNL d   1      30.516  15.969 -24.896  0.00  0.00     0.024 A 
ENDBRANCH   1  10
TORSDOF 1
ENDMDL
MODEL 4
REMARK VINA RESULT:      -2.5      4.838      6.271
REMARK  1 active torsions:
REMARK  status: ('A' for Active; 'I' for Inactive)
REMARK    1  A    between atoms: C_6  and  C_1 
ROOT
ATOM      1  C   UNL d   1      32.908  21.271 -21.355  0.00  0.00     0.163 A 
ATOM      2  N   UNL d   1      32.440  21.914 -21.572  0.00  0.00    -0.225 NA
ATOM      3  N   UNL d   1      33.241  21.406 -20.603  0.00  0.00    -0.225 NA
ATOM      4  C   UNL d   1      32.467  22.474 -20.954  0.00  0.00     0.101 A 
ATOM      5  C   UNL d   1      32.968  22.156 -20.348  0.00  0.00     0.101 A 
ATOM      6  C   UNL d   1      32.132  23.199 -20.841  0.00  0.00     0.021 A 
ATOM      7  C   UNL d   1      33.100  22.584 -19.670  0.00  0.00     0.021 A 
ATOM      8  C   UNL d   1      32.277  23.620 -20.146  0.00  0.00     0.002 A 
ATOM      9  C   UNL d   1      32.743  23.323 -19.581  0.00  0.00     0.002 A 
ENDROOT
BRANCH   1  10
ATOM     10  C   UNL d   1      33.017  20.604 -21.830  0.00  0.00     0.039 A 
ATOM     11  C   UNL d   1      33.103  19.846 -21.517  0.00  0.00     0.024 A 
ATOM     12  C   UNL d   1      33.211  19.197 -22.007  0.00  0.00     0.099 A 
ATOM     13  N   UNL d   1      33.241  19.244 -22.820  0.00  0.00    -0.242 NA
ATOM     14  C   UNL d   1      33.154  20.020 -23.157  0.00  0.00     0.099 A 
ATOM     15  C   UNL d   1      33.043  20.691 -22.650  0.00  0.00     0.024 A 
ENDBRANCH   1  10
TORSDOF 1
ENDMDL
MODEL 5
REMARK VINA RESULT:      -2.5      3.353      4.869
REMARK  1 active torsions:
REMARK  status: ('A' for Active; 'I' for Inactive)
REMARK    1  A    between atoms: C_6  and  C_1 
ROOT
ATOM      1  C   UNL d   1      33.048  19.897 -22.411  0.00  0.00     0.163 A 
ATOM      2  N   UNL d   1      32.868  19.932 -21.607  0.00  0.00    -0.225 NA
ATOM      3  N   UNL d   1      33.220  20.661 -22.695  0.00  0.00    -0.225 NA
ATOM      4  C   UNL d   1      32.924  20.727 -21.364  0.00  0.00     0.101 A 
ATOM      5  C   UNL d   1      33.144  21.184 -22.045  0.00  0.00     0.101 A 
ATOM      6  C   UNL d   1      32.816  21.106 -20.660  0.00  0.00     0.021 A 
ATOM      7  C   UNL d   1      33.241  21.988 -21.974  0.00  0.00     0.021 A 
ATOM      8  C   UNL d   1      32.918  21.924 -20.608  0.00  0.00     0.002 A 
ATOM      9  C   UNL d   1      33.123  22.349 -21.242  0.00  0.00     0.002 A 
ENDROOT
BRANCH   1  10
ATOM     10  C   UNL d   1      33.050  19.196 -22.849  0.00  0.00     0.039 A 
ATOM     11  C   UNL d   1      32.877  19.176 -23.655  0.00  0.00     0.024 A 
ATOM     12  C   UNL d   1      32.885  18.469 -24.071  0.00  0.00     0.099 A 
ATOM     13  N   UNL d   1      33.060  17.748 -23.734  0.00  0.00    -0.242 NA
ATOM     14  C   UNL d   1      33.241  17.753 -22.903  0.00  0.00     0.099 A 
ATOM     15  C   UNL d   1      33.232  18.485 -22.473  0.00  0.00     0.024 A 
ENDBRANCH   1  10
TORSDOF 1
ENDMDL
MODEL 6
REMARK VINA RESULT:      -2.4      3.399      5.325
REMARK  1 active torsions:
REMARK  status: ('A' for Active; 'I' for Inactive)
REMARK    1  A    between atoms: C_6  and  C_1 
ROOT
ATOM      1  C   UNL d   1      32.889  20.124 -22.160  0.00  0.00     0.163 A 
ATOM      2  N   UNL d   1      33.139  19.404 -21.847  0.00  0.00    -0.225 NA
ATOM      3  N   UNL d   1      32.667  20.022 -22.958  0.00  0.00    -0.225 NA
ATOM      4  C   UNL d   1      33.080  18.827 -22.445  0.00  0.00     0.101 A 
ATOM      5  C   UNL d   1      32.785  19.213 -23.140  0.00  0.00     0.101 A 
ATOM      6  C   UNL d   1      33.240  18.036 -22.477  0.00  0.00     0.021 A 
ATOM      7  C   UNL d   1      32.669  18.783 -23.820  0.00  0.00     0.021 A 
ATOM      8  C   UNL d   1      33.116  17.616 -23.177  0.00  0.00     0.002 A 
ATOM      9  C   UNL d   1      32.841  17.976 -23.824  0.00  0.00     0.002 A 
ENDROOT
BRANCH   1  10
ATOM     10  C   UNL d   1      32.869  20.829 -21.730  0.00  0.00     0.039 A 
ATOM     11  C   UNL d   1      32.490  20.895 -21.001  0.00  0.00     0.024 A 
ATOM     12  C   UNL d   1      32.482  21.605 -20.592  0.00  0.00     0.099 A 
ATOM     13  N   UNL d   1      32.839  22.287 -20.862  0.00  0.00    -0.242 NA
ATOM     14  C   UNL d   1      33.234  22.235 -21.613  0.00  0.00     0.099 A 
ATOM     15  C   UNL d   1      33.241  21.499 -22.037  0.00  0.00     0.024 A 
ENDBRANCH   1  10
TORSDOF 1
ENDMDL
MODEL 7
REMARK VINA RESULT:      -2.2      0.994      3.490
REMARK  1 active torsions:
REMARK  status: ('A' for Active; 'I' for Inactive)
REMARK    1  A    between atoms: C_6  and  C_1 
ROOT
ATOM      1  C   UNL d   1      30.911  16.861 -24.056  0.00  0.00     0.163 A 
ATOM      2  N   UNL d   1      30.814  16.186 -23.593  0.00  0.00    -0.225 NA
ATOM      3  N   UNL d   1      30.166  17.143 -24.302  0.00  0.00    -0.225 NA
ATOM      4  C   UNL d   1      29.998  16.025 -23.536  0.00  0.00     0.101 A 
ATOM      5  C   UNL d   1      29.592  16.624 -23.980  0.00  0.00     0.101 A 
ATOM      6  C   UNL d   1      29.565  15.453 -23.168  0.00  0.00     0.021 A 
ATOM      7  C   UNL d   1      28.781  16.609 -24.024  0.00  0.00     0.021 A 
ATOM      8  C   UNL d   1      28.741  15.454 -23.225  0.00  0.00     0.002 A 
ATOM      9  C   UNL d   1      28.363  16.012 -23.638  0.00  0.00     0.002 A 
ENDROOT
BRANCH   1  10
ATOM     10  C   UNL d   1      31.646  17.192 -24.236  0.00  0.00     0.039 A 
ATOM     11  C   UNL d   1      32.045  17.031 -24.939  0.00  0.00     0.024 A 
ATOM     12  C   UNL d   1      32.775  17.371 -25.097  0.00  0.00     0.099 A 
ATOM     13  N   UNL d   1      33.157  17.881 -24.588  0.00  0.00    -0.242 NA
ATOM     14  C   UNL d   1      32.756  18.056 -23.859  0.00  0.00     0.099 A 
ATOM     15  C   UNL d   1      32.001  17.704 -23.695  0.00  0.00     0.024 A 
ENDBRANCH   1  10
TORSDOF 1
ENDMDL
MODEL 8
REMARK VINA RESULT:      -1.7      1.311      1.688
REMARK  1 active torsions:
REMARK  status: ('A' for Active; 'I' for Inactive)
REMARK    1  A    between atoms: C_6  and  C_1 
ROOT
ATOM      1  C   UNL d   1      30.690  16.592 -24.389  0.00  0.00     0.163 A 
ATOM      2  N   UNL d   1      31.054  16.644 -23.652  0.00  0.00    -0.225 NA
ATOM      3  N   UNL d   1      31.192  16.195 -24.924  0.00  0.00    -0.225 NA
ATOM      4  C   UNL d   1      31.801  16.278 -23.705  0.00  0.00     0.101 A 
ATOM      5  C   UNL d   1      31.887  15.997 -24.502  0.00  0.00     0.101 A 
ATOM      6  C   UNL d   1      32.403  16.155 -23.182  0.00  0.00     0.021 A 
ATOM      7  C   UNL d   1      32.569  15.612 -24.720  0.00  0.00     0.021 A 
ATOM      8  C   UNL d   1      33.088  15.762 -23.422  0.00  0.00     0.002 A 
ATOM      9  C   UNL d   1      33.169  15.500 -24.163  0.00  0.00     0.002 A 
ENDROOT
BRANCH   1  10
ATOM     10  C   UNL d   1      29.938  16.894 -24.551  0.00  0.00     0.039 A 
ATOM     11  C   UNL d   1      29.247  16.472 -24.397  0.00  0.00     0.024 A 
ATOM     12  C   UNL d   1      28.511  16.792 -24.566  0.00  0.00     0.099 A 
ATOM     13  N   UNL d   1      28.403  17.532 -24.892  0.00  0.00    -0.242 NA
ATOM     14  C   UNL d   1      29.107  17.979 -25.056  0.00  0.00     0.099 A 
ATOM     15  C   UNL d   1      29.869  17.647 -24.881  0.00  0.00     0.024 A 
ENDBRANCH   1  10
TORSDOF 1
ENDMDL
