MODEL 1
REMARK VINA RESULT:      -4.7      0.000      0.000
REMARK  5 active torsions:
REMARK  status: ('A' for Active; 'I' for Inactive)
REMARK       I    between atoms: C_3  and  N_1 
REMARK    1  A    between atoms: C_8  and  N_2 
REMARK    2  A    between atoms: C_11  and  C_3 
REMARK    3  A    between atoms: S_10  and  C_11 
REMARK    4  A    between atoms: C_13  and  S_10 
REMARK    5  A    between atoms: C_12  and  C_13 
ROOT
ATOM      1  N   UNL d   1      57.665  -0.178  30.825  0.00  0.00    -0.269 N 
ATOM      2  N   UNL d   1      56.760   0.027  32.186  0.00  0.00    -0.301 N 
ATOM      3  C   UNL d   1      58.122  -0.287  30.137  0.00  0.00     0.259 C 
ATOM      4  C   UNL d   1      57.318  -0.828  31.187  0.00  0.00     0.102 A 
ATOM      5  C   UNL d   1      57.560   0.577  31.142  0.00  0.00     0.102 A 
ATOM      6  C   UNL d   1      57.109   0.680  31.820  0.00  0.00     0.100 A 
ATOM      7  C   UNL d   1      56.865  -0.727  31.869  0.00  0.00     0.100 A 
ATOM      8  O   UNL d   1      58.478   0.357  29.760  0.00  0.00    -0.267 OA
ENDROOT
BRANCH   3   9
ATOM      9  C   UNL d   1      58.226  -1.054  29.818  0.00  0.00     0.125 C 
BRANCH   9  10
ATOM     10  S   UNL d   1      58.895  -1.221  29.388  0.00  0.00    -0.094 SA
BRANCH  10  11
ATOM     11  C   UNL d   1      58.889  -1.843  28.847  0.00  0.00     0.035 C 
BRANCH  11  12
ATOM     12  C   UNL d   1      59.569  -2.285  28.719  0.00  0.00     0.006 A 
ATOM     13  C   UNL d   1      59.527  -3.110  28.716  0.00  0.00     0.001 A 
ATOM     14  C   UNL d   1      60.209  -3.556  28.587  0.00  0.00     0.000 A 
ATOM     15  C   UNL d   1      60.931  -3.179  28.461  0.00  0.00     0.000 A 
ATOM     16  C   UNL d   1      60.973  -2.355  28.464  0.00  0.00     0.000 A 
ATOM     17  C   UNL d   1      60.290  -1.908  28.593  0.00  0.00     0.001 A 
ENDBRANCH  11  12
ENDBRANCH  10  11
ENDBRANCH   9  10
ENDBRANCH   3   9
BRANCH   2  18
ATOM     18  C   UNL d   1      56.312   0.132  32.860  0.00  0.00     0.064 A 
ATOM     19  C   UNL d   1      55.560  -0.200  32.916  0.00  0.00     0.018 A 
ATOM     20  C   UNL d   1      55.110  -0.092  33.600  0.00  0.00     0.002 A 
ATOM     21  C   UNL d   1      55.414   0.350  34.227  0.00  0.00     0.000 A 
ATOM     22  C   UNL d   1      56.166   0.682  34.171  0.00  0.00     0.002 A 
ATOM     23  C   UNL d   1      56.615   0.573  33.489  0.00  0.00     0.018 A 
ENDBRANCH   2  18
TORSDOF 5
ENDMDL
MODEL 2
REMARK VINA RESULT:      -1.7      1.964      6.023
REMARK  5 active torsions:
REMARK  status: ('A' for Active; 'I' for Inactive)
REMARK       I    between atoms: C_3  and  N_1 
REMARK    1  A    between atoms: C_8  and  N_2 
REMARK    2  A    between atoms: C_11  and  C_3 
REMARK    3  A    between atoms: S_10  and  C_11 
REMARK    4  A    between atoms: C_13  and  S_10 
REMARK    5  A    between atoms: C_12  and  C_13 
ROOT
ATOM      1  N   UNL d   1      57.644   0.348  32.035  0.00  0.00    -0.269 N 
ATOM      2  N   UNL d   1      58.457   0.159  30.616  0.00  0.00    -0.301 N 
ATOM      3  C   UNL d   1      57.227   0.442  32.751  0.00  0.00     0.259 C 
ATOM      4  C   UNL d   1      57.239   0.112  31.360  0.00  0.00     0.102 A 
ATOM      5  C   UNL d   1      58.456   0.490  32.002  0.00  0.00     0.102 A 
ATOM      6  C   UNL d   1      58.862   0.396  31.295  0.00  0.00     0.100 A 
ATOM      7  C   UNL d   1      57.645   0.017  30.649  0.00  0.00     0.100 A 
ATOM      8  O   UNL d   1      57.619   0.679  33.439  0.00  0.00    -0.267 OA
ENDROOT
BRANCH   3   9
ATOM      9  C   UNL d   1      56.402   0.296  32.780  0.00  0.00     0.125 C 
BRANCH   9  10
ATOM     10  S   UNL d   1      55.991   0.464  33.460  0.00  0.00    -0.094 SA
BRANCH  10  11
ATOM     11  C   UNL d   1      55.170   0.399  33.467  0.00  0.00     0.035 C 
BRANCH  11  12
ATOM     12  C   UNL d   1      54.754   0.492  34.170  0.00  0.00     0.006 A 
ATOM     13  C   UNL d   1      53.932   0.566  34.154  0.00  0.00     0.001 A 
ATOM     14  C   UNL d   1      53.513   0.659  34.858  0.00  0.00     0.000 A 
ATOM     15  C   UNL d   1      53.915   0.679  35.578  0.00  0.00     0.000 A 
ATOM     16  C   UNL d   1      54.736   0.605  35.594  0.00  0.00     0.000 A 
ATOM     17  C   UNL d   1      55.156   0.511  34.889  0.00  0.00     0.001 A 
ENDBRANCH  11  12
ENDBRANCH  10  11
ENDBRANCH   9  10
ENDBRANCH   3   9
BRANCH   2  18
ATOM     18  C   UNL d   1      58.864   0.067  29.914  0.00  0.00     0.064 A 
ATOM     19  C   UNL d   1      58.777  -0.623  29.471  0.00  0.00     0.018 A 
ATOM     20  C   UNL d   1      59.190  -0.712  28.761  0.00  0.00     0.002 A 
ATOM     21  C   UNL d   1      59.689  -0.111  28.497  0.00  0.00     0.000 A 
ATOM     22  C   UNL d   1      59.776   0.578  28.939  0.00  0.00     0.002 A 
ATOM     23  C   UNL d   1      59.364   0.667  29.648  0.00  0.00     0.018 A 
ENDBRANCH   2  18
TORSDOF 5
ENDMDL
