MODEL 1
REMARK VINA RESULT:      -7.4      0.000      0.000
REMARK  6 active torsions:
REMARK  status: ('A' for Active; 'I' for Inactive)
REMARK    1  A    between atoms: N_2  and  S_1 
REMARK    2  A    between atoms: C_7  and  S_1 
REMARK    3  A    between atoms: C_8  and  N_2 
REMARK    4  A    between atoms: N_3  and  C_9 
REMARK    5  A    between atoms: N_4  and  N_3 
REMARK    6  A    between atoms: C_10  and  N_4 
ROOT
ATOM      1  C   UNL d   1     -47.556  14.115  22.439  0.00  0.00     0.094 A 
ATOM      2  C   UNL d   1     -46.492  12.999  23.013  0.00  0.00     0.103 A 
ATOM      3  C   UNL d   1     -47.671  13.309  22.280  0.00  0.00     0.021 A 
ATOM      4  C   UNL d   1     -46.906  14.357  22.886  0.00  0.00     0.021 A 
ATOM      5  C   UNL d   1     -46.366  13.801  23.179  0.00  0.00     0.022 A 
ATOM      6  C   UNL d   1     -47.142  12.757  22.566  0.00  0.00     0.022 A 
ENDROOT
BRANCH   1   7
ATOM      7  N   UNL d   1     -48.088  14.675  22.152  0.00  0.00    -0.158 NA
BRANCH   7   8
ATOM      8  S   UNL d   1     -48.815  14.774  22.528  0.00  0.00     0.285 S 
ATOM      9  O   UNL d   1     -48.450  15.258  23.088  0.00  0.00    -0.198 OA
ATOM     10  O   UNL d   1     -49.181  14.291  21.968  0.00  0.00    -0.198 OA
BRANCH   8  11
ATOM     11  C   UNL d   1     -49.535  14.884  22.916  0.00  0.00     0.105 A 
ATOM     12  C   UNL d   1     -49.712  15.629  23.237  0.00  0.00     0.013 A 
ATOM     13  C   UNL d   1     -50.429  15.747  23.627  0.00  0.00     0.001 A 
ATOM     14  C   UNL d   1     -50.967  15.129  23.698  0.00  0.00     0.000 A 
ATOM     15  C   UNL d   1     -50.790  14.383  23.377  0.00  0.00     0.001 A 
ATOM     16  C   UNL d   1     -50.072  14.265  22.987  0.00  0.00     0.013 A 
ENDBRANCH   8  11
ENDBRANCH   7   8
ENDBRANCH   1   7
BRANCH   2  17
ATOM     17  N   UNL d   1     -45.961  12.435  23.300  0.00  0.00    -0.148 NA
BRANCH  17  18
ATOM     18  N   UNL d   1     -45.491  12.010  22.770  0.00  0.00    -0.148 NA
BRANCH  18  19
ATOM     19  C   UNL d   1     -45.011  11.398  23.050  0.00  0.00     0.103 A 
ATOM     20  C   UNL d   1     -45.340  10.746  23.421  0.00  0.00     0.021 A 
ATOM     21  C   UNL d   1     -44.869  10.142  23.698  0.00  0.00     0.002 A 
ATOM     22  C   UNL d   1     -44.050  10.186  23.604  0.00  0.00     0.000 A 
ATOM     23  C   UNL d   1     -43.704  10.834  23.233  0.00  0.00     0.002 A 
ATOM     24  C   UNL d   1     -44.193  11.442  22.955  0.00  0.00     0.021 A 
ENDBRANCH  18  19
ENDBRANCH  17  18
ENDBRANCH   2  17
TORSDOF 6
ENDMDL
MODEL 2
REMARK VINA RESULT:      -5.5      8.186      9.697
REMARK  6 active torsions:
REMARK  status: ('A' for Active; 'I' for Inactive)
REMARK    1  A    between atoms: N_2  and  S_1 
REMARK    2  A    between atoms: C_7  and  S_1 
REMARK    3  A    between atoms: C_8  and  N_2 
REMARK    4  A    between atoms: N_3  and  C_9 
REMARK    5  A    between atoms: N_4  and  N_3 
REMARK    6  A    between atoms: C_10  and  N_4 
ROOT
ATOM      1  C   UNL d   1     -40.337  15.015  19.912  0.00  0.00     0.094 A 
ATOM      2  C   UNL d   1     -39.840  14.701  18.375  0.00  0.00     0.103 A 
ATOM      3  C   UNL d   1     -40.406  14.250  19.599  0.00  0.00     0.021 A 
ATOM      4  C   UNL d   1     -40.019  15.620  19.450  0.00  0.00     0.021 A 
ATOM      5  C   UNL d   1     -39.766  15.469  18.675  0.00  0.00     0.022 A 
ATOM      6  C   UNL d   1     -40.159  14.096  18.837  0.00  0.00     0.022 A 
ENDROOT
BRANCH   1   7
ATOM      7  N   UNL d   1     -40.586  15.174  20.681  0.00  0.00    -0.158 NA
BRANCH   7   8
ATOM      8  S   UNL d   1     -40.047  15.112  21.303  0.00  0.00     0.285 S 
ATOM      9  O   UNL d   1     -39.796  15.883  21.150  0.00  0.00    -0.198 OA
ATOM     10  O   UNL d   1     -40.297  14.341  21.455  0.00  0.00    -0.198 OA
BRANCH   8  11
ATOM     11  C   UNL d   1     -39.502  15.067  21.921  0.00  0.00     0.105 A 
ATOM     12  C   UNL d   1     -39.297  14.322  22.225  0.00  0.00     0.013 A 
ATOM     13  C   UNL d   1     -38.753  14.268  22.843  0.00  0.00     0.001 A 
ATOM     14  C   UNL d   1     -38.416  14.950  23.157  0.00  0.00     0.000 A 
ATOM     15  C   UNL d   1     -38.622  15.695  22.852  0.00  0.00     0.001 A 
ATOM     16  C   UNL d   1     -39.166  15.749  22.234  0.00  0.00     0.013 A 
ENDBRANCH   8  11
ENDBRANCH   7   8
ENDBRANCH   1   7
BRANCH   2  17
ATOM     17  N   UNL d   1     -39.591  14.539  17.604  0.00  0.00    -0.148 NA
BRANCH  17  18
ATOM     18  N   UNL d   1     -38.816  14.713  17.380  0.00  0.00    -0.148 NA
BRANCH  18  19
ATOM     19  C   UNL d   1     -38.523  14.424  16.663  0.00  0.00     0.103 A 
ATOM     20  C   UNL d   1     -38.395  14.929  16.030  0.00  0.00     0.021 A 
ATOM     21  C   UNL d   1     -38.107  14.647  15.322  0.00  0.00     0.002 A 
ATOM     22  C   UNL d   1     -37.942  13.843  15.240  0.00  0.00     0.000 A 
ATOM     23  C   UNL d   1     -38.065  13.321  15.866  0.00  0.00     0.002 A 
ATOM     24  C   UNL d   1     -38.358  13.620  16.580  0.00  0.00     0.021 A 
ENDBRANCH  18  19
ENDBRANCH  17  18
ENDBRANCH   2  17
TORSDOF 6
ENDMDL
