MODEL 1
REMARK VINA RESULT:      10.4      0.000      0.000
REMARK  7 active torsions:
REMARK  status: ('A' for Active; 'I' for Inactive)
REMARK    1  A    between atoms: N_6  and  S_1 
REMARK    2  A    between atoms: C_9  and  S_1 
REMARK    3  A    between atoms: N_2  and  C_11 
REMARK    4  A    between atoms: C_14  and  C_3 
REMARK    5  A    between atoms: C_7  and  C_15 
REMARK       I    between atoms: N_10  and  C_7 
REMARK    6  A    between atoms: C_25  and  N_10 
REMARK    7  A    between atoms: O_33  and  C_26 
ROOT
ATOM      1  C   UNL d   1      32.409  17.632 -23.494  0.00  0.00     0.085 A 
ATOM      2  C   UNL d   1      32.134  18.400 -23.595  0.00  0.00     0.021 A 
ATOM      3  C   UNL d   1      32.780  17.407 -22.792  0.00  0.00     0.021 A 
ATOM      4  C   UNL d   1      32.599  18.737 -22.283  0.00  0.00     0.085 A 
ATOM      5  C   UNL d   1      32.228  18.959 -22.988  0.00  0.00     0.021 A 
ATOM      6  C   UNL d   1      32.879  17.951 -22.185  0.00  0.00     0.021 A 
ENDROOT
BRANCH   4   7
ATOM      7  N   UNL d   1      32.697  19.292 -21.670  0.00  0.00    -0.208 NA
ATOM      8  C   UNL d   1      32.070  19.779 -21.461  0.00  0.00     0.279 C 
ATOM      9  O   UNL d   1      31.349  19.724 -21.851  0.00  0.00    -0.265 OA
BRANCH   8  10
ATOM     10  C   UNL d   1      32.163  20.341 -20.844  0.00  0.00     0.058 A 
ATOM     11  C   UNL d   1      31.582  20.895 -20.719  0.00  0.00     0.005 A 
ATOM     12  C   UNL d   1      31.671  21.443 -20.118  0.00  0.00     0.013 A 
ATOM     13  C   UNL d   1      32.331  21.438 -19.647  0.00  0.00     0.104 A 
ATOM     14  C   UNL d   1      32.918  20.878 -19.772  0.00  0.00     0.013 A 
ATOM     15  C   UNL d   1      32.828  20.328 -20.377  0.00  0.00     0.005 A 
BRANCH  13  16
ATOM     16  S   UNL d   1      32.415  22.000 -19.036  0.00  0.00     0.271 S 
ATOM     17  O   UNL d   1      32.185  21.434 -18.491  0.00  0.00    -0.200 OA
ATOM     18  O   UNL d   1      32.643  22.556 -19.591  0.00  0.00    -0.200 OA
BRANCH  16  19
ATOM     19  N   UNL d   1      32.501  22.566 -18.442  0.00  0.00    -0.229 N 
ATOM     20  C   UNL d   1      33.134  23.086 -18.432  0.00  0.00     0.092 A 
ATOM     21  C   UNL d   1      33.210  23.654 -17.825  0.00  0.00     0.020 A 
ATOM     22  C   UNL d   1      32.648  23.695 -17.233  0.00  0.00     0.003 A 
ATOM     23  C   UNL d   1      32.004  23.175 -17.231  0.00  0.00     0.020 A 
ATOM     24  C   UNL d   1      31.930  22.608 -17.838  0.00  0.00     0.092 A 
ENDBRANCH  16  19
ENDBRANCH  13  16
ENDBRANCH   8  10
ENDBRANCH   4   7
BRANCH   1  25
ATOM     25  N   UNL d   1      32.316  17.073 -24.101  0.00  0.00    -0.211 N 
ATOM     26  C   UNL d   1      31.603  16.868 -24.480  0.00  0.00     0.105 A 
ATOM     27  C   UNL d   1      31.774  16.291 -25.045  0.00  0.00     0.143 A 
ATOM     28  N   UNL d   1      32.590  16.133 -25.024  0.00  0.00    -0.127 NA
ATOM     29  N   UNL d   1      32.925  16.617 -24.440  0.00  0.00    -0.060 NA
BRANCH  26  30
ATOM     30  C   UNL d   1      30.866  17.183 -24.318  0.00  0.00     0.019 A 
ATOM     31  C   UNL d   1      30.598  17.839 -24.742  0.00  0.00     0.004 A 
ATOM     32  C   UNL d   1      29.855  18.157 -24.579  0.00  0.00     0.024 A 
ATOM     33  C   UNL d   1      29.381  17.828 -24.001  0.00  0.00     0.094 A 
ATOM     34  C   UNL d   1      29.650  17.165 -23.573  0.00  0.00     0.024 A 
ATOM     35  C   UNL d   1      30.394  16.844 -23.733  0.00  0.00     0.004 A 
BRANCH  33  36
ATOM     36  O   UNL d   1      28.640  18.139 -23.833  0.00  0.00    -0.328 OA
ATOM     37  C   UNL d   1      28.224  17.903 -23.166  0.00  0.00     0.181 C 
ENDBRANCH  33  36
ENDBRANCH  26  30
ENDBRANCH   1  25
TORSDOF 7
ENDMDL
