MODEL 1
REMARK VINA RESULT:      -2.9      0.000      0.000
REMARK  4 active torsions:
REMARK  status: ('A' for Active; 'I' for Inactive)
REMARK    1  A    between atoms: C_2  and  S_1 
REMARK    2  A    between atoms: N_3  and  S_1 
REMARK    3  A    between atoms: O_13  and  C_7 
REMARK    4  A    between atoms: O_14  and  C_11 
ROOT
ATOM      1  S   UNL d   1      30.943  16.821 -24.072  0.00  0.00     0.273 S 
ATOM      2  O   UNL d   1      31.374  16.976 -23.382  0.00  0.00    -0.200 OA
ATOM      3  O   UNL d   1      31.285  16.967 -24.813  0.00  0.00    -0.200 OA
ENDROOT
BRANCH   1   4
ATOM      4  C   UNL d   1      31.706  17.118 -24.119  0.00  0.00     0.128 A 
ATOM      5  C   UNL d   1      31.897  17.853 -23.797  0.00  0.00     0.039 A 
ATOM      6  C   UNL d   1      32.664  18.150 -23.845  0.00  0.00     0.095 A 
ATOM      7  C   UNL d   1      33.241  17.703 -24.219  0.00  0.00     0.026 A 
ATOM      8  C   UNL d   1      33.063  16.974 -24.542  0.00  0.00     0.027 A 
ATOM      9  C   UNL d   1      32.296  16.678 -24.493  0.00  0.00     0.106 A 
BRANCH   6  10
ATOM     10  O   UNL d   1      32.843  18.885 -23.520  0.00  0.00    -0.328 OA
ATOM     11  C   UNL d   1      33.236  19.452 -23.971  0.00  0.00     0.181 C 
ENDBRANCH   6  10
BRANCH   9  12
ATOM     12  O   UNL d   1      32.114  15.945 -24.816  0.00  0.00    -0.327 OA
ATOM     13  C   UNL d   1      32.721  15.460 -25.097  0.00  0.00     0.181 C 
ENDBRANCH   9  12
ENDBRANCH   1   4
BRANCH   1  14
ATOM     14  N   UNL d   1      30.172  16.521 -24.016  0.00  0.00    -0.232 N 
ATOM     15  C   UNL d   1      29.557  16.908 -24.411  0.00  0.00     0.075 A 
ATOM     16  C   UNL d   1      28.786  16.608 -24.355  0.00  0.00     0.018 A 
ATOM     17  C   UNL d   1      29.704  17.586 -24.858  0.00  0.00     0.020 C 
ATOM     18  C   UNL d   1      28.640  15.931 -23.908  0.00  0.00     0.003 A 
ATOM     19  C   UNL d   1      29.263  15.546 -23.513  0.00  0.00     0.018 A 
ATOM     20  C   UNL d   1      30.033  15.843 -23.567  0.00  0.00     0.075 A 
ATOM     21  C   UNL d   1      30.651  15.465 -23.179  0.00  0.00     0.020 C 
ENDBRANCH   1  14
TORSDOF 4
ENDMDL
MODEL 2
REMARK VINA RESULT:      -2.3      1.241      3.418
REMARK  4 active torsions:
REMARK  status: ('A' for Active; 'I' for Inactive)
REMARK    1  A    between atoms: C_2  and  S_1 
REMARK    2  A    between atoms: N_3  and  S_1 
REMARK    3  A    between atoms: O_13  and  C_7 
REMARK    4  A    between atoms: O_14  and  C_11 
ROOT
ATOM      1  S   UNL d   1      32.021  17.535 -23.977  0.00  0.00     0.273 S 
ATOM      2  O   UNL d   1      32.446  16.854 -24.179  0.00  0.00    -0.200 OA
ATOM      3  O   UNL d   1      31.193  17.519 -23.970  0.00  0.00    -0.200 OA
ENDROOT
BRANCH   1   4
ATOM      4  C   UNL d   1      31.626  16.845 -24.170  0.00  0.00     0.128 A 
ATOM      5  C   UNL d   1      30.829  16.744 -23.981  0.00  0.00     0.039 A 
ATOM      6  C   UNL d   1      30.432  16.049 -24.176  0.00  0.00     0.095 A 
ATOM      7  C   UNL d   1      30.841  15.453 -24.564  0.00  0.00     0.026 A 
ATOM      8  C   UNL d   1      31.630  15.542 -24.757  0.00  0.00     0.027 A 
ATOM      9  C   UNL d   1      32.026  16.237 -24.561  0.00  0.00     0.106 A 
BRANCH   6  10
ATOM     10  O   UNL d   1      29.636  15.959 -23.982  0.00  0.00    -0.328 OA
ATOM     11  C   UNL d   1      29.151  15.477 -24.441  0.00  0.00     0.181 C 
ENDBRANCH   6  10
BRANCH   9  12
ATOM     12  O   UNL d   1      32.818  16.330 -24.753  0.00  0.00    -0.327 OA
ATOM     13  C   UNL d   1      33.233  15.701 -25.095  0.00  0.00     0.181 C 
ENDBRANCH   9  12
ENDBRANCH   1   4
BRANCH   1  14
ATOM     14  N   UNL d   1      32.430  18.231 -23.782  0.00  0.00    -0.232 N 
ATOM     15  C   UNL d   1      32.753  18.313 -23.025  0.00  0.00     0.075 A 
ATOM     16  C   UNL d   1      33.162  19.008 -22.831  0.00  0.00     0.018 A 
ATOM     17  C   UNL d   1      32.673  17.711 -22.466  0.00  0.00     0.020 C 
ATOM     18  C   UNL d   1      33.241  19.608 -23.391  0.00  0.00     0.003 A 
ATOM     19  C   UNL d   1      32.913  19.520 -24.151  0.00  0.00     0.018 A 
ATOM     20  C   UNL d   1      32.505  18.828 -24.348  0.00  0.00     0.075 A 
ATOM     21  C   UNL d   1      32.181  18.738 -25.096  0.00  0.00     0.020 C 
ENDBRANCH   1  14
TORSDOF 4
ENDMDL
MODEL 3
REMARK VINA RESULT:      -2.0      1.520      2.567
REMARK  4 active torsions:
REMARK  status: ('A' for Active; 'I' for Inactive)
REMARK    1  A    between atoms: C_2  and  S_1 
REMARK    2  A    between atoms: N_3  and  S_1 
REMARK    3  A    between atoms: O_13  and  C_7 
REMARK    4  A    between atoms: O_14  and  C_11 
ROOT
ATOM      1  S   UNL d   1      32.278  17.647 -23.504  0.00  0.00     0.273 S 
ATOM      2  O   UNL d   1      32.872  17.658 -22.927  0.00  0.00    -0.200 OA
ATOM      3  O   UNL d   1      31.984  18.360 -23.806  0.00  0.00    -0.200 OA
ENDROOT
BRANCH   1   4
ATOM      4  C   UNL d   1      32.576  18.360 -23.230  0.00  0.00     0.128 A 
ATOM      5  C   UNL d   1      32.586  18.535 -22.424  0.00  0.00     0.039 A 
ATOM      6  C   UNL d   1      32.885  19.252 -22.151  0.00  0.00     0.095 A 
ATOM      7  C   UNL d   1      33.175  19.795 -22.693  0.00  0.00     0.026 A 
ATOM      8  C   UNL d   1      33.170  19.632 -23.493  0.00  0.00     0.027 A 
ATOM      9  C   UNL d   1      32.871  18.915 -23.766  0.00  0.00     0.106 A 
BRANCH   6  10
ATOM     10  O   UNL d   1      32.891  19.416 -21.343  0.00  0.00    -0.328 OA
ATOM     11  C   UNL d   1      33.240  20.109 -21.065  0.00  0.00     0.181 C 
ENDBRANCH   6  10
BRANCH   9  12
ATOM     12  O   UNL d   1      32.864  18.748 -24.569  0.00  0.00    -0.327 OA
ATOM     13  C   UNL d   1      33.241  19.261 -25.097  0.00  0.00     0.181 C 
ENDBRANCH   9  12
ENDBRANCH   1   4
BRANCH   1  14
ATOM     14  N   UNL d   1      31.983  16.921 -23.776  0.00  0.00    -0.232 N 
ATOM     15  C   UNL d   1      32.469  16.252 -23.755  0.00  0.00     0.075 A 
ATOM     16  C   UNL d   1      32.173  15.527 -24.026  0.00  0.00     0.018 A 
ATOM     17  C   UNL d   1      33.241  16.301 -23.468  0.00  0.00     0.020 C 
ATOM     18  C   UNL d   1      31.402  15.479 -24.313  0.00  0.00     0.003 A 
ATOM     19  C   UNL d   1      30.917  16.155 -24.331  0.00  0.00     0.018 A 
ATOM     20  C   UNL d   1      31.209  16.880 -24.061  0.00  0.00     0.075 A 
ATOM     21  C   UNL d   1      30.734  17.550 -24.078  0.00  0.00     0.020 C 
ENDBRANCH   1  14
TORSDOF 4
ENDMDL
MODEL 4
REMARK VINA RESULT:      -1.5      1.504      2.595
REMARK  4 active torsions:
REMARK  status: ('A' for Active; 'I' for Inactive)
REMARK    1  A    between atoms: C_2  and  S_1 
REMARK    2  A    between atoms: N_3  and  S_1 
REMARK    3  A    between atoms: O_13  and  C_7 
REMARK    4  A    between atoms: O_14  and  C_11 
ROOT
ATOM      1  S   UNL d   1      32.245  17.965 -24.359  0.00  0.00     0.273 S 
ATOM      2  O   UNL d   1      32.424  18.505 -24.959  0.00  0.00    -0.200 OA
ATOM      3  O   UNL d   1      32.399  18.159 -23.568  0.00  0.00    -0.200 OA
ENDROOT
BRANCH   1   4
ATOM      4  C   UNL d   1      32.575  18.691 -24.175  0.00  0.00     0.128 A 
ATOM      5  C   UNL d   1      32.584  19.306 -24.726  0.00  0.00     0.039 A 
ATOM      6  C   UNL d   1      32.917  20.036 -24.539  0.00  0.00     0.095 A 
ATOM      7  C   UNL d   1      33.241  20.148 -23.794  0.00  0.00     0.026 A 
ATOM      8  C   UNL d   1      33.237  19.546 -23.241  0.00  0.00     0.027 A 
ATOM      9  C   UNL d   1      32.905  18.816 -23.428  0.00  0.00     0.106 A 
BRANCH   6  10
ATOM     10  O   UNL d   1      32.921  20.643 -25.097  0.00  0.00    -0.328 OA
ATOM     11  C   UNL d   1      32.730  21.412 -24.871  0.00  0.00     0.181 C 
ENDBRANCH   6  10
BRANCH   9  12
ATOM     12  O   UNL d   1      32.899  18.210 -22.875  0.00  0.00    -0.327 OA
ATOM     13  C   UNL d   1      33.240  18.331 -22.132  0.00  0.00     0.181 C 
ENDBRANCH   9  12
ENDBRANCH   1   4
BRANCH   1  14
ATOM     14  N   UNL d   1      31.910  17.230 -24.554  0.00  0.00    -0.232 N 
ATOM     15  C   UNL d   1      32.405  16.608 -24.782  0.00  0.00     0.075 A 
ATOM     16  C   UNL d   1      32.070  15.875 -24.977  0.00  0.00     0.018 A 
ATOM     17  C   UNL d   1      33.223  16.711 -24.817  0.00  0.00     0.020 C 
ATOM     18  C   UNL d   1      31.253  15.773 -24.941  0.00  0.00     0.003 A 
ATOM     19  C   UNL d   1      30.761  16.403 -24.711  0.00  0.00     0.018 A 
ATOM     20  C   UNL d   1      31.091  17.136 -24.516  0.00  0.00     0.075 A 
ATOM     21  C   UNL d   1      30.609  17.760 -24.289  0.00  0.00     0.020 C 
ENDBRANCH   1  14
TORSDOF 4
ENDMDL
MODEL 5
REMARK VINA RESULT:      -0.9      4.832      6.621
REMARK  4 active torsions:
REMARK  status: ('A' for Active; 'I' for Inactive)
REMARK    1  A    between atoms: C_2  and  S_1 
REMARK    2  A    between atoms: N_3  and  S_1 
REMARK    3  A    between atoms: O_13  and  C_7 
REMARK    4  A    between atoms: O_14  and  C_11 
ROOT
ATOM      1  S   UNL d   1      32.617  21.811 -21.219  0.00  0.00     0.273 S 
ATOM      2  O   UNL d   1      33.203  22.054 -20.687  0.00  0.00    -0.200 OA
ATOM      3  O   UNL d   1      31.878  22.188 -21.219  0.00  0.00    -0.200 OA
ENDROOT
BRANCH   1   4
ATOM      4  C   UNL d   1      32.471  22.422 -20.693  0.00  0.00     0.128 A 
ATOM      5  C   UNL d   1      32.785  22.411 -19.930  0.00  0.00     0.039 A 
ATOM      6  C   UNL d   1      32.637  23.027 -19.403  0.00  0.00     0.095 A 
ATOM      7  C   UNL d   1      32.170  23.656 -19.646  0.00  0.00     0.026 A 
ATOM      8  C   UNL d   1      31.853  23.677 -20.399  0.00  0.00     0.027 A 
ATOM      9  C   UNL d   1      32.002  23.061 -20.925  0.00  0.00     0.106 A 
BRANCH   6  10
ATOM     10  O   UNL d   1      32.956  23.005 -18.643  0.00  0.00    -0.328 OA
ATOM     11  C   UNL d   1      33.023  23.699 -18.204  0.00  0.00     0.181 C 
ENDBRANCH   6  10
BRANCH   9  12
ATOM     12  O   UNL d   1      31.686  23.079 -21.683  0.00  0.00    -0.327 OA
ATOM     13  C   UNL d   1      31.158  23.680 -21.891  0.00  0.00     0.181 C 
ENDBRANCH   9  12
ENDBRANCH   1   4
BRANCH   1  14
ATOM     14  N   UNL d   1      32.773  21.191 -21.748  0.00  0.00    -0.232 N 
ATOM     15  C   UNL d   1      33.085  21.365 -22.494  0.00  0.00     0.075 A 
ATOM     16  C   UNL d   1      33.241  20.745 -23.022  0.00  0.00     0.018 A 
ATOM     17  C   UNL d   1      33.241  22.144 -22.715  0.00  0.00     0.020 C 
ATOM     18  C   UNL d   1      33.085  19.967 -22.801  0.00  0.00     0.003 A 
ATOM     19  C   UNL d   1      32.771  19.798 -22.049  0.00  0.00     0.018 A 
ATOM     20  C   UNL d   1      32.614  20.414 -21.519  0.00  0.00     0.075 A 
ATOM     21  C   UNL d   1      32.305  20.252 -20.776  0.00  0.00     0.020 C 
ENDBRANCH   1  14
TORSDOF 4
ENDMDL
