MODEL 1
REMARK VINA RESULT:      -5.4      0.000      0.000
REMARK  1 active torsions:
REMARK  status: ('A' for Active; 'I' for Inactive)
REMARK    1  A    between atoms: C_6  and  C_3 
ROOT
ATOM      1  N   UNL d   1      57.234  -0.108  30.906  0.00  0.00    -0.228 NA
ATOM      2  C   UNL d   1      57.901   0.278  30.614  0.00  0.00     0.166 A 
ATOM      3  C   UNL d   1      57.180   0.062  31.711  0.00  0.00     0.089 A 
ATOM      4  S   UNL d   1      58.254   0.681  31.229  0.00  0.00    -0.055 SA
ATOM      5  C   UNL d   1      57.814   0.554  31.918  0.00  0.00     0.057 A 
ATOM      6  S   UNL d   1      58.162   0.257  29.829  0.00  0.00    -0.050 SA
ENDROOT
BRANCH   3   7
ATOM      7  C   UNL d   1      56.592  -0.212  32.227  0.00  0.00     0.018 A 
ATOM      8  C   UNL d   1      56.499  -1.018  32.347  0.00  0.00     0.002 A 
ATOM      9  C   UNL d   1      55.918  -1.296  32.858  0.00  0.00     0.000 A 
ATOM     10  C   UNL d   1      55.423  -0.755  33.255  0.00  0.00     0.000 A 
ATOM     11  C   UNL d   1      55.523   0.049  33.130  0.00  0.00     0.000 A 
ATOM     12  C   UNL d   1      56.107   0.325  32.616  0.00  0.00     0.002 A 
ENDBRANCH   3   7
TORSDOF 1
ENDMDL
MODEL 2
REMARK VINA RESULT:      -4.7      2.337      3.127
REMARK  1 active torsions:
REMARK  status: ('A' for Active; 'I' for Inactive)
REMARK    1  A    between atoms: C_6  and  C_3 
ROOT
ATOM      1  N   UNL d   1      55.018   0.215  33.519  0.00  0.00    -0.228 NA
ATOM      2  C   UNL d   1      54.866   0.536  34.264  0.00  0.00     0.166 A 
ATOM      3  C   UNL d   1      55.837   0.166  33.432  0.00  0.00     0.089 A 
ATOM      4  S   UNL d   1      55.579   0.682  34.632  0.00  0.00    -0.055 SA
ATOM      5  C   UNL d   1      56.192   0.455  34.123  0.00  0.00     0.057 A 
ATOM      6  S   UNL d   1      54.115   0.682  34.579  0.00  0.00    -0.050 SA
ENDROOT
BRANCH   3   7
ATOM      7  C   UNL d   1      56.238  -0.125  32.768  0.00  0.00     0.018 A 
ATOM      8  C   UNL d   1      56.238  -0.930  32.612  0.00  0.00     0.002 A 
ATOM      9  C   UNL d   1      56.635  -1.224  31.955  0.00  0.00     0.000 A 
ATOM     10  C   UNL d   1      57.037  -0.700  31.446  0.00  0.00     0.000 A 
ATOM     11  C   UNL d   1      57.032   0.103  31.610  0.00  0.00     0.000 A 
ATOM     12  C   UNL d   1      56.634   0.395  32.270  0.00  0.00     0.002 A 
ENDBRANCH   3   7
TORSDOF 1
ENDMDL
MODEL 3
REMARK VINA RESULT:      -3.6      9.169      9.932
REMARK  1 active torsions:
REMARK  status: ('A' for Active; 'I' for Inactive)
REMARK    1  A    between atoms: C_6  and  C_3 
ROOT
ATOM      1  N   UNL d   1      59.756  -7.899  35.072  0.00  0.00    -0.228 NA
ATOM      2  C   UNL d   1      59.591  -7.801  35.874  0.00  0.00     0.166 A 
ATOM      3  C   UNL d   1      59.772  -8.710  34.919  0.00  0.00     0.089 A 
ATOM      4  S   UNL d   1      59.506  -8.539  36.212  0.00  0.00    -0.055 SA
ATOM      5  C   UNL d   1      59.616  -9.113  35.626  0.00  0.00     0.057 A 
ATOM      6  S   UNL d   1      59.524  -7.075  36.264  0.00  0.00    -0.050 SA
ENDROOT
BRANCH   3   7
ATOM      7  C   UNL d   1      59.918  -9.063  34.184  0.00  0.00     0.018 A 
ATOM      8  C   UNL d   1      59.291  -9.342  33.734  0.00  0.00     0.002 A 
ATOM      9  C   UNL d   1      59.430  -9.693  33.004  0.00  0.00     0.000 A 
ATOM     10  C   UNL d   1      60.210  -9.765  32.721  0.00  0.00     0.000 A 
ATOM     11  C   UNL d   1      60.831  -9.483  33.177  0.00  0.00     0.000 A 
ATOM     12  C   UNL d   1      60.689  -9.131  33.909  0.00  0.00     0.002 A 
ENDBRANCH   3   7
TORSDOF 1
ENDMDL
MODEL 4
REMARK VINA RESULT:      -3.2      8.715      9.425
REMARK  1 active torsions:
REMARK  status: ('A' for Active; 'I' for Inactive)
REMARK    1  A    between atoms: C_6  and  C_3 
ROOT
ATOM      1  N   UNL d   1      60.810  -6.984  35.862  0.00  0.00    -0.228 NA
ATOM      2  C   UNL d   1      60.608  -6.241  36.157  0.00  0.00     0.166 A 
ATOM      3  C   UNL d   1      60.126  -7.445  35.855  0.00  0.00     0.089 A 
ATOM      4  S   UNL d   1      59.810  -6.242  36.330  0.00  0.00    -0.055 SA
ATOM      5  C   UNL d   1      59.499  -6.987  36.146  0.00  0.00     0.057 A 
ATOM      6  S   UNL d   1      61.129  -5.607  36.258  0.00  0.00    -0.050 SA
ENDROOT
BRANCH   3   7
ATOM      7  C   UNL d   1      60.072  -8.231  35.601  0.00  0.00     0.018 A 
ATOM      8  C   UNL d   1      60.261  -8.840  36.118  0.00  0.00     0.002 A 
ATOM      9  C   UNL d   1      60.209  -9.623  35.872  0.00  0.00     0.000 A 
ATOM     10  C   UNL d   1      59.963  -9.797  35.095  0.00  0.00     0.000 A 
ATOM     11  C   UNL d   1      59.776  -9.183  34.585  0.00  0.00     0.000 A 
ATOM     12  C   UNL d   1      59.828  -8.398  34.835  0.00  0.00     0.002 A 
ENDBRANCH   3   7
TORSDOF 1
ENDMDL
MODEL 5
REMARK VINA RESULT:      -2.9      1.309      1.943
REMARK  1 active torsions:
REMARK  status: ('A' for Active; 'I' for Inactive)
REMARK    1  A    between atoms: C_6  and  C_3 
ROOT
ATOM      1  N   UNL d   1      59.035  -0.130  30.243  0.00  0.00    -0.228 NA
ATOM      2  C   UNL d   1      59.256   0.024  29.464  0.00  0.00     0.166 A 
ATOM      3  C   UNL d   1      58.276   0.175  30.352  0.00  0.00     0.089 A 
ATOM      4  S   UNL d   1      58.642   0.417  29.096  0.00  0.00    -0.055 SA
ATOM      5  C   UNL d   1      58.026   0.517  29.640  0.00  0.00     0.057 A 
ATOM      6  S   UNL d   1      59.977  -0.188  29.119  0.00  0.00    -0.050 SA
ENDROOT
BRANCH   3   7
ATOM      7  C   UNL d   1      57.836   0.145  31.054  0.00  0.00     0.018 A 
ATOM      8  C   UNL d   1      57.250  -0.422  31.143  0.00  0.00     0.002 A 
ATOM      9  C   UNL d   1      56.810  -0.457  31.836  0.00  0.00     0.000 A 
ATOM     10  C   UNL d   1      56.962   0.086  32.450  0.00  0.00     0.000 A 
ATOM     11  C   UNL d   1      57.549   0.649  32.353  0.00  0.00     0.000 A 
ATOM     12  C   UNL d   1      57.989   0.682  31.656  0.00  0.00     0.002 A 
ENDBRANCH   3   7
TORSDOF 1
ENDMDL
MODEL 6
REMARK VINA RESULT:      -2.4      1.783      3.697
REMARK  1 active torsions:
REMARK  status: ('A' for Active; 'I' for Inactive)
REMARK    1  A    between atoms: C_6  and  C_3 
ROOT
ATOM      1  N   UNL d   1      57.723  -0.607  30.769  0.00  0.00    -0.228 NA
ATOM      2  C   UNL d   1      57.257  -0.143  31.266  0.00  0.00     0.166 A 
ATOM      3  C   UNL d   1      58.140  -0.097  30.272  0.00  0.00     0.089 A 
ATOM      4  S   UNL d   1      57.383   0.641  31.080  0.00  0.00    -0.055 SA
ATOM      5  C   UNL d   1      57.932   0.682  30.462  0.00  0.00     0.057 A 
ATOM      6  S   UNL d   1      56.749  -0.430  31.853  0.00  0.00    -0.050 SA
ENDROOT
BRANCH   3   7
ATOM      7  C   UNL d   1      58.677  -0.324  29.683  0.00  0.00     0.018 A 
ATOM      8  C   UNL d   1      58.505  -0.966  29.201  0.00  0.00     0.002 A 
ATOM      9  C   UNL d   1      59.033  -1.195  28.615  0.00  0.00     0.000 A 
ATOM     10  C   UNL d   1      59.745  -0.774  28.510  0.00  0.00     0.000 A 
ATOM     11  C   UNL d   1      59.908  -0.134  28.996  0.00  0.00     0.000 A 
ATOM     12  C   UNL d   1      59.376   0.094  29.584  0.00  0.00     0.002 A 
ENDBRANCH   3   7
TORSDOF 1
ENDMDL
MODEL 7
REMARK VINA RESULT:      -2.4      3.302      4.228
REMARK  1 active torsions:
REMARK  status: ('A' for Active; 'I' for Inactive)
REMARK    1  A    between atoms: C_6  and  C_3 
ROOT
ATOM      1  N   UNL d   1      58.640  -2.298  28.769  0.00  0.00    -0.228 NA
ATOM      2  C   UNL d   1      59.166  -2.929  28.701  0.00  0.00     0.166 A 
ATOM      3  C   UNL d   1      59.076  -1.633  28.988  0.00  0.00     0.089 A 
ATOM      4  S   UNL d   1      59.916  -2.658  28.875  0.00  0.00    -0.055 SA
ATOM      5  C   UNL d   1      59.872  -1.852  29.056  0.00  0.00     0.057 A 
ATOM      6  S   UNL d   1      58.963  -3.703  28.491  0.00  0.00    -0.050 SA
ENDROOT
BRANCH   3   7
ATOM      7  C   UNL d   1      58.771  -0.873  29.120  0.00  0.00     0.018 A 
ATOM      8  C   UNL d   1      58.471  -0.677  29.858  0.00  0.00     0.002 A 
ATOM      9  C   UNL d   1      58.168   0.075  29.994  0.00  0.00     0.000 A 
ATOM     10  C   UNL d   1      58.165   0.638  29.379  0.00  0.00     0.000 A 
ATOM     11  C   UNL d   1      58.466   0.433  28.645  0.00  0.00     0.000 A 
ATOM     12  C   UNL d   1      58.770  -0.322  28.510  0.00  0.00     0.002 A 
ENDBRANCH   3   7
TORSDOF 1
ENDMDL
