MODEL 1
REMARK VINA RESULT:      -3.1      0.000      0.000
REMARK  4 active torsions:
REMARK  status: ('A' for Active; 'I' for Inactive)
REMARK    1  A    between atoms: C_4  and  C_10 
REMARK    2  A    between atoms: C_18  and  C_7 
REMARK       I    between atoms: C_10  and  N_17 
REMARK    3  A    between atoms: N_17  and  C_20 
REMARK    4  A    between atoms: C_20  and  C_18 
ROOT
ATOM      1  C   UNL d   1      33.211  19.941 -21.730  0.00  0.00     0.042 C 
ENDROOT
BRANCH   1   2
ATOM      2  C   UNL d   1      33.071  19.543 -22.445  0.00  0.00     0.102 A 
ATOM      3  N   UNL d   1      33.163  19.860 -23.194  0.00  0.00    -0.227 NA
ATOM      4  C   UNL d   1      32.969  19.289 -23.745  0.00  0.00     0.148 A 
ATOM      5  N   UNL d   1      32.751  18.603 -23.339  0.00  0.00    -0.288 N 
ATOM      6  C   UNL d   1      32.956  19.287 -24.570  0.00  0.00     0.035 A 
ATOM      7  C   UNL d   1      32.815  18.765 -22.528  0.00  0.00     0.101 A 
ATOM      8  C   UNL d   1      32.524  17.927 -23.748  0.00  0.00     0.082 A 
ATOM      9  C   UNL d   1      32.514  17.932 -24.567  0.00  0.00     0.019 A 
ATOM     10  C   UNL d   1      32.731  18.617 -24.986  0.00  0.00     0.004 A 
ATOM     11  C   UNL d   1      33.175  19.975 -24.992  0.00  0.00     0.003 C 
ENDBRANCH   1   2
BRANCH   1  12
ATOM     12  C   UNL d   1      32.856  20.676 -21.589  0.00  0.00     0.104 C 
BRANCH  12  13
ATOM     13  N   UNL d   1      32.720  20.926 -20.820  0.00  0.00    -0.205 NA
ATOM     14  C   UNL d   1      32.600  21.729 -20.659  0.00  0.00     0.302 C 
ATOM     15  O   UNL d   1      32.466  21.970 -19.894  0.00  0.00    -0.263 OA
BRANCH  14  16
ATOM     16  C   UNL d   1      32.618  22.275 -21.279  0.00  0.00     0.158 A 
ATOM     17  O   UNL d   1      33.164  22.422 -21.873  0.00  0.00    -0.296 OA
ATOM     18  C   UNL d   1      32.883  23.043 -22.339  0.00  0.00     0.134 A 
ATOM     19 BR   UNL d   1      33.241  23.385 -23.001  0.00  0.00    -0.022 Br
ATOM     20  C   UNL d   1      32.167  23.267 -22.019  0.00  0.00     0.034 A 
ATOM     21  C   UNL d   1      31.993  22.805 -21.369  0.00  0.00     0.032 A 
ENDBRANCH  14  16
ENDBRANCH  12  13
ENDBRANCH   1  12
TORSDOF 4
ENDMDL
MODEL 2
REMARK VINA RESULT:      -2.8      2.960      4.871
REMARK  4 active torsions:
REMARK  status: ('A' for Active; 'I' for Inactive)
REMARK    1  A    between atoms: C_4  and  C_10 
REMARK    2  A    between atoms: C_18  and  C_7 
REMARK       I    between atoms: C_10  and  N_17 
REMARK    3  A    between atoms: N_17  and  C_20 
REMARK    4  A    between atoms: C_20  and  C_18 
ROOT
ATOM      1  C   UNL d   1      33.115  17.976 -23.793  0.00  0.00     0.042 C 
ENDROOT
BRANCH   1   2
ATOM      2  C   UNL d   1      33.140  18.606 -23.252  0.00  0.00     0.102 A 
ATOM      3  N   UNL d   1      33.124  19.402 -23.445  0.00  0.00    -0.227 NA
ATOM      4  C   UNL d   1      33.159  19.838 -22.756  0.00  0.00     0.148 A 
ATOM      5  N   UNL d   1      33.197  19.312 -22.120  0.00  0.00    -0.288 N 
ATOM      6  C   UNL d   1      33.162  20.650 -22.606  0.00  0.00     0.035 A 
ATOM      7  C   UNL d   1      33.185  18.544 -22.432  0.00  0.00     0.101 A 
ATOM      8  C   UNL d   1      33.237  19.591 -21.347  0.00  0.00     0.082 A 
ATOM      9  C   UNL d   1      33.240  20.397 -21.205  0.00  0.00     0.019 A 
ATOM     10  C   UNL d   1      33.202  20.936 -21.838  0.00  0.00     0.004 A 
ATOM     11  C   UNL d   1      33.124  21.192 -23.242  0.00  0.00     0.003 C 
ENDBRANCH   1   2
BRANCH   1  12
ATOM     12  C   UNL d   1      32.469  17.457 -23.794  0.00  0.00     0.104 C 
BRANCH  12  13
ATOM     13  N   UNL d   1      32.574  16.671 -24.002  0.00  0.00    -0.205 NA
ATOM     14  C   UNL d   1      31.941  16.234 -24.307  0.00  0.00     0.302 C 
ATOM     15  O   UNL d   1      32.052  15.455 -24.512  0.00  0.00    -0.263 OA
BRANCH  14  16
ATOM     16  C   UNL d   1      31.204  16.596 -24.401  0.00  0.00     0.158 A 
ATOM     17  O   UNL d   1      30.960  17.255 -24.824  0.00  0.00    -0.296 OA
ATOM     18  C   UNL d   1      30.148  17.354 -24.709  0.00  0.00     0.134 A 
ATOM     19 BR   UNL d   1      29.657  17.940 -25.023  0.00  0.00    -0.022 Br
ATOM     20  C   UNL d   1      29.909  16.750 -24.215  0.00  0.00     0.034 A 
ATOM     21  C   UNL d   1      30.547  16.278 -24.019  0.00  0.00     0.032 A 
ENDBRANCH  14  16
ENDBRANCH  12  13
ENDBRANCH   1  12
TORSDOF 4
ENDMDL
MODEL 3
REMARK VINA RESULT:      -2.7      2.379      4.472
REMARK  4 active torsions:
REMARK  status: ('A' for Active; 'I' for Inactive)
REMARK    1  A    between atoms: C_4  and  C_10 
REMARK    2  A    between atoms: C_18  and  C_7 
REMARK       I    between atoms: C_10  and  N_17 
REMARK    3  A    between atoms: N_17  and  C_20 
REMARK    4  A    between atoms: C_20  and  C_18 
ROOT
ATOM      1  C   UNL d   1      33.052  19.097 -22.096  0.00  0.00     0.042 C 
ENDROOT
BRANCH   1   2
ATOM      2  C   UNL d   1      32.988  19.924 -22.112  0.00  0.00     0.102 A 
ATOM      3  N   UNL d   1      32.660  20.389 -21.523  0.00  0.00    -0.227 NA
ATOM      4  C   UNL d   1      32.705  21.172 -21.753  0.00  0.00     0.148 A 
ATOM      5  N   UNL d   1      33.065  21.202 -22.495  0.00  0.00    -0.288 N 
ATOM      6  C   UNL d   1      32.468  21.876 -21.392  0.00  0.00     0.035 A 
ATOM      7  C   UNL d   1      33.241  20.422 -22.717  0.00  0.00     0.101 A 
ATOM      8  C   UNL d   1      33.188  21.922 -22.874  0.00  0.00     0.082 A 
ATOM      9  C   UNL d   1      32.950  22.617 -22.511  0.00  0.00     0.019 A 
ATOM     10  C   UNL d   1      32.587  22.598 -21.763  0.00  0.00     0.004 A 
ATOM     11  C   UNL d   1      32.102  21.858 -20.641  0.00  0.00     0.003 C 
ENDBRANCH   1   2
BRANCH   1  12
ATOM     12  C   UNL d   1      32.896  18.656 -22.780  0.00  0.00     0.104 C 
BRANCH  12  13
ATOM     13  N   UNL d   1      33.204  17.901 -22.862  0.00  0.00    -0.205 NA
ATOM     14  C   UNL d   1      32.930  17.404 -23.464  0.00  0.00     0.302 C 
ATOM     15  O   UNL d   1      33.240  16.656 -23.541  0.00  0.00    -0.263 OA
BRANCH  14  16
ATOM     16  C   UNL d   1      32.344  17.674 -23.981  0.00  0.00     0.158 A 
ATOM     17  O   UNL d   1      31.525  17.669 -23.941  0.00  0.00    -0.296 OA
ATOM     18  C   UNL d   1      31.227  18.019 -24.628  0.00  0.00     0.134 A 
ATOM     19 BR   UNL d   1      30.437  18.139 -24.837  0.00  0.00    -0.022 Br
ATOM     20  C   UNL d   1      31.874  18.233 -25.077  0.00  0.00     0.034 A 
ATOM     21  C   UNL d   1      32.564  18.028 -24.692  0.00  0.00     0.032 A 
ENDBRANCH  14  16
ENDBRANCH  12  13
ENDBRANCH   1  12
TORSDOF 4
ENDMDL
MODEL 4
REMARK VINA RESULT:      -1.5      4.187      5.755
REMARK  4 active torsions:
REMARK  status: ('A' for Active; 'I' for Inactive)
REMARK    1  A    between atoms: C_4  and  C_10 
REMARK    2  A    between atoms: C_18  and  C_7 
REMARK       I    between atoms: C_10  and  N_17 
REMARK    3  A    between atoms: N_17  and  C_20 
REMARK    4  A    between atoms: C_20  and  C_18 
ROOT
ATOM      1  C   UNL d   1      30.485  15.460 -24.329  0.00  0.00     0.042 C 
ENDROOT
BRANCH   1   2
ATOM      2  C   UNL d   1      29.822  15.872 -24.046  0.00  0.00     0.102 A 
ATOM      3  N   UNL d   1      29.509  16.555 -24.372  0.00  0.00    -0.227 NA
ATOM      4  C   UNL d   1      28.860  16.782 -23.930  0.00  0.00     0.148 A 
ATOM      5  N   UNL d   1      28.762  16.236 -23.318  0.00  0.00    -0.288 N 
ATOM      6  C   UNL d   1      28.334  17.414 -23.993  0.00  0.00     0.035 A 
ATOM      7  C   UNL d   1      29.363  15.670 -23.392  0.00  0.00     0.101 A 
ATOM      8  C   UNL d   1      28.149  16.319 -22.776  0.00  0.00     0.082 A 
ATOM      9  C   UNL d   1      27.630  16.949 -22.843  0.00  0.00     0.019 A 
ATOM     10  C   UNL d   1      27.719  17.504 -23.456  0.00  0.00     0.004 A 
ATOM     11  C   UNL d   1      28.423  17.973 -24.608  0.00  0.00     0.003 C 
ENDBRANCH   1   2
BRANCH   1  12
ATOM     12  C   UNL d   1      31.236  15.808 -24.291  0.00  0.00     0.104 C 
BRANCH  12  13
ATOM     13  N   UNL d   1      31.872  15.453 -24.667  0.00  0.00    -0.205 NA
ATOM     14  C   UNL d   1      32.613  15.823 -24.668  0.00  0.00     0.302 C 
ATOM     15  O   UNL d   1      33.240  15.466 -25.042  0.00  0.00    -0.263 OA
BRANCH  14  16
ATOM     16  C   UNL d   1      32.705  16.551 -24.287  0.00  0.00     0.158 A 
ATOM     17  O   UNL d   1      32.358  17.286 -24.404  0.00  0.00    -0.296 OA
ATOM     18  C   UNL d   1      32.669  17.813 -23.850  0.00  0.00     0.134 A 
ATOM     19 BR   UNL d   1      32.489  18.614 -23.752  0.00  0.00    -0.022 Br
ATOM     20  C   UNL d   1      33.204  17.389 -23.402  0.00  0.00     0.034 A 
ATOM     21  C   UNL d   1      33.235  16.615 -23.659  0.00  0.00     0.032 A 
ENDBRANCH  14  16
ENDBRANCH  12  13
ENDBRANCH   1  12
TORSDOF 4
ENDMDL
MODEL 5
REMARK VINA RESULT:      -1.4      1.411      2.198
REMARK  4 active torsions:
REMARK  status: ('A' for Active; 'I' for Inactive)
REMARK    1  A    between atoms: C_4  and  C_10 
REMARK    2  A    between atoms: C_18  and  C_7 
REMARK       I    between atoms: C_10  and  N_17 
REMARK    3  A    between atoms: N_17  and  C_20 
REMARK    4  A    between atoms: C_20  and  C_18 
ROOT
ATOM      1  C   UNL d   1      33.235  18.437 -22.844  0.00  0.00     0.042 C 
ENDROOT
BRANCH   1   2
ATOM      2  C   UNL d   1      32.646  18.090 -23.315  0.00  0.00     0.102 A 
ATOM      3  N   UNL d   1      32.441  17.297 -23.317  0.00  0.00    -0.227 NA
ATOM      4  C   UNL d   1      31.838  17.184 -23.856  0.00  0.00     0.148 A 
ATOM      5  N   UNL d   1      31.660  17.914 -24.200  0.00  0.00    -0.288 N 
ATOM      6  C   UNL d   1      31.416  16.515 -24.092  0.00  0.00     0.035 A 
ATOM      7  C   UNL d   1      32.165  18.477 -23.860  0.00  0.00     0.101 A 
ATOM      8  C   UNL d   1      31.070  17.977 -24.770  0.00  0.00     0.082 A 
ATOM      9  C   UNL d   1      30.655  17.310 -25.000  0.00  0.00     0.019 A 
ATOM     10  C   UNL d   1      30.826  16.570 -24.660  0.00  0.00     0.004 A 
ATOM     11  C   UNL d   1      31.587  15.772 -23.752  0.00  0.00     0.003 C 
ENDBRANCH   1   2
BRANCH   1  12
ATOM     12  C   UNL d   1      33.092  19.161 -22.468  0.00  0.00     0.104 C 
BRANCH  12  13
ATOM     13  N   UNL d   1      33.202  19.233 -21.659  0.00  0.00    -0.205 NA
ATOM     14  C   UNL d   1      33.129  19.972 -21.294  0.00  0.00     0.302 C 
ATOM     15  O   UNL d   1      33.240  20.036 -20.491  0.00  0.00    -0.263 OA
BRANCH  14  16
ATOM     16  C   UNL d   1      32.945  20.636 -21.751  0.00  0.00     0.158 A 
ATOM     17  O   UNL d   1      33.232  20.913 -22.467  0.00  0.00    -0.296 OA
ATOM     18  C   UNL d   1      32.835  21.612 -22.656  0.00  0.00     0.134 A 
ATOM     19 BR   UNL d   1      32.935  22.090 -23.322  0.00  0.00    -0.022 Br
ATOM     20  C   UNL d   1      32.309  21.750 -22.048  0.00  0.00     0.034 A 
ATOM     21  C   UNL d   1      32.366  21.160 -21.487  0.00  0.00     0.032 A 
ENDBRANCH  14  16
ENDBRANCH  12  13
ENDBRANCH   1  12
TORSDOF 4
ENDMDL
MODEL 6
REMARK VINA RESULT:      -0.5      1.322      1.903
REMARK  4 active torsions:
REMARK  status: ('A' for Active; 'I' for Inactive)
REMARK    1  A    between atoms: C_4  and  C_10 
REMARK    2  A    between atoms: C_18  and  C_7 
REMARK       I    between atoms: C_10  and  N_17 
REMARK    3  A    between atoms: N_17  and  C_20 
REMARK    4  A    between atoms: C_20  and  C_18 
ROOT
ATOM      1  C   UNL d   1      33.241  19.846 -22.332  0.00  0.00     0.042 C 
ENDROOT
BRANCH   1   2
ATOM      2  C   UNL d   1      32.899  19.232 -22.774  0.00  0.00     0.102 A 
ATOM      3  N   UNL d   1      33.045  18.433 -22.674  0.00  0.00    -0.227 NA
ATOM      4  C   UNL d   1      32.600  18.015 -23.217  0.00  0.00     0.148 A 
ATOM      5  N   UNL d   1      32.166  18.558 -23.665  0.00  0.00    -0.288 N 
ATOM      6  C   UNL d   1      32.520  17.210 -23.376  0.00  0.00     0.035 A 
ATOM      7  C   UNL d   1      32.355  19.316 -23.386  0.00  0.00     0.101 A 
ATOM      8  C   UNL d   1      31.661  18.301 -24.261  0.00  0.00     0.082 A 
ATOM      9  C   UNL d   1      31.587  17.500 -24.414  0.00  0.00     0.019 A 
ATOM     10  C   UNL d   1      32.019  16.946 -23.969  0.00  0.00     0.004 A 
ATOM     11  C   UNL d   1      32.954  16.651 -22.929  0.00  0.00     0.003 C 
ENDBRANCH   1   2
BRANCH   1  12
ATOM     12  C   UNL d   1      32.835  20.561 -22.232  0.00  0.00     0.104 C 
BRANCH  12  13
ATOM     13  N   UNL d   1      33.016  21.205 -22.706  0.00  0.00    -0.205 NA
ATOM     14  C   UNL d   1      33.035  21.967 -22.382  0.00  0.00     0.302 C 
ATOM     15  O   UNL d   1      33.215  22.602 -22.857  0.00  0.00    -0.263 OA
BRANCH  14  16
ATOM     16  C   UNL d   1      32.870  22.072 -21.579  0.00  0.00     0.158 A 
ATOM     17  O   UNL d   1      33.240  21.805 -20.897  0.00  0.00    -0.296 OA
ATOM     18  C   UNL d   1      32.822  22.088 -20.243  0.00  0.00     0.134 A 
ATOM     19 BR   UNL d   1      32.984  21.965 -19.443  0.00  0.00    -0.022 Br
ATOM     20  C   UNL d   1      32.199  22.526 -20.539  0.00  0.00     0.034 A 
ATOM     21  C   UNL d   1      32.217  22.524 -21.356  0.00  0.00     0.032 A 
ENDBRANCH  14  16
ENDBRANCH  12  13
ENDBRANCH   1  12
TORSDOF 4
ENDMDL
