MODEL 1
REMARK VINA RESULT:      47.9      0.000      0.000
REMARK  3 active torsions:
REMARK  status: ('A' for Active; 'I' for Inactive)
REMARK    1  A    between atoms: C_9  and  S_1 
REMARK    2  A    between atoms: S_2  and  C_8 
REMARK    3  A    between atoms: N_14  and  C_5 
ROOT
ATOM      1  C   UNL d   1      14.252  13.317  -2.373  0.00  0.00     0.021 A 
ATOM      2  C   UNL d   1      13.792  13.973  -3.465  0.00  0.00     0.021 A 
ATOM      3  C   UNL d   1      14.283  14.007  -2.782  0.00  0.00     0.111 A 
ATOM      4  C   UNL d   1      13.459  13.223  -3.452  0.00  0.00     0.002 A 
ATOM      5  C   UNL d   1      13.717  12.794  -2.798  0.00  0.00     0.002 A 
ATOM      6  C   UNL d   1      13.113  14.317  -4.669  0.00  0.00     0.107 A 
ATOM      7  C   UNL d   1      14.439  12.275  -1.418  0.00  0.00     0.107 A 
ATOM      8  C   UNL d   1      13.633  14.512  -4.049  0.00  0.00     0.015 A 
ATOM      9  C   UNL d   1      14.610  13.064  -1.691  0.00  0.00     0.015 A 
ATOM     10  C   UNL d   1      13.567  12.047  -2.523  0.00  0.00     0.001 A 
ATOM     11  C   UNL d   1      12.925  13.031  -4.094  0.00  0.00     0.001 A 
ATOM     12  C   UNL d   1      13.922  11.779  -1.836  0.00  0.00     0.013 A 
ATOM     13  C   UNL d   1      12.769  13.568  -4.672  0.00  0.00     0.013 A 
ENDROOT
BRANCH   6  14
ATOM     14  S   UNL d   1      12.962  14.897  -5.267  0.00  0.00     0.302 S 
ATOM     15  O   UNL d   1      13.122  14.322  -5.845  0.00  0.00    -0.197 OA
ATOM     16  O   UNL d   1      12.795  15.497  -4.682  0.00  0.00    -0.197 OA
ATOM     17  N   UNL d   1      12.810  15.478  -5.872  0.00  0.00    -0.043 N 
ENDBRANCH   6  14
BRANCH   3  18
ATOM     18  N   UNL d   1      14.781  14.654  -2.491  0.00  0.00    -0.096 NA
ATOM     19  O   UNL d   1      14.446  15.285  -2.064  0.00  0.00    -0.061 OA
ENDBRANCH   3  18
BRANCH   7  20
ATOM     20  S   UNL d   1      14.836  12.028  -0.686  0.00  0.00     0.302 S 
ATOM     21  O   UNL d   1      15.489  11.781  -1.184  0.00  0.00    -0.197 OA
ATOM     22  O   UNL d   1      14.164  12.289  -0.234  0.00  0.00    -0.197 OA
ATOM     23  N   UNL d   1      15.226  11.791  -0.016  0.00  0.00    -0.043 N 
ENDBRANCH   7  20
TORSDOF 3
ENDMDL
MODEL 2
REMARK VINA RESULT:      48.1      1.916      3.760
REMARK  3 active torsions:
REMARK  status: ('A' for Active; 'I' for Inactive)
REMARK    1  A    between atoms: C_9  and  S_1 
REMARK    2  A    between atoms: S_2  and  C_8 
REMARK    3  A    between atoms: N_14  and  C_5 
ROOT
ATOM      1  C   UNL d   1      13.941  13.518  -3.043  0.00  0.00     0.021 A 
ATOM      2  C   UNL d   1      14.469  14.352  -2.116  0.00  0.00     0.021 A 
ATOM      3  C   UNL d   1      14.295  13.555  -2.324  0.00  0.00     0.111 A 
ATOM      4  C   UNL d   1      14.201  14.801  -2.748  0.00  0.00     0.002 A 
ATOM      5  C   UNL d   1      13.872  14.325  -3.334  0.00  0.00     0.002 A 
ATOM      6  C   UNL d   1      14.918  15.505  -1.411  0.00  0.00     0.107 A 
ATOM      7  C   UNL d   1      13.314  13.080  -4.247  0.00  0.00     0.107 A 
ATOM      8  C   UNL d   1      14.818  14.681  -1.463  0.00  0.00     0.015 A 
ATOM      9  C   UNL d   1      13.666  12.901  -3.491  0.00  0.00     0.015 A 
ATOM     10  C   UNL d   1      13.534  14.476  -4.055  0.00  0.00     0.001 A 
ATOM     11  C   UNL d   1      14.309  15.650  -2.687  0.00  0.00     0.001 A 
ATOM     12  C   UNL d   1      13.253  13.862  -4.517  0.00  0.00     0.013 A 
ATOM     13  C   UNL d   1      14.655  15.973  -2.037  0.00  0.00     0.013 A 
ENDROOT
BRANCH   6  14
ATOM     14  S   UNL d   1      15.285  15.826  -0.718  0.00  0.00     0.302 S 
ATOM     15  O   UNL d   1      15.557  16.465  -1.175  0.00  0.00    -0.197 OA
ATOM     16  O   UNL d   1      15.011  15.174  -0.238  0.00  0.00    -0.197 OA
ATOM     17  N   UNL d   1      15.655  16.150  -0.023  0.00  0.00    -0.043 N 
ENDBRANCH   6  14
BRANCH   3  18
ATOM     18  N   UNL d   1      14.443  12.824  -1.883  0.00  0.00    -0.096 NA
ATOM     19  O   UNL d   1      15.217  12.527  -1.806  0.00  0.00    -0.061 OA
ENDBRANCH   3  18
BRANCH   7  20
ATOM     20  S   UNL d   1      13.028  12.401  -4.707  0.00  0.00     0.302 S 
ATOM     21  O   UNL d   1      13.300  12.823  -5.402  0.00  0.00    -0.197 OA
ATOM     22  O   UNL d   1      12.774  12.022  -3.990  0.00  0.00    -0.197 OA
ATOM     23  N   UNL d   1      12.769  11.779  -5.158  0.00  0.00    -0.043 N 
ENDBRANCH   7  20
TORSDOF 3
ENDMDL
MODEL 3
REMARK VINA RESULT:      48.7      0.204      4.131
REMARK  3 active torsions:
REMARK  status: ('A' for Active; 'I' for Inactive)
REMARK    1  A    between atoms: C_9  and  S_1 
REMARK    2  A    between atoms: S_2  and  C_8 
REMARK    3  A    between atoms: N_14  and  C_5 
ROOT
ATOM      1  C   UNL d   1      13.884  14.077  -3.528  0.00  0.00     0.021 A 
ATOM      2  C   UNL d   1      14.241  13.347  -2.445  0.00  0.00     0.021 A 
ATOM      3  C   UNL d   1      14.282  14.093  -2.831  0.00  0.00     0.111 A 
ATOM      4  C   UNL d   1      13.796  12.872  -2.944  0.00  0.00     0.002 A 
ATOM      5  C   UNL d   1      13.560  13.284  -3.617  0.00  0.00     0.002 A 
ATOM      6  C   UNL d   1      14.409  12.295  -1.498  0.00  0.00     0.107 A 
ATOM      7  C   UNL d   1      13.294  14.408  -4.783  0.00  0.00     0.107 A 
ATOM      8  C   UNL d   1      14.543  13.080  -1.742  0.00  0.00     0.015 A 
ATOM      9  C   UNL d   1      13.754  14.634  -4.102  0.00  0.00     0.015 A 
ATOM     10  C   UNL d   1      13.125  13.088  -4.271  0.00  0.00     0.001 A 
ATOM     11  C   UNL d   1      13.662  12.065  -2.686  0.00  0.00     0.001 A 
ATOM     12  C   UNL d   1      12.987  13.642  -4.858  0.00  0.00     0.013 A 
ATOM     13  C   UNL d   1      13.964  11.803  -1.988  0.00  0.00     0.013 A 
ENDROOT
BRANCH   6  14
ATOM     14  S   UNL d   1      14.735  12.039  -0.760  0.00  0.00     0.302 S 
ATOM     15  O   UNL d   1      15.439  11.841  -1.156  0.00  0.00    -0.197 OA
ATOM     16  O   UNL d   1      14.017  12.240  -0.342  0.00  0.00    -0.197 OA
ATOM     17  N   UNL d   1      15.066  11.781  -0.019  0.00  0.00    -0.043 N 
ENDBRANCH   6  14
BRANCH   3  18
ATOM     18  N   UNL d   1      14.675  14.825  -2.581  0.00  0.00    -0.096 NA
ATOM     19  O   UNL d   1      14.332  15.311  -2.000  0.00  0.00    -0.061 OA
ENDBRANCH   3  18
BRANCH   7  20
ATOM     20  S   UNL d   1      13.170  15.024  -5.383  0.00  0.00     0.302 S 
ATOM     21  O   UNL d   1      13.522  14.478  -5.942  0.00  0.00    -0.197 OA
ATOM     22  O   UNL d   1      12.827  15.531  -4.793  0.00  0.00    -0.197 OA
ATOM     23  N   UNL d   1      13.064  15.583  -5.961  0.00  0.00    -0.043 N 
ENDBRANCH   7  20
TORSDOF 3
ENDMDL
MODEL 4
REMARK VINA RESULT:      49.4      2.144      3.652
REMARK  3 active torsions:
REMARK  status: ('A' for Active; 'I' for Inactive)
REMARK    1  A    between atoms: C_9  and  S_1 
REMARK    2  A    between atoms: S_2  and  C_8 
REMARK    3  A    between atoms: N_14  and  C_5 
ROOT
ATOM      1  C   UNL d   1      14.095  13.799  -2.847  0.00  0.00     0.021 A 
ATOM      2  C   UNL d   1      14.614  14.674  -1.953  0.00  0.00     0.021 A 
ATOM      3  C   UNL d   1      14.293  14.568  -2.723  0.00  0.00     0.111 A 
ATOM      4  C   UNL d   1      14.603  13.928  -1.612  0.00  0.00     0.002 A 
ATOM      5  C   UNL d   1      14.292  13.368  -2.130  0.00  0.00     0.002 A 
ATOM      6  C   UNL d   1      15.184  15.263  -0.788  0.00  0.00     0.107 A 
ATOM      7  C   UNL d   1      13.639  12.570  -3.406  0.00  0.00     0.107 A 
ATOM      8  C   UNL d   1      14.893  15.328  -1.565  0.00  0.00     0.015 A 
ATOM      9  C   UNL d   1      13.772  13.408  -3.480  0.00  0.00     0.015 A 
ATOM     10  C   UNL d   1      14.158  12.571  -2.078  0.00  0.00     0.001 A 
ATOM     11  C   UNL d   1      14.905  13.869  -0.812  0.00  0.00     0.001 A 
ATOM     12  C   UNL d   1      13.833  12.164  -2.709  0.00  0.00     0.013 A 
ATOM     13  C   UNL d   1      15.181  14.521  -0.429  0.00  0.00     0.013 A 
ENDROOT
BRANCH   6  14
ATOM     14  S   UNL d   1      15.470  15.961  -0.403  0.00  0.00     0.302 S 
ATOM     15  O   UNL d   1      16.184  15.565  -0.247  0.00  0.00    -0.197 OA
ATOM     16  O   UNL d   1      14.740  16.378  -0.558  0.00  0.00    -0.197 OA
ATOM     17  N   UNL d   1      15.760  16.662  -0.015  0.00  0.00    -0.043 N 
ENDBRANCH   6  14
BRANCH   3  18
ATOM     18  N   UNL d   1      14.159  15.149  -3.353  0.00  0.00    -0.096 NA
ATOM     19  O   UNL d   1      14.759  15.685  -3.566  0.00  0.00    -0.061 OA
ENDBRANCH   3  18
BRANCH   7  20
ATOM     20  S   UNL d   1      13.292  12.174  -4.098  0.00  0.00     0.302 S 
ATOM     21  O   UNL d   1      12.769  11.779  -3.544  0.00  0.00    -0.197 OA
ATOM     22  O   UNL d   1      13.831  12.591  -4.606  0.00  0.00    -0.197 OA
ATOM     23  N   UNL d   1      12.952  11.793  -4.727  0.00  0.00    -0.043 N 
ENDBRANCH   7  20
TORSDOF 3
ENDMDL
