MODEL 1
REMARK VINA RESULT:      -3.4      0.000      0.000
REMARK  6 active torsions:
REMARK  status: ('A' for Active; 'I' for Inactive)
REMARK    1  A    between atoms: N_5  and  S_1 
REMARK    2  A    between atoms: C_6  and  S_1 
REMARK    3  A    between atoms: C_2  and  C_14 
REMARK    4  A    between atoms: C_8  and  N_5 
REMARK    5  A    between atoms: C_7  and  C_8 
REMARK       I    between atoms: N_11  and  C_7 
REMARK    6  A    between atoms: C_20  and  N_11 
ROOT
ATOM      1  C   UNL d   1      32.863  18.373 -22.927  0.00  0.00     0.298 C 
ATOM      2  N   UNL d   1      33.192  19.097 -23.128  0.00  0.00    -0.207 NA
ATOM      3  O   UNL d   1      32.529  18.264 -22.181  0.00  0.00    -0.264 OA
ENDROOT
BRANCH   1   4
ATOM      4  C   UNL d   1      32.872  17.761 -23.474  0.00  0.00     0.151 C 
ATOM      5  C   UNL d   1      33.225  17.874 -24.216  0.00  0.00     0.027 C 
BRANCH   4   6
ATOM      6  N   UNL d   1      32.537  17.038 -23.298  0.00  0.00    -0.153 NA
BRANCH   6   7
ATOM      7  S   UNL d   1      31.872  16.769 -23.707  0.00  0.00     0.285 S 
ATOM      8  O   UNL d   1      32.009  17.329 -24.297  0.00  0.00    -0.198 OA
ATOM      9  O   UNL d   1      31.735  16.208 -23.117  0.00  0.00    -0.198 OA
BRANCH   7  10
ATOM     10  C   UNL d   1      31.211  16.502 -24.114  0.00  0.00     0.105 A 
ATOM     11  C   UNL d   1      31.275  15.845 -24.600  0.00  0.00     0.012 A 
ATOM     12  C   UNL d   1      30.606  15.572 -25.015  0.00  0.00     0.001 A 
ATOM     13  C   UNL d   1      32.010  15.453 -24.676  0.00  0.00     0.001 C 
ATOM     14  C   UNL d   1      29.888  15.958 -24.937  0.00  0.00     0.000 A 
ATOM     15  C   UNL d   1      29.825  16.621 -24.448  0.00  0.00     0.001 A 
ATOM     16  C   UNL d   1      30.493  16.889 -24.037  0.00  0.00     0.013 A 
ATOM     17  C   UNL d   1      29.095  17.014 -24.369  0.00  0.00     0.000 C 
ENDBRANCH   7  10
ENDBRANCH   6   7
ENDBRANCH   4   6
ENDBRANCH   1   4
BRANCH   2  18
ATOM     18  C   UNL d   1      33.185  19.715 -22.582  0.00  0.00     0.085 A 
ATOM     19  C   UNL d   1      33.181  19.542 -21.778  0.00  0.00     0.019 A 
ATOM     20  C   UNL d   1      33.174  20.156 -21.214  0.00  0.00     0.004 A 
ATOM     21  C   UNL d   1      33.171  20.940 -21.461  0.00  0.00     0.024 A 
ATOM     22  C   UNL d   1      33.175  21.116 -22.268  0.00  0.00     0.004 A 
ATOM     23  C   UNL d   1      33.182  20.512 -22.831  0.00  0.00     0.019 A 
BRANCH  21  24
ATOM     24  C   UNL d   1      33.165  21.542 -20.889  0.00  0.00     0.111 A 
ATOM     25  N   UNL d   1      33.228  21.394 -20.085  0.00  0.00    -0.239 NA
ATOM     26  C   UNL d   1      33.202  22.116 -19.683  0.00  0.00     0.088 A 
ATOM     27  C   UNL d   1      33.240  22.306 -18.884  0.00  0.00     0.020 A 
ATOM     28  C   UNL d   1      33.121  22.713 -20.247  0.00  0.00     0.049 A 
ATOM     29  C   UNL d   1      33.198  23.094 -18.647  0.00  0.00     0.002 A 
ATOM     30  C   UNL d   1      33.117  23.691 -19.210  0.00  0.00     0.001 A 
ATOM     31  C   UNL d   1      33.079  23.500 -20.011  0.00  0.00     0.008 A 
ATOM     32  S   UNL d   1      33.098  22.356 -20.994  0.00  0.00    -0.066 SA
ENDBRANCH  21  24
ENDBRANCH   2  18
TORSDOF 6
ENDMDL
MODEL 2
REMARK VINA RESULT:      -0.5      2.112      7.052
REMARK  6 active torsions:
REMARK  status: ('A' for Active; 'I' for Inactive)
REMARK    1  A    between atoms: N_5  and  S_1 
REMARK    2  A    between atoms: C_6  and  S_1 
REMARK    3  A    between atoms: C_2  and  C_14 
REMARK    4  A    between atoms: C_8  and  N_5 
REMARK    5  A    between atoms: C_7  and  C_8 
REMARK       I    between atoms: N_11  and  C_7 
REMARK    6  A    between atoms: C_20  and  N_11 
ROOT
ATOM      1  C   UNL d   1      32.342  21.424 -20.644  0.00  0.00     0.298 C 
ATOM      2  N   UNL d   1      33.011  21.225 -21.076  0.00  0.00    -0.207 NA
ATOM      3  O   UNL d   1      31.673  20.943 -20.671  0.00  0.00    -0.264 OA
ENDROOT
BRANCH   1   4
ATOM      4  C   UNL d   1      32.347  22.105 -20.186  0.00  0.00     0.151 C 
ATOM      5  C   UNL d   1      31.742  22.667 -20.272  0.00  0.00     0.027 C 
BRANCH   4   6
ATOM      6  N   UNL d   1      32.943  22.241 -19.644  0.00  0.00    -0.153 NA
BRANCH   6   7
ATOM      7  S   UNL d   1      32.772  22.534 -18.892  0.00  0.00     0.285 S 
ATOM      8  O   UNL d   1      33.183  23.227 -19.068  0.00  0.00    -0.198 OA
ATOM      9  O   UNL d   1      32.360  21.841 -18.715  0.00  0.00    -0.198 OA
BRANCH   7  10
ATOM     10  C   UNL d   1      32.602  22.825 -18.144  0.00  0.00     0.105 A 
ATOM     11  C   UNL d   1      32.027  23.404 -18.057  0.00  0.00     0.012 A 
ATOM     12  C   UNL d   1      31.853  23.702 -17.299  0.00  0.00     0.001 A 
ATOM     13  C   UNL d   1      31.620  23.691 -18.729  0.00  0.00     0.001 C 
ATOM     14  C   UNL d   1      32.253  23.419 -16.643  0.00  0.00     0.000 A 
ATOM     15  C   UNL d   1      32.832  22.836 -16.732  0.00  0.00     0.001 A 
ATOM     16  C   UNL d   1      33.003  22.542 -17.488  0.00  0.00     0.013 A 
ATOM     17  C   UNL d   1      33.240  22.548 -16.064  0.00  0.00     0.000 C 
ENDBRANCH   7  10
ENDBRANCH   6   7
ENDBRANCH   4   6
ENDBRANCH   1   4
BRANCH   2  18
ATOM     18  C   UNL d   1      33.010  20.541 -21.537  0.00  0.00     0.085 A 
ATOM     19  C   UNL d   1      32.832  20.596 -22.338  0.00  0.00     0.019 A 
ATOM     20  C   UNL d   1      32.828  19.913 -22.817  0.00  0.00     0.004 A 
ATOM     21  C   UNL d   1      33.002  19.180 -22.488  0.00  0.00     0.024 A 
ATOM     22  C   UNL d   1      33.181  19.123 -21.684  0.00  0.00     0.004 A 
ATOM     23  C   UNL d   1      33.186  19.796 -21.205  0.00  0.00     0.019 A 
BRANCH  21  24
ATOM     24  C   UNL d   1      32.994  18.508 -22.976  0.00  0.00     0.111 A 
ATOM     25  N   UNL d   1      33.122  17.749 -22.691  0.00  0.00    -0.239 NA
ATOM     26  C   UNL d   1      33.075  17.220 -23.324  0.00  0.00     0.088 A 
ATOM     27  C   UNL d   1      33.156  16.403 -23.370  0.00  0.00     0.020 A 
ATOM     28  C   UNL d   1      32.916  17.659 -24.004  0.00  0.00     0.049 A 
ATOM     29  C   UNL d   1      33.077  16.023 -24.097  0.00  0.00     0.002 A 
ATOM     30  C   UNL d   1      32.918  16.462 -24.777  0.00  0.00     0.001 A 
ATOM     31  C   UNL d   1      32.838  17.280 -24.731  0.00  0.00     0.008 A 
ATOM     32  S   UNL d   1      32.866  18.457 -23.788  0.00  0.00    -0.066 SA
ENDBRANCH  21  24
ENDBRANCH   2  18
TORSDOF 6
ENDMDL
