MODEL 1
REMARK VINA RESULT:     -10.8      0.000      0.000
REMARK  4 active torsions:
REMARK  status: ('A' for Active; 'I' for Inactive)
REMARK    1  A    between atoms: N_2  and  C_1 
REMARK    2  A    between atoms: C_3  and  C_1 
REMARK       I    between atoms: C_6  and  N_2 
REMARK       I    between atoms: N_8  and  C_6 
REMARK    3  A    between atoms: N_11  and  C_7 
REMARK    4  A    between atoms: C_9  and  N_8 
ROOT
ATOM      1  N   UNL d   1      51.616  34.057  53.039  0.00  0.00    -0.159 NA
ATOM      2  C   UNL d   1      51.078  34.214  52.434  0.00  0.00     0.370 C 
ATOM      3  N   UNL d   1      50.312  34.435  52.620  0.00  0.00    -0.172 NA
ATOM      4  O   UNL d   1      51.309  34.148  51.644  0.00  0.00    -0.243 OA
ENDROOT
BRANCH   1   5
ATOM      5  C   UNL d   1      52.364  33.840  53.281  0.00  0.00     0.386 A 
ATOM      6  O   UNL d   1      52.085  33.095  53.060  0.00  0.00    -0.283 OA
ATOM      7  C   UNL d   1      52.679  32.539  53.192  0.00  0.00     0.121 A 
ATOM      8  C   UNL d   1      52.709  31.723  53.074  0.00  0.00     0.026 A 
ATOM      9  C   UNL d   1      53.334  32.942  53.498  0.00  0.00     0.121 A 
ATOM     10  C   UNL d   1      53.394  31.310  53.261  0.00  0.00     0.002 A 
ATOM     11  C   UNL d   1      54.054  31.710  53.569  0.00  0.00     0.002 A 
ATOM     12  C   UNL d   1      54.017  32.524  53.684  0.00  0.00     0.026 A 
ATOM     13  O   UNL d   1      53.141  33.736  53.552  0.00  0.00    -0.283 OA
BRANCH   5  14
ATOM     14  C   UNL d   1      52.537  34.624  53.469  0.00  0.00     0.470 C 
ATOM     15  F   UNL d   1      52.942  35.220  53.005  0.00  0.00    -0.164 F 
ATOM     16  F   UNL d   1      52.352  35.061  54.195  0.00  0.00    -0.164 F 
ATOM     17  F   UNL d   1      52.691  35.338  53.647  0.00  0.00    -0.164 F 
ENDBRANCH   5  14
ENDBRANCH   1   5
BRANCH   3  18
ATOM     18  C   UNL d   1      49.638  34.631  52.175  0.00  0.00     0.172 A 
ATOM     19  C   UNL d   1      49.054  35.099  52.506  0.00  0.00     0.076 A 
ATOM     20  C   UNL d   1      48.382  35.297  52.068  0.00  0.00     0.153 A 
ATOM     21  N   UNL d   1      48.305  35.015  51.286  0.00  0.00    -0.206 NA
ATOM     22  C   UNL d   1      48.897  34.543  50.959  0.00  0.00     0.202 A 
ATOM     23  N   UNL d   1      49.566  34.348  51.398  0.00  0.00    -0.205 NA
BRANCH  20  24
ATOM     24  N   UNL d   1      47.790  35.769  52.396  0.00  0.00    -0.285 N 
ATOM     25  C   UNL d   1      47.904  36.116  53.131  0.00  0.00     0.108 A 
ATOM     26  C   UNL d   1      47.304  36.587  53.448  0.00  0.00     0.142 A 
ATOM     27  O   UNL d   1      46.602  36.708  53.039  0.00  0.00    -0.300 OA
ATOM     28  C   UNL d   1      46.496  36.356  52.303  0.00  0.00     0.142 A 
ATOM     29  C   UNL d   1      47.087  35.884  51.974  0.00  0.00     0.108 A 
ENDBRANCH  20  24
ENDBRANCH   3  18
TORSDOF 4
ENDMDL
MODEL 2
REMARK VINA RESULT:      -9.3      1.963      5.502
REMARK  4 active torsions:
REMARK  status: ('A' for Active; 'I' for Inactive)
REMARK    1  A    between atoms: N_2  and  C_1 
REMARK    2  A    between atoms: C_3  and  C_1 
REMARK       I    between atoms: C_6  and  N_2 
REMARK       I    between atoms: N_8  and  C_6 
REMARK    3  A    between atoms: N_11  and  C_7 
REMARK    4  A    between atoms: C_9  and  N_8 
ROOT
ATOM      1  N   UNL d   1      49.935  34.528  52.278  0.00  0.00    -0.159 NA
ATOM      2  C   UNL d   1      50.403  33.988  52.690  0.00  0.00     0.370 C 
ATOM      3  N   UNL d   1      51.203  33.938  52.525  0.00  0.00    -0.172 NA
ATOM      4  O   UNL d   1      50.067  33.500  53.264  0.00  0.00    -0.243 OA
ENDROOT
BRANCH   1   5
ATOM      5  C   UNL d   1      49.207  34.868  52.135  0.00  0.00     0.386 A 
ATOM      6  O   UNL d   1      49.325  35.146  52.904  0.00  0.00    -0.283 OA
ATOM      7  C   UNL d   1      48.675  35.605  53.123  0.00  0.00     0.121 A 
ATOM      8  C   UNL d   1      48.496  36.014  53.816  0.00  0.00     0.026 A 
ATOM      9  C   UNL d   1      48.149  35.612  52.485  0.00  0.00     0.121 A 
ATOM     10  C   UNL d   1      47.790  36.430  53.871  0.00  0.00     0.002 A 
ATOM     11  C   UNL d   1      47.258  36.441  53.233  0.00  0.00     0.002 A 
ATOM     12  C   UNL d   1      47.444  36.030  52.545  0.00  0.00     0.026 A 
ATOM     13  O   UNL d   1      48.474  35.162  51.883  0.00  0.00    -0.283 OA
BRANCH   5  14
ATOM     14  C   UNL d   1      49.194  34.538  51.380  0.00  0.00     0.470 C 
ATOM     15  F   UNL d   1      48.747  33.869  51.085  0.00  0.00    -0.164 F 
ATOM     16  F   UNL d   1      49.635  34.780  50.675  0.00  0.00    -0.164 F 
ATOM     17  F   UNL d   1      49.188  34.241  50.689  0.00  0.00    -0.164 F 
ENDBRANCH   5  14
ENDBRANCH   1   5
BRANCH   3  18
ATOM     18  C   UNL d   1      51.829  33.476  52.816  0.00  0.00     0.172 A 
ATOM     19  C   UNL d   1      52.340  33.788  53.375  0.00  0.00     0.076 A 
ATOM     20  C   UNL d   1      52.964  33.334  53.669  0.00  0.00     0.153 A 
ATOM     21  N   UNL d   1      53.069  32.554  53.390  0.00  0.00    -0.206 NA
ATOM     22  C   UNL d   1      52.552  32.245  52.827  0.00  0.00     0.202 A 
ATOM     23  N   UNL d   1      51.930  32.700  52.536  0.00  0.00    -0.205 NA
BRANCH  20  24
ATOM     24  N   UNL d   1      53.481  33.643  54.232  0.00  0.00    -0.285 N 
ATOM     25  C   UNL d   1      53.365  34.403  54.520  0.00  0.00     0.108 A 
ATOM     26  C   UNL d   1      53.890  34.701  55.084  0.00  0.00     0.142 A 
ATOM     27  O   UNL d   1      54.520  34.250  55.355  0.00  0.00    -0.300 OA
ATOM     28  C   UNL d   1      54.629  33.488  55.061  0.00  0.00     0.142 A 
ATOM     29  C   UNL d   1      54.112  33.179  54.498  0.00  0.00     0.108 A 
ENDBRANCH  20  24
ENDBRANCH   3  18
TORSDOF 4
ENDMDL
MODEL 3
REMARK VINA RESULT:      -8.0      1.555      2.209
REMARK  4 active torsions:
REMARK  status: ('A' for Active; 'I' for Inactive)
REMARK    1  A    between atoms: N_2  and  C_1 
REMARK    2  A    between atoms: C_3  and  C_1 
REMARK       I    between atoms: C_6  and  N_2 
REMARK       I    between atoms: N_8  and  C_6 
REMARK    3  A    between atoms: N_11  and  C_7 
REMARK    4  A    between atoms: C_9  and  N_8 
ROOT
ATOM      1  N   UNL d   1      50.813  34.742  52.864  0.00  0.00    -0.159 NA
ATOM      2  C   UNL d   1      50.046  34.821  53.157  0.00  0.00     0.370 C 
ATOM      3  N   UNL d   1      49.595  35.470  52.942  0.00  0.00    -0.172 NA
ATOM      4  O   UNL d   1      49.733  34.249  53.663  0.00  0.00    -0.243 OA
ENDROOT
BRANCH   1   5
ATOM      5  C   UNL d   1      51.513  34.325  52.817  0.00  0.00     0.386 A 
ATOM      6  O   UNL d   1      51.614  34.655  53.568  0.00  0.00    -0.283 OA
ATOM      7  C   UNL d   1      52.339  34.405  53.872  0.00  0.00     0.121 A 
ATOM      8  C   UNL d   1      52.721  34.558  54.586  0.00  0.00     0.026 A 
ATOM      9  C   UNL d   1      52.691  33.916  53.305  0.00  0.00     0.121 A 
ATOM     10  C   UNL d   1      53.456  34.223  54.734  0.00  0.00     0.002 A 
ATOM     11  C   UNL d   1      53.814  33.730  54.168  0.00  0.00     0.002 A 
ATOM     12  C   UNL d   1      53.426  33.582  53.458  0.00  0.00     0.026 A 
ATOM     13  O   UNL d   1      52.186  33.868  52.662  0.00  0.00    -0.283 OA
BRANCH   5  14
ATOM     14  C   UNL d   1      51.308  34.054  52.066  0.00  0.00     0.470 C 
ATOM     15  F   UNL d   1      50.929  33.320  51.836  0.00  0.00    -0.164 F 
ATOM     16  F   UNL d   1      51.421  34.441  51.299  0.00  0.00    -0.164 F 
ATOM     17  F   UNL d   1      51.123  33.812  51.379  0.00  0.00    -0.164 F 
ENDBRANCH   5  14
ENDBRANCH   1   5
BRANCH   3  18
ATOM     18  C   UNL d   1      48.826  35.729  53.121  0.00  0.00     0.172 A 
ATOM     19  C   UNL d   1      48.212  35.568  52.603  0.00  0.00     0.076 A 
ATOM     20  C   UNL d   1      47.446  35.822  52.775  0.00  0.00     0.153 A 
ATOM     21  N   UNL d   1      47.303  36.245  53.482  0.00  0.00    -0.206 NA
ATOM     22  C   UNL d   1      47.925  36.404  53.999  0.00  0.00     0.202 A 
ATOM     23  N   UNL d   1      48.689  36.149  53.824  0.00  0.00    -0.205 NA
BRANCH  20  24
ATOM     24  N   UNL d   1      46.823  35.663  52.258  0.00  0.00    -0.285 N 
ATOM     25  C   UNL d   1      46.961  35.631  51.450  0.00  0.00     0.108 A 
ATOM     26  C   UNL d   1      46.330  35.471  50.942  0.00  0.00     0.142 A 
ATOM     27  O   UNL d   1      45.573  35.345  51.235  0.00  0.00    -0.300 OA
ATOM     28  C   UNL d   1      45.443  35.379  52.048  0.00  0.00     0.142 A 
ATOM     29  C   UNL d   1      46.065  35.538  52.566  0.00  0.00     0.108 A 
ENDBRANCH  20  24
ENDBRANCH   3  18
TORSDOF 4
ENDMDL
