MODEL 1
REMARK VINA RESULT:     126.8      0.000      0.000
REMARK  11 active torsions:
REMARK  status: ('A' for Active; 'I' for Inactive)
REMARK    1  A    between atoms: C_4  and  C_1 
REMARK    2  A    between atoms: C_10  and  C_2 
REMARK    3  A    between atoms: C_16  and  C_9 
REMARK    4  A    between atoms: O_24  and  C_10 
REMARK    5  A    between atoms: O_18  and  C_14 
REMARK    6  A    between atoms: O_25  and  C_16 
REMARK    7  A    between atoms: C_26  and  C_17 
REMARK    8  A    between atoms: C_19  and  O_18 
REMARK    9  A    between atoms: C_29  and  O_24 
REMARK   10  A    between atoms: C_28  and  O_25 
REMARK   11  A    between atoms: C_30  and  C_26 
ROOT
ATOM      1  C   UNL d   1     -56.822-100.218 -43.450  0.00  0.00     0.090 A 
ATOM      2  C   UNL d   1     -56.225-100.643 -43.829  0.00  0.00     0.168 A 
ATOM      3  C   UNL d   1     -56.901-100.266 -42.624  0.00  0.00     0.201 A 
ATOM      4  C   UNL d   1     -56.384-100.739 -42.176  0.00  0.00     0.062 A 
ATOM      5  O   UNL d   1     -55.708-101.116 -43.382  0.00  0.00    -0.301 OA
ATOM      6  C   UNL d   1     -55.787-101.164 -42.555  0.00  0.00     0.105 A 
ATOM      7  C   UNL d   1     -56.468-100.780 -41.366  0.00  0.00     0.007 A 
ATOM      8  C   UNL d   1     -55.275-101.630 -42.124  0.00  0.00     0.050 A 
ATOM      9  C   UNL d   1     -55.354-101.678 -41.298  0.00  0.00     0.105 A 
ATOM     10  C   UNL d   1     -55.951-101.253 -40.919  0.00  0.00     0.023 A 
ATOM     11  O   UNL d   1     -57.498 -99.841 -42.245  0.00  0.00    -0.286 OA
ENDROOT
BRANCH   1  12
ATOM     12  C   UNL d   1     -57.339 -99.746 -43.897  0.00  0.00     0.105 A 
ATOM     13  O   UNL d   1     -58.133 -99.942 -44.010  0.00  0.00    -0.302 OA
ATOM     14  C   UNL d   1     -58.464 -99.360 -44.470  0.00  0.00     0.163 A 
ATOM     15  C   UNL d   1     -57.894 -98.806 -44.646  0.00  0.00     0.032 A 
ATOM     16  C   UNL d   1     -57.174 -99.043 -44.286  0.00  0.00     0.027 A 
BRANCH  14  17
ATOM     17  C   UNL d   1     -59.267 -99.327 -44.728  0.00  0.00     0.323 C 
ATOM     18  O   UNL d   1     -59.832 -99.869 -44.401  0.00  0.00    -0.257 OA
BRANCH  17  19
ATOM     19  O   UNL d   1     -59.513 -98.785 -45.286  0.00  0.00    -0.270 OA
BRANCH  19  20
ATOM     20  C   UNL d   1     -59.360 -98.885 -46.090  0.00  0.00     0.126 C 
ATOM     21  C   UNL d   1     -59.907 -99.226 -46.577  0.00  0.00     0.029 C 
ENDBRANCH  19  20
ENDBRANCH  17  19
ENDBRANCH  14  17
ENDBRANCH   1  12
BRANCH   2  22
ATOM     22  C   UNL d   1     -56.135-100.600 -44.679  0.00  0.00     0.323 C 
ATOM     23  O   UNL d   1     -55.875 -99.905 -45.019  0.00  0.00    -0.257 OA
BRANCH  22  24
ATOM     24  O   UNL d   1     -56.310-101.254 -45.151  0.00  0.00    -0.270 OA
BRANCH  24  25
ATOM     25  C   UNL d   1     -55.834-101.934 -45.104  0.00  0.00     0.126 C 
ATOM     26  C   UNL d   1     -55.201-101.955 -44.576  0.00  0.00     0.029 C 
ENDBRANCH  24  25
ENDBRANCH  22  24
ENDBRANCH   2  22
BRANCH  10  27
ATOM     27  C   UNL d   1     -56.039-101.297 -40.070  0.00  0.00     0.002 C 
BRANCH  27  28
ATOM     28  C   UNL d   1     -56.616-101.801 -39.761  0.00  0.00     0.000 C 
ATOM     29  C   UNL d   1     -56.905-101.638 -38.990  0.00  0.00     0.000 C 
ENDBRANCH  27  28
ENDBRANCH  10  27
BRANCH   9  30
ATOM     30  O   UNL d   1     -54.817-102.167 -40.846  0.00  0.00    -0.273 OA
BRANCH  30  31
ATOM     31  C   UNL d   1     -54.913-102.222 -40.049  0.00  0.00     0.300 C 
ATOM     32  O   UNL d   1     -54.714-101.773 -39.671  0.00  0.00    -0.259 OA
ATOM     33  C   UNL d   1     -55.280-102.880 -39.716  0.00  0.00     0.074 C 
ENDBRANCH  30  31
ENDBRANCH   9  30
TORSDOF 11
ENDMDL
MODEL 2
REMARK VINA RESULT:     128.2      1.374      2.638
REMARK  11 active torsions:
REMARK  status: ('A' for Active; 'I' for Inactive)
REMARK    1  A    between atoms: C_4  and  C_1 
REMARK    2  A    between atoms: C_10  and  C_2 
REMARK    3  A    between atoms: C_16  and  C_9 
REMARK    4  A    between atoms: O_24  and  C_10 
REMARK    5  A    between atoms: O_18  and  C_14 
REMARK    6  A    between atoms: O_25  and  C_16 
REMARK    7  A    between atoms: C_26  and  C_17 
REMARK    8  A    between atoms: C_19  and  O_18 
REMARK    9  A    between atoms: C_29  and  O_24 
REMARK   10  A    between atoms: C_28  and  O_25 
REMARK   11  A    between atoms: C_30  and  C_26 
ROOT
ATOM      1  C   UNL d   1     -56.015-101.137 -42.763  0.00  0.00     0.090 A 
ATOM      2  C   UNL d   1     -56.835-101.143 -42.668  0.00  0.00     0.168 A 
ATOM      3  C   UNL d   1     -55.531-101.480 -42.181  0.00  0.00     0.201 A 
ATOM      4  C   UNL d   1     -55.865-101.830 -41.505  0.00  0.00     0.062 A 
ATOM      5  O   UNL d   1     -57.169-101.493 -41.992  0.00  0.00    -0.301 OA
ATOM      6  C   UNL d   1     -56.684-101.837 -41.410  0.00  0.00     0.105 A 
ATOM      7  C   UNL d   1     -55.382-102.165 -40.939  0.00  0.00     0.007 A 
ATOM      8  C   UNL d   1     -57.020-102.178 -40.750  0.00  0.00     0.050 A 
ATOM      9  C   UNL d   1     -56.535-102.522 -40.169  0.00  0.00     0.105 A 
ATOM     10  C   UNL d   1     -55.716-102.515 -40.263  0.00  0.00     0.023 A 
ATOM     11  O   UNL d   1     -54.711-101.474 -42.276  0.00  0.00    -0.286 OA
ENDROOT
BRANCH   1  12
ATOM     12  C   UNL d   1     -55.681-100.787 -43.438  0.00  0.00     0.105 A 
ATOM     13  O   UNL d   1     -56.138-100.419 -44.019  0.00  0.00    -0.302 OA
ATOM     14  C   UNL d   1     -55.630-100.144 -44.590  0.00  0.00     0.163 A 
ATOM     15  C   UNL d   1     -54.867-100.332 -44.378  0.00  0.00     0.032 A 
ATOM     16  C   UNL d   1     -54.889-100.742 -43.645  0.00  0.00     0.027 A 
BRANCH  14  17
ATOM     17  C   UNL d   1     -55.848 -99.728 -45.292  0.00  0.00     0.323 C 
ATOM     18  O   UNL d   1     -55.504 -99.958 -46.033  0.00  0.00    -0.257 OA
BRANCH  17  19
ATOM     19  O   UNL d   1     -56.382 -99.112 -45.275  0.00  0.00    -0.270 OA
BRANCH  19  20
ATOM     20  C   UNL d   1     -57.194 -99.239 -45.222  0.00  0.00     0.126 C 
ATOM     21  C   UNL d   1     -57.623 -99.462 -45.871  0.00  0.00     0.029 C 
ENDBRANCH  19  20
ENDBRANCH  17  19
ENDBRANCH  14  17
ENDBRANCH   1  12
BRANCH   2  22
ATOM     22  C   UNL d   1     -57.342-100.792 -43.261  0.00  0.00     0.323 C 
ATOM     23  O   UNL d   1     -57.424-101.160 -43.985  0.00  0.00    -0.257 OA
BRANCH  22  24
ATOM     24  O   UNL d   1     -57.743-100.088 -43.103  0.00  0.00    -0.270 OA
BRANCH  24  25
ATOM     25  C   UNL d   1     -58.485 -99.950 -43.453  0.00  0.00     0.126 C 
ATOM     26  C   UNL d   1     -59.155 -99.878 -42.977  0.00  0.00     0.029 C 
ENDBRANCH  24  25
ENDBRANCH  22  24
ENDBRANCH   2  22
BRANCH  10  27
ATOM     27  C   UNL d   1     -55.212-102.867 -39.670  0.00  0.00     0.002 C 
BRANCH  27  28
ATOM     28  C   UNL d   1     -54.831-102.368 -39.133  0.00  0.00     0.000 C 
ATOM     29  C   UNL d   1     -55.284-102.058 -38.498  0.00  0.00     0.000 C 
ENDBRANCH  27  28
ENDBRANCH  10  27
BRANCH   9  30
ATOM     30  O   UNL d   1     -56.889-102.880 -39.476  0.00  0.00    -0.273 OA
BRANCH  30  31
ATOM     31  C   UNL d   1     -57.598-102.607 -39.213  0.00  0.00     0.300 C 
ATOM     32  O   UNL d   1     -58.101-102.624 -39.573  0.00  0.00    -0.259 OA
ATOM     33  C   UNL d   1     -57.671-102.298 -38.453  0.00  0.00     0.074 C 
ENDBRANCH  30  31
ENDBRANCH   9  30
TORSDOF 11
ENDMDL
