MODEL 1
REMARK VINA RESULT:      34.3      0.000      0.000
REMARK  5 active torsions:
REMARK  status: ('A' for Active; 'I' for Inactive)
REMARK    1  A    between atoms: S_12  and  C_4 
REMARK    2  A    between atoms: C_7  and  C_5 
REMARK    3  A    between atoms: C_20  and  S_12 
REMARK    4  A    between atoms: C_14  and  C_20 
REMARK    5  A    between atoms: O_21  and  C_14 
ROOT
ATOM      1  C   UNL d   1      13.962  13.213  -2.158  0.00  0.00     0.095 A 
ATOM      2  C   UNL d   1      14.800  14.068  -1.356  0.00  0.00     0.108 A 
ATOM      3  N   UNL d   1      14.298  14.538  -2.622  0.00  0.00    -0.217 NA
ATOM      4  C   UNL d   1      13.906  13.810  -2.736  0.00  0.00     0.122 A 
ATOM      5  C   UNL d   1      14.410  13.346  -1.470  0.00  0.00     0.047 A 
ATOM      6  C   UNL d   1      14.743  14.665  -1.933  0.00  0.00     0.194 A 
ATOM      7  C   UNL d   1      15.230  14.183  -0.684  0.00  0.00     0.104 C 
ATOM      8  C   UNL d   1      13.576  12.490  -2.264  0.00  0.00     0.103 C 
ATOM      9  N   UNL d   1      13.197  11.779  -2.368  0.00  0.00    -0.191 NA
ATOM     10  N   UNL d   1      15.656  14.303  -0.025  0.00  0.00    -0.191 NA
ATOM     11  N   UNL d   1      15.135  15.392  -1.819  0.00  0.00    -0.126 N 
ENDROOT
BRANCH   5  12
ATOM     12  C   UNL d   1      14.465  12.766  -0.910  0.00  0.00     0.102 A 
ATOM     13  O   UNL d   1      15.155  12.457  -0.620  0.00  0.00    -0.305 OA
ATOM     14  C   UNL d   1      14.951  11.871  -0.050  0.00  0.00     0.123 A 
ATOM     15  C   UNL d   1      14.162  11.849  -0.017  0.00  0.00     0.029 A 
ATOM     16  C   UNL d   1      13.845  12.381  -0.527  0.00  0.00     0.027 A 
ENDBRANCH   5  12
BRANCH   4  17
ATOM     17  S   UNL d   1      13.461  13.684  -3.423  0.00  0.00    -0.061 SA
BRANCH  17  18
ATOM     18  C   UNL d   1      13.789  13.336  -4.061  0.00  0.00     0.105 C 
BRANCH  18  19
ATOM     19  C   UNL d   1      13.335  13.084  -4.657  0.00  0.00     0.303 C 
ATOM     20  O   UNL d   1      12.913  13.367  -4.877  0.00  0.00    -0.259 OA
BRANCH  19  21
ATOM     21  O   UNL d   1      13.475  12.365  -4.988  0.00  0.00    -0.295 OA
ATOM     22  C   UNL d   1      12.953  12.053  -5.508  0.00  0.00     0.185 C 
ENDBRANCH  19  21
ENDBRANCH  18  19
ENDBRANCH  17  18
ENDBRANCH   4  17
TORSDOF 5
ENDMDL
MODEL 2
REMARK VINA RESULT:      36.1      1.456      4.150
REMARK  5 active torsions:
REMARK  status: ('A' for Active; 'I' for Inactive)
REMARK    1  A    between atoms: S_12  and  C_4 
REMARK    2  A    between atoms: C_7  and  C_5 
REMARK    3  A    between atoms: C_20  and  S_12 
REMARK    4  A    between atoms: C_14  and  C_20 
REMARK    5  A    between atoms: O_21  and  C_14 
ROOT
ATOM      1  C   UNL d   1      13.890  13.686  -2.827  0.00  0.00     0.095 A 
ATOM      2  C   UNL d   1      13.282  13.161  -4.023  0.00  0.00     0.108 A 
ATOM      3  N   UNL d   1      13.476  12.305  -2.882  0.00  0.00    -0.217 NA
ATOM      4  C   UNL d   1      13.818  12.940  -2.463  0.00  0.00     0.122 A 
ATOM      5  C   UNL d   1      13.621  13.792  -3.607  0.00  0.00     0.047 A 
ATOM      6  C   UNL d   1      13.209  12.416  -3.659  0.00  0.00     0.194 A 
ATOM      7  C   UNL d   1      13.025  13.278  -4.779  0.00  0.00     0.104 C 
ATOM      8  C   UNL d   1      14.228  14.320  -2.419  0.00  0.00     0.103 C 
ATOM      9  N   UNL d   1      14.559  14.944  -2.018  0.00  0.00    -0.191 NA
ATOM     10  N   UNL d   1      12.770  13.386  -5.523  0.00  0.00    -0.191 NA
ATOM     11  N   UNL d   1      12.868  11.780  -4.078  0.00  0.00    -0.126 N 
ENDROOT
BRANCH   5  12
ATOM     12  C   UNL d   1      13.691  14.515  -3.960  0.00  0.00     0.102 A 
ATOM     13  O   UNL d   1      13.170  15.130  -3.879  0.00  0.00    -0.305 OA
ATOM     14  C   UNL d   1      13.461  15.771  -4.342  0.00  0.00     0.123 A 
ATOM     15  C   UNL d   1      14.132  15.525  -4.678  0.00  0.00     0.029 A 
ATOM     16  C   UNL d   1      14.292  14.770  -4.463  0.00  0.00     0.027 A 
ENDBRANCH   5  12
BRANCH   4  17
ATOM     17  S   UNL d   1      14.084  12.828  -1.687  0.00  0.00    -0.061 SA
BRANCH  17  18
ATOM     18  C   UNL d   1      14.347  12.115  -1.446  0.00  0.00     0.105 C 
BRANCH  18  19
ATOM     19  C   UNL d   1      14.600  12.012  -0.705  0.00  0.00     0.303 C 
ATOM     20  O   UNL d   1      14.288  11.832  -0.284  0.00  0.00    -0.259 OA
BRANCH  19  21
ATOM     21  O   UNL d   1      15.366  12.171  -0.518  0.00  0.00    -0.295 OA
ATOM     22  C   UNL d   1      15.541  12.768  -0.015  0.00  0.00     0.185 C 
ENDBRANCH  19  21
ENDBRANCH  18  19
ENDBRANCH  17  18
ENDBRANCH   4  17
TORSDOF 5
ENDMDL
