MODEL 1
REMARK VINA RESULT:     133.3      0.000      0.000
REMARK  7 active torsions:
REMARK  status: ('A' for Active; 'I' for Inactive)
REMARK    1  A    between atoms: C_4  and  C_1 
REMARK    2  A    between atoms: N_5  and  C_2 
REMARK    3  A    between atoms: C_15  and  C_4 
REMARK    4  A    between atoms: C_9  and  C_13 
REMARK    5  A    between atoms: O_21  and  C_9 
REMARK    6  A    between atoms: C_25  and  C_20 
REMARK    7  A    between atoms: C_26  and  O_21 
ROOT
ATOM      1  C   UNL d   1      60.347  49.180  49.937  0.00  0.00     0.074 A 
ATOM      2  C   UNL d   1      59.893  49.214  50.632  0.00  0.00     0.070 A 
ATOM      3  C   UNL d   1      59.088  49.378  50.592  0.00  0.00     0.034 A 
ATOM      4  C   UNL d   1      59.987  49.310  49.206  0.00  0.00     0.103 A 
ATOM      5  N   UNL d   1      59.174  49.475  49.170  0.00  0.00    -0.244 NA
ATOM      6  C   UNL d   1      58.728  49.509  49.861  0.00  0.00     0.083 A 
ATOM      7  C   UNL d   1      58.641  49.411  51.283  0.00  0.00     0.003 A 
ATOM      8  C   UNL d   1      57.922  49.673  49.822  0.00  0.00     0.019 A 
ATOM      9  C   UNL d   1      57.831  49.576  51.245  0.00  0.00     0.000 A 
ATOM     10  C   UNL d   1      57.472  49.707  50.514  0.00  0.00     0.002 A 
ENDROOT
BRANCH   2  11
ATOM     11  N   UNL d   1      60.258  49.081  51.374  0.00  0.00    -0.304 N 
ATOM     12  C   UNL d   1      60.254  48.328  51.707  0.00  0.00     0.080 A 
ATOM     13  C   UNL d   1      60.613  48.197  52.438  0.00  0.00     0.024 A 
ATOM     14  C   UNL d   1      60.977  48.820  52.835  0.00  0.00     0.067 A 
ATOM     15  C   UNL d   1      60.983  49.577  52.503  0.00  0.00     0.024 A 
ATOM     16  C   UNL d   1      60.624  49.708  51.772  0.00  0.00     0.080 A 
BRANCH  14  17
ATOM     17  C   UNL d   1      61.335  48.681  53.566  0.00  0.00     0.300 C 
ATOM     18  O   UNL d   1      61.592  49.310  54.035  0.00  0.00    -0.259 OA
BRANCH  17  19
ATOM     19  O   UNL d   1      61.435  47.905  53.827  0.00  0.00    -0.271 OA
BRANCH  19  20
ATOM     20  C   UNL d   1      61.729  47.323  53.322  0.00  0.00     0.126 C 
ATOM     21  C   UNL d   1      62.516  47.074  53.371  0.00  0.00     0.029 C 
ENDBRANCH  19  20
ENDBRANCH  17  19
ENDBRANCH  14  17
ENDBRANCH   2  11
BRANCH   1  22
ATOM     22  C   UNL d   1      61.157  49.015  49.975  0.00  0.00     0.198 C 
ATOM     23  O   UNL d   1      61.696  49.607  50.173  0.00  0.00    -0.286 OA
BRANCH  22  24
ATOM     24  C   UNL d   1      61.429  48.255  49.814  0.00  0.00     0.039 A 
ATOM     25  C   UNL d   1      60.890  47.639  49.709  0.00  0.00     0.003 A 
ATOM     26  C   UNL d   1      61.164  46.879  49.549  0.00  0.00     0.000 A 
ATOM     27  C   UNL d   1      61.976  46.735  49.494  0.00  0.00     0.000 A 
ATOM     28  C   UNL d   1      62.519  47.348  49.598  0.00  0.00     0.000 A 
ATOM     29  C   UNL d   1      62.239  48.113  49.760  0.00  0.00     0.003 A 
ENDBRANCH  22  24
ENDBRANCH   1  22
BRANCH   9  30
ATOM     30  C   UNL d   1      57.381  49.610  51.944  0.00  0.00     0.000 C 
ATOM     31  C   UNL d   1      57.723  49.384  52.660  0.00  0.00     0.000 C 
ENDBRANCH   9  30
TORSDOF 7
ENDMDL
