MODEL 1
REMARK VINA RESULT:      -4.6      0.000      0.000
REMARK  7 active torsions:
REMARK  status: ('A' for Active; 'I' for Inactive)
REMARK    1  A    between atoms: C_2  and  S_1 
REMARK    2  A    between atoms: N_3  and  S_1 
REMARK    3  A    between atoms: C_15  and  N_3 
REMARK    4  A    between atoms: C_6  and  C_16 
REMARK       I    between atoms: N_7  and  C_6 
REMARK    5  A    between atoms: C_8  and  N_7 
REMARK    6  A    between atoms: C_17  and  C_15 
REMARK    7  A    between atoms: C_16  and  C_17 
ROOT
ATOM      1  N   UNL d   1      58.301   0.317  30.464  0.00  0.00    -0.228 N 
ATOM      2  C   UNL d   1      58.967   0.526  30.914  0.00  0.00     0.111 C 
ENDROOT
BRANCH   1   3
ATOM      3  S   UNL d   1      58.378   0.183  29.653  0.00  0.00     0.271 S 
ATOM      4  O   UNL d   1      57.844   0.528  29.131  0.00  0.00    -0.200 OA
ATOM      5  O   UNL d   1      58.920  -0.166  30.173  0.00  0.00    -0.200 OA
BRANCH   3   6
ATOM      6  C   UNL d   1      58.996  -0.299  29.371  0.00  0.00     0.104 A 
ATOM      7  C   UNL d   1      58.832  -1.085  29.182  0.00  0.00     0.013 A 
ATOM      8  C   UNL d   1      59.444  -1.563  28.902  0.00  0.00     0.001 A 
ATOM      9  C   UNL d   1      60.207  -1.257  28.813  0.00  0.00     0.000 A 
ATOM     10  C   UNL d   1      60.357  -0.469  29.006  0.00  0.00     0.001 A 
ATOM     11  C   UNL d   1      60.814  -1.741  28.533  0.00  0.00     0.000 C 
ATOM     12  C   UNL d   1      59.748   0.011  29.286  0.00  0.00     0.013 A 
ENDBRANCH   3   6
ENDBRANCH   1   3
BRANCH   1  13
ATOM     13  C   UNL d   1      57.565   0.245  30.830  0.00  0.00     0.092 C 
BRANCH  13  14
ATOM     14  C   UNL d   1      57.464   0.497  31.607  0.00  0.00     0.025 C 
BRANCH  14  15
ATOM     15  C   UNL d   1      56.711   0.682  31.887  0.00  0.00     0.064 C 
BRANCH  15  16
ATOM     16  C   UNL d   1      56.447   0.369  32.602  0.00  0.00     0.275 C 
ATOM     17  N   UNL d   1      55.643   0.234  32.723  0.00  0.00    -0.238 NA
ATOM     18  O   UNL d   1      56.981   0.192  33.197  0.00  0.00    -0.266 OA
BRANCH  17  19
ATOM     19  C   UNL d   1      55.373  -0.080  33.439  0.00  0.00     0.088 C 
ATOM     20  C   UNL d   1      55.085   0.420  34.030  0.00  0.00     0.025 C 
ATOM     21  C   UNL d   1      55.393  -0.894  33.557  0.00  0.00     0.025 C 
ATOM     22  C   UNL d   1      55.440   0.680  33.121  0.00  0.00     0.025 C 
ENDBRANCH  17  19
ENDBRANCH  15  16
ENDBRANCH  14  15
ENDBRANCH  13  14
ENDBRANCH   1  13
TORSDOF 7
ENDMDL
MODEL 2
REMARK VINA RESULT:      -3.8      1.149      5.254
REMARK  7 active torsions:
REMARK  status: ('A' for Active; 'I' for Inactive)
REMARK    1  A    between atoms: C_2  and  S_1 
REMARK    2  A    between atoms: N_3  and  S_1 
REMARK    3  A    between atoms: C_15  and  N_3 
REMARK    4  A    between atoms: C_6  and  C_16 
REMARK       I    between atoms: N_7  and  C_6 
REMARK    5  A    between atoms: C_8  and  N_7 
REMARK    6  A    between atoms: C_17  and  C_15 
REMARK    7  A    between atoms: C_16  and  C_17 
ROOT
ATOM      1  N   UNL d   1      56.991   0.150  32.102  0.00  0.00    -0.228 N 
ATOM      2  C   UNL d   1      56.611  -0.550  31.871  0.00  0.00     0.111 C 
ENDROOT
BRANCH   1   3
ATOM      3  S   UNL d   1      57.043   0.345  32.903  0.00  0.00     0.271 S 
ATOM      4  O   UNL d   1      57.782   0.455  33.248  0.00  0.00    -0.200 OA
ATOM      5  O   UNL d   1      56.296   0.236  32.563  0.00  0.00    -0.200 OA
BRANCH   3   6
ATOM      6  C   UNL d   1      56.348   0.428  33.355  0.00  0.00     0.104 A 
ATOM      7  C   UNL d   1      56.416   0.599  34.160  0.00  0.00     0.013 A 
ATOM      8  C   UNL d   1      55.727   0.682  34.608  0.00  0.00     0.001 A 
ATOM      9  C   UNL d   1      54.985   0.594  34.254  0.00  0.00     0.000 A 
ATOM     10  C   UNL d   1      54.932   0.423  33.449  0.00  0.00     0.001 A 
ATOM     11  C   UNL d   1      54.301   0.678  34.708  0.00  0.00     0.000 C 
ATOM     12  C   UNL d   1      55.618   0.340  32.998  0.00  0.00     0.013 A 
ENDBRANCH   3   6
ENDBRANCH   1   3
BRANCH   1  13
ATOM     13  C   UNL d   1      57.315   0.649  31.531  0.00  0.00     0.092 C 
BRANCH  13  14
ATOM     14  C   UNL d   1      57.483   0.360  30.779  0.00  0.00     0.025 C 
BRANCH  14  15
ATOM     15  C   UNL d   1      58.130   0.652  30.359  0.00  0.00     0.064 C 
BRANCH  15  16
ATOM     16  C   UNL d   1      58.423   0.237  29.711  0.00  0.00     0.275 C 
ATOM     17  N   UNL d   1      59.205  -0.025  29.707  0.00  0.00    -0.238 NA
ATOM     18  O   UNL d   1      57.942   0.082  29.067  0.00  0.00    -0.266 OA
BRANCH  17  19
ATOM     19  C   UNL d   1      59.506  -0.443  29.060  0.00  0.00     0.088 C 
ATOM     20  C   UNL d   1      60.009  -0.070  28.522  0.00  0.00     0.025 C 
ATOM     21  C   UNL d   1      59.299  -1.233  28.957  0.00  0.00     0.025 C 
ATOM     22  C   UNL d   1      59.581   0.329  29.344  0.00  0.00     0.025 C 
ENDBRANCH  17  19
ENDBRANCH  15  16
ENDBRANCH  14  15
ENDBRANCH  13  14
ENDBRANCH   1  13
TORSDOF 7
ENDMDL
