MODEL 1
REMARK VINA RESULT:      62.1      0.000      0.000
REMARK  4 active torsions:
REMARK  status: ('A' for Active; 'I' for Inactive)
REMARK    1  A    between atoms: C_6  and  S_1 
REMARK    2  A    between atoms: N_12  and  S_1 
REMARK    3  A    between atoms: N_4  and  C_2 
REMARK       I    between atoms: C_7  and  N_4 
REMARK    4  A    between atoms: C_10  and  C_7 
ROOT
ATOM      1  C   UNL d   1     -50.619  26.192  33.542  0.00  0.00     0.197 A 
ATOM      2  N   UNL d   1     -50.917  26.932  33.332  0.00  0.00    -0.221 NA
ATOM      3  S   UNL d   1     -49.920  26.305  33.966  0.00  0.00    -0.047 SA
ATOM      4  C   UNL d   1     -49.188  28.382  34.334  0.00  0.00     0.105 A 
ATOM      5  C   UNL d   1     -49.785  27.122  34.017  0.00  0.00     0.051 A 
ATOM      6  C   UNL d   1     -50.397  27.513  33.627  0.00  0.00     0.090 A 
ATOM      7  C   UNL d   1     -49.178  27.558  34.372  0.00  0.00     0.021 A 
ATOM      8  C   UNL d   1     -49.809  28.773  33.939  0.00  0.00     0.015 A 
ATOM      9  C   UNL d   1     -50.407  28.338  33.589  0.00  0.00     0.020 A 
ENDROOT
BRANCH   1  10
ATOM     10  N   UNL d   1     -50.962  25.464  33.360  0.00  0.00    -0.182 NA
ATOM     11  C   UNL d   1     -51.552  25.135  33.811  0.00  0.00     0.287 C 
ATOM     12  O   UNL d   1     -51.828  25.530  34.475  0.00  0.00    -0.265 OA
BRANCH  11  13
ATOM     13  C   UNL d   1     -51.878  24.417  33.616  0.00  0.00     0.087 A 
ATOM     14  S   UNL d   1     -52.678  24.429  33.496  0.00  0.00    -0.082 SA
ATOM     15  C   UNL d   1     -52.935  23.682  33.306  0.00  0.00     0.036 A 
ATOM     16  C   UNL d   1     -52.272  23.188  33.307  0.00  0.00     0.008 A 
ATOM     17  C   UNL d   1     -51.619  23.636  33.498  0.00  0.00     0.012 A 
ENDBRANCH  11  13
ENDBRANCH   1  10
BRANCH   4  18
ATOM     18  S   UNL d   1     -48.590  28.826  34.683  0.00  0.00     0.272 S 
ATOM     19  O   UNL d   1     -48.360  27.955  35.142  0.00  0.00    -0.200 OA
ATOM     20  O   UNL d   1     -48.756  29.713  34.271  0.00  0.00    -0.200 OA
BRANCH  18  21
ATOM     21  N   UNL d   1     -47.945  29.089  35.126  0.00  0.00    -0.226 N 
ATOM     22  C   UNL d   1     -47.217  29.218  34.753  0.00  0.00     0.111 C 
ATOM     23  C   UNL d   1     -48.025  29.223  35.937  0.00  0.00     0.111 C 
ENDBRANCH  18  21
ENDBRANCH   4  18
TORSDOF 4
ENDMDL
MODEL 2
REMARK VINA RESULT:      64.2      1.810      3.109
REMARK  4 active torsions:
REMARK  status: ('A' for Active; 'I' for Inactive)
REMARK    1  A    between atoms: C_6  and  S_1 
REMARK    2  A    between atoms: N_12  and  S_1 
REMARK    3  A    between atoms: N_4  and  C_2 
REMARK       I    between atoms: C_7  and  N_4 
REMARK    4  A    between atoms: C_10  and  C_7 
ROOT
ATOM      1  C   UNL d   1     -48.815  28.150  34.648  0.00  0.00     0.197 A 
ATOM      2  N   UNL d   1     -48.397  28.269  35.349  0.00  0.00    -0.221 NA
ATOM      3  S   UNL d   1     -48.810  28.855  34.220  0.00  0.00    -0.047 SA
ATOM      4  C   UNL d   1     -47.760  30.636  35.060  0.00  0.00     0.105 A 
ATOM      5  C   UNL d   1     -48.385  29.415  34.660  0.00  0.00     0.051 A 
ATOM      6  C   UNL d   1     -48.128  29.058  35.358  0.00  0.00     0.090 A 
ATOM      7  C   UNL d   1     -48.200  30.207  34.510  0.00  0.00     0.021 A 
ATOM      8  C   UNL d   1     -47.502  30.272  35.763  0.00  0.00     0.015 A 
ATOM      9  C   UNL d   1     -47.687  29.488  35.908  0.00  0.00     0.020 A 
ENDROOT
BRANCH   1  10
ATOM     10  N   UNL d   1     -49.177  27.445  34.416  0.00  0.00    -0.182 NA
ATOM     11  C   UNL d   1     -49.803  27.426  33.900  0.00  0.00     0.287 C 
ATOM     12  O   UNL d   1     -50.098  28.125  33.589  0.00  0.00    -0.265 OA
BRANCH  11  13
ATOM     13  C   UNL d   1     -50.146  26.722  33.682  0.00  0.00     0.087 A 
ATOM     14  S   UNL d   1     -50.940  26.764  33.533  0.00  0.00    -0.082 SA
ATOM     15  C   UNL d   1     -51.216  26.028  33.322  0.00  0.00     0.036 A 
ATOM     16  C   UNL d   1     -50.571  25.512  33.342  0.00  0.00     0.008 A 
ATOM     17  C   UNL d   1     -49.910  25.934  33.563  0.00  0.00     0.012 A 
ENDBRANCH  11  13
ENDBRANCH   1  10
BRANCH   4  18
ATOM     18  S   UNL d   1     -47.569  31.425  34.922  0.00  0.00     0.272 S 
ATOM     19  O   UNL d   1     -48.135  31.303  34.093  0.00  0.00    -0.200 OA
ATOM     20  O   UNL d   1     -47.003  31.618  35.713  0.00  0.00    -0.200 OA
BRANCH  18  21
ATOM     21  N   UNL d   1     -47.497  32.187  34.612  0.00  0.00    -0.226 N 
ATOM     22  C   UNL d   1     -48.171  32.659  34.527  0.00  0.00     0.111 C 
ATOM     23  C   UNL d   1     -46.756  32.476  34.390  0.00  0.00     0.111 C 
ENDBRANCH  18  21
ENDBRANCH   4  18
TORSDOF 4
ENDMDL
