MODEL 1
REMARK VINA RESULT:      -8.4      0.000      0.000
REMARK  2 active torsions:
REMARK  status: ('A' for Active; 'I' for Inactive)
REMARK    1  A    between atoms: C_12  and  C_9 
REMARK    2  A    between atoms: N_15  and  C_12 
ROOT
ATOM      1  C   UNL d   1      53.416  32.926  54.013  0.00  0.00     0.176 A 
ATOM      2  C   UNL d   1      52.882  33.284  53.495  0.00  0.00     0.174 A 
ATOM      3  N   UNL d   1      53.799  33.388  54.601  0.00  0.00    -0.240 N 
ATOM      4  N   UNL d   1      53.105  34.550  54.140  0.00  0.00    -0.223 N 
ATOM      5  C   UNL d   1      53.648  34.187  54.666  0.00  0.00     0.343 A 
ATOM      6  C   UNL d   1      52.723  34.109  53.559  0.00  0.00     0.289 A 
ATOM      7  N   UNL d   1      53.582  32.126  53.965  0.00  0.00    -0.206 NA
ATOM      8  N   UNL d   1      52.662  32.022  52.857  0.00  0.00    -0.217 NA
ATOM      9  C   UNL d   1      53.206  31.670  53.388  0.00  0.00     0.182 A 
ATOM     10  O   UNL d   1      54.027  34.644  55.248  0.00  0.00    -0.245 OA
ATOM     11  O   UNL d   1      52.186  34.468  53.039  0.00  0.00    -0.265 OA
ATOM     12  C   UNL d   1      54.338  33.027  55.124  0.00  0.00     0.105 C 
ATOM     13  C   UNL d   1      52.943  35.409  54.209  0.00  0.00     0.107 C 
ENDROOT
BRANCH   9  14
ATOM     14  C   UNL d   1      53.493  30.916  53.496  0.00  0.00     0.120 C 
BRANCH  14  15
ATOM     15  N   UNL d   1      53.207  30.182  53.355  0.00  0.00    -0.297 N 
ATOM     16  C   UNL d   1      52.904  29.993  52.632  0.00  0.00     0.100 C 
ATOM     17  C   UNL d   1      53.224  29.629  53.941  0.00  0.00     0.100 C 
ENDBRANCH  14  15
ENDBRANCH   9  14
TORSDOF 2
ENDMDL
MODEL 2
REMARK VINA RESULT:      -7.3      1.707      3.157
REMARK  2 active torsions:
REMARK  status: ('A' for Active; 'I' for Inactive)
REMARK    1  A    between atoms: C_12  and  C_9 
REMARK    2  A    between atoms: N_15  and  C_12 
ROOT
ATOM      1  C   UNL d   1      52.748  33.466  53.697  0.00  0.00     0.176 A 
ATOM      2  C   UNL d   1      52.955  34.148  54.112  0.00  0.00     0.174 A 
ATOM      3  N   UNL d   1      53.236  32.784  53.746  0.00  0.00    -0.240 N 
ATOM      4  N   UNL d   1      54.124  33.483  54.623  0.00  0.00    -0.223 N 
ATOM      5  C   UNL d   1      53.914  32.790  54.201  0.00  0.00     0.343 A 
ATOM      6  C   UNL d   1      53.654  34.159  54.583  0.00  0.00     0.289 A 
ATOM      7  N   UNL d   1      52.073  33.439  53.234  0.00  0.00    -0.206 NA
ATOM      8  N   UNL d   1      51.792  34.807  53.601  0.00  0.00    -0.217 NA
ATOM      9  C   UNL d   1      51.592  34.108  53.184  0.00  0.00     0.182 A 
ATOM     10  O   UNL d   1      54.397  32.115  54.251  0.00  0.00    -0.245 OA
ATOM     11  O   UNL d   1      53.862  34.844  55.000  0.00  0.00    -0.265 OA
ATOM     12  C   UNL d   1      53.027  32.095  53.327  0.00  0.00     0.105 C 
ATOM     13  C   UNL d   1      54.851  33.489  55.112  0.00  0.00     0.107 C 
ENDROOT
BRANCH   9  14
ATOM     14  C   UNL d   1      50.983  33.893  52.689  0.00  0.00     0.120 C 
BRANCH  14  15
ATOM     15  N   UNL d   1      50.359  34.276  52.367  0.00  0.00    -0.297 N 
ATOM     16  C   UNL d   1      49.792  34.602  52.840  0.00  0.00     0.100 C 
ATOM     17  C   UNL d   1      50.298  34.337  51.566  0.00  0.00     0.100 C 
ENDBRANCH  14  15
ENDBRANCH   9  14
TORSDOF 2
ENDMDL
MODEL 3
REMARK VINA RESULT:      -7.2      1.785      3.073
REMARK  2 active torsions:
REMARK  status: ('A' for Active; 'I' for Inactive)
REMARK    1  A    between atoms: C_12  and  C_9 
REMARK    2  A    between atoms: N_15  and  C_12 
ROOT
ATOM      1  C   UNL d   1      52.710  34.053  53.873  0.00  0.00     0.176 A 
ATOM      2  C   UNL d   1      52.860  33.243  53.820  0.00  0.00     0.174 A 
ATOM      3  N   UNL d   1      53.197  34.536  54.360  0.00  0.00    -0.240 N 
ATOM      4  N   UNL d   1      53.967  33.388  54.727  0.00  0.00    -0.223 N 
ATOM      5  C   UNL d   1      53.815  34.211  54.781  0.00  0.00     0.343 A 
ATOM      6  C   UNL d   1      53.498  32.904  54.253  0.00  0.00     0.289 A 
ATOM      7  N   UNL d   1      52.094  34.399  53.459  0.00  0.00    -0.206 NA
ATOM      8  N   UNL d   1      51.757  33.103  52.918  0.00  0.00    -0.217 NA
ATOM      9  C   UNL d   1      51.616  33.927  52.980  0.00  0.00     0.182 A 
ATOM     10  O   UNL d   1      54.297  34.688  55.263  0.00  0.00    -0.245 OA
ATOM     11  O   UNL d   1      53.648  32.090  54.200  0.00  0.00    -0.265 OA
ATOM     12  C   UNL d   1      53.046  35.353  54.413  0.00  0.00     0.105 C 
ATOM     13  C   UNL d   1      54.632  33.039  55.179  0.00  0.00     0.107 C 
ENDROOT
BRANCH   9  14
ATOM     14  C   UNL d   1      51.071  34.438  52.658  0.00  0.00     0.120 C 
BRANCH  14  15
ATOM     15  N   UNL d   1      50.354  34.351  52.314  0.00  0.00    -0.297 N 
ATOM     16  C   UNL d   1      50.296  34.110  51.546  0.00  0.00     0.100 C 
ATOM     17  C   UNL d   1      49.687  34.505  52.738  0.00  0.00     0.100 C 
ENDBRANCH  14  15
ENDBRANCH   9  14
TORSDOF 2
ENDMDL
MODEL 4
REMARK VINA RESULT:      -6.0      1.438      3.584
REMARK  2 active torsions:
REMARK  status: ('A' for Active; 'I' for Inactive)
REMARK    1  A    between atoms: C_12  and  C_9 
REMARK    2  A    between atoms: N_15  and  C_12 
ROOT
ATOM      1  C   UNL d   1      53.239  32.660  53.927  0.00  0.00     0.176 A 
ATOM      2  C   UNL d   1      52.824  32.591  53.217  0.00  0.00     0.174 A 
ATOM      3  N   UNL d   1      53.567  31.975  54.287  0.00  0.00    -0.240 N 
ATOM      4  N   UNL d   1      53.059  31.171  53.218  0.00  0.00    -0.223 N 
ATOM      5  C   UNL d   1      53.480  31.242  53.940  0.00  0.00     0.343 A 
ATOM      6  C   UNL d   1      52.732  31.836  52.855  0.00  0.00     0.289 A 
ATOM      7  N   UNL d   1      53.338  33.387  54.292  0.00  0.00    -0.206 NA
ATOM      8  N   UNL d   1      52.593  34.003  53.219  0.00  0.00    -0.217 NA
ATOM      9  C   UNL d   1      53.015  34.061  53.941  0.00  0.00     0.182 A 
ATOM     10  O   UNL d   1      53.805  30.564  54.295  0.00  0.00    -0.245 OA
ATOM     11  O   UNL d   1      52.316  31.766  52.142  0.00  0.00    -0.265 OA
ATOM     12  C   UNL d   1      53.986  32.045  55.004  0.00  0.00     0.105 C 
ATOM     13  C   UNL d   1      52.966  30.384  52.846  0.00  0.00     0.107 C 
ENDROOT
BRANCH   9  14
ATOM     14  C   UNL d   1      53.214  34.673  54.439  0.00  0.00     0.120 C 
BRANCH  14  15
ATOM     15  N   UNL d   1      53.070  35.460  54.446  0.00  0.00    -0.297 N 
ATOM     16  C   UNL d   1      52.407  35.751  54.801  0.00  0.00     0.100 C 
ATOM     17  C   UNL d   1      53.593  35.963  54.096  0.00  0.00     0.100 C 
ENDBRANCH  14  15
ENDBRANCH   9  14
TORSDOF 2
ENDMDL
MODEL 5
REMARK VINA RESULT:      -5.7      1.622      3.077
REMARK  2 active torsions:
REMARK  status: ('A' for Active; 'I' for Inactive)
REMARK    1  A    between atoms: C_12  and  C_9 
REMARK    2  A    between atoms: N_15  and  C_12 
ROOT
ATOM      1  C   UNL d   1      52.758  33.557  53.629  0.00  0.00     0.176 A 
ATOM      2  C   UNL d   1      52.419  34.299  53.758  0.00  0.00     0.174 A 
ATOM      3  N   UNL d   1      52.396  33.022  53.091  0.00  0.00    -0.240 N 
ATOM      4  N   UNL d   1      51.369  33.981  52.827  0.00  0.00    -0.223 N 
ATOM      5  C   UNL d   1      51.713  33.228  52.696  0.00  0.00     0.343 A 
ATOM      6  C   UNL d   1      51.714  34.516  53.352  0.00  0.00     0.289 A 
ATOM      7  N   UNL d   1      53.443  33.330  54.015  0.00  0.00    -0.206 NA
ATOM      8  N   UNL d   1      53.465  34.611  54.683  0.00  0.00    -0.217 NA
ATOM      9  C   UNL d   1      53.800  33.855  54.544  0.00  0.00     0.182 A 
ATOM     10  O   UNL d   1      51.355  32.699  52.164  0.00  0.00    -0.245 OA
ATOM     11  O   UNL d   1      51.374  35.260  53.481  0.00  0.00    -0.265 OA
ATOM     12  C   UNL d   1      52.738  32.273  52.961  0.00  0.00     0.105 C 
ATOM     13  C   UNL d   1      50.636  34.203  52.402  0.00  0.00     0.107 C 
ENDROOT
BRANCH   9  14
ATOM     14  C   UNL d   1      54.455  33.460  54.822  0.00  0.00     0.120 C 
BRANCH  14  15
ATOM     15  N   UNL d   1      55.106  33.674  55.234  0.00  0.00    -0.297 N 
ATOM     16  C   UNL d   1      55.769  33.924  54.848  0.00  0.00     0.100 C 
ATOM     17  C   UNL d   1      55.099  33.640  56.039  0.00  0.00     0.100 C 
ENDBRANCH  14  15
ENDBRANCH   9  14
TORSDOF 2
ENDMDL
MODEL 6
REMARK VINA RESULT:      -5.6      1.402      3.896
REMARK  2 active torsions:
REMARK  status: ('A' for Active; 'I' for Inactive)
REMARK    1  A    between atoms: C_12  and  C_9 
REMARK    2  A    between atoms: N_15  and  C_12 
ROOT
ATOM      1  C   UNL d   1      52.989  32.851  53.591  0.00  0.00     0.176 A 
ATOM      2  C   UNL d   1      53.474  32.498  54.157  0.00  0.00     0.174 A 
ATOM      3  N   UNL d   1      52.647  32.381  52.984  0.00  0.00    -0.240 N 
ATOM      4  N   UNL d   1      53.282  31.220  53.526  0.00  0.00    -0.223 N 
ATOM      5  C   UNL d   1      52.789  31.578  52.950  0.00  0.00     0.343 A 
ATOM      6  C   UNL d   1      53.624  31.670  54.127  0.00  0.00     0.289 A 
ATOM      7  N   UNL d   1      52.833  33.655  53.606  0.00  0.00    -0.206 NA
ATOM      8  N   UNL d   1      53.663  33.772  54.782  0.00  0.00    -0.217 NA
ATOM      9  C   UNL d   1      53.169  34.118  54.201  0.00  0.00     0.182 A 
ATOM     10  O   UNL d   1      52.451  31.112  52.351  0.00  0.00    -0.245 OA
ATOM     11  O   UNL d   1      54.111  31.315  54.696  0.00  0.00    -0.265 OA
ATOM     12  C   UNL d   1      52.157  32.737  52.411  0.00  0.00     0.105 C 
ATOM     13  C   UNL d   1      53.435  30.358  53.491  0.00  0.00     0.107 C 
ENDROOT
BRANCH   9  14
ATOM     14  C   UNL d   1      52.904  34.874  54.053  0.00  0.00     0.120 C 
BRANCH  14  15
ATOM     15  N   UNL d   1      52.983  35.579  54.423  0.00  0.00    -0.297 N 
ATOM     16  C   UNL d   1      53.637  36.034  54.297  0.00  0.00     0.100 C 
ATOM     17  C   UNL d   1      52.406  35.834  54.923  0.00  0.00     0.100 C 
ENDBRANCH  14  15
ENDBRANCH   9  14
TORSDOF 2
ENDMDL
MODEL 7
REMARK VINA RESULT:      -5.5      9.386      9.666
REMARK  2 active torsions:
REMARK  status: ('A' for Active; 'I' for Inactive)
REMARK    1  A    between atoms: C_12  and  C_9 
REMARK    2  A    between atoms: N_15  and  C_12 
ROOT
ATOM      1  C   UNL d   1      44.885  29.929  57.547  0.00  0.00     0.176 A 
ATOM      2  C   UNL d   1      44.720  29.876  56.740  0.00  0.00     0.174 A 
ATOM      3  N   UNL d   1      44.863  30.678  57.929  0.00  0.00    -0.240 N 
ATOM      4  N   UNL d   1      44.512  31.299  56.690  0.00  0.00    -0.223 N 
ATOM      5  C   UNL d   1      44.680  31.353  57.509  0.00  0.00     0.343 A 
ATOM      6  C   UNL d   1      44.530  30.571  56.303  0.00  0.00     0.289 A 
ATOM      7  N   UNL d   1      45.072  29.264  57.987  0.00  0.00    -0.206 NA
ATOM      8  N   UNL d   1      44.928  28.462  56.794  0.00  0.00    -0.217 NA
ATOM      9  C   UNL d   1      45.094  28.528  57.613  0.00  0.00     0.182 A 
ATOM     10  O   UNL d   1      44.658  32.093  57.886  0.00  0.00    -0.245 OA
ATOM     11  O   UNL d   1      44.363  30.518  55.493  0.00  0.00    -0.265 OA
ATOM     12  C   UNL d   1      45.031  30.731  58.743  0.00  0.00     0.105 C 
ATOM     13  C   UNL d   1      44.315  32.024  56.239  0.00  0.00     0.107 C 
ENDROOT
BRANCH   9  14
ATOM     14  C   UNL d   1      45.293  28.001  58.200  0.00  0.00     0.120 C 
BRANCH  14  15
ATOM     15  N   UNL d   1      45.402  27.209  58.229  0.00  0.00    -0.297 N 
ATOM     16  C   UNL d   1      45.868  26.841  57.683  0.00  0.00     0.100 C 
ATOM     17  C   UNL d   1      45.045  26.778  58.809  0.00  0.00     0.100 C 
ENDBRANCH  14  15
ENDBRANCH   9  14
TORSDOF 2
ENDMDL
