MODEL 1
REMARK VINA RESULT:      -2.2      0.000      0.000
REMARK  5 active torsions:
REMARK  status: ('A' for Active; 'I' for Inactive)
REMARK    1  A    between atoms: C_4  and  S_1 
REMARK    2  A    between atoms: N_12  and  S_1 
REMARK    3  A    between atoms: N_2  and  C_17 
REMARK    4  A    between atoms: C_16  and  N_12 
REMARK    5  A    between atoms: C_17  and  C_16 
ROOT
ATOM      1  N   UNL d   1     -41.888-122.598 -52.139  0.00  0.00    -0.155 NA
ENDROOT
BRANCH   1   2
ATOM      2  S   UNL d   1     -41.696-123.138 -52.730  0.00  0.00     0.285 S 
ATOM      3  O   UNL d   1     -41.483-123.816 -53.147  0.00  0.00    -0.198 OA
ATOM      4  O   UNL d   1     -41.647-123.557 -52.017  0.00  0.00    -0.198 OA
BRANCH   2   5
ATOM      5  C   UNL d   1     -41.750-122.700 -53.434  0.00  0.00     0.105 A 
ATOM      6  C   UNL d   1     -42.094-123.041 -54.102  0.00  0.00     0.012 A 
ATOM      7  C   UNL d   1     -42.150-122.613 -54.799  0.00  0.00     0.001 A 
ATOM      8  C   UNL d   1     -42.384-123.817 -54.074  0.00  0.00     0.001 C 
ATOM      9  C   UNL d   1     -41.861-121.835 -54.834  0.00  0.00     0.000 A 
ATOM     10  C   UNL d   1     -41.516-121.500 -54.156  0.00  0.00     0.001 A 
ATOM     11  C   UNL d   1     -41.911-121.394 -55.527  0.00  0.00     0.000 C 
ATOM     12  C   UNL d   1     -41.465-121.939 -53.460  0.00  0.00     0.012 A 
ATOM     13  C   UNL d   1     -41.123-121.603 -52.790  0.00  0.00     0.001 C 
ENDBRANCH   2   5
ENDBRANCH   1   2
BRANCH   1  14
ATOM     14  C   UNL d   1     -42.065-122.859 -51.376  0.00  0.00     0.131 C 
BRANCH  14  15
ATOM     15  C   UNL d   1     -42.151-122.314 -50.764  0.00  0.00     0.102 C 
BRANCH  15  16
ATOM     16  N   UNL d   1     -42.514-122.542 -50.059  0.00  0.00    -0.304 N 
ATOM     17  C   UNL d   1     -43.322-122.488 -49.889  0.00  0.00     0.064 A 
ATOM     18  C   UNL d   1     -43.443-122.775 -49.127  0.00  0.00     0.019 A 
ATOM     19  C   UNL d   1     -43.905-122.198 -50.395  0.00  0.00     0.019 C 
ATOM     20  C   UNL d   1     -42.714-123.008 -48.819  0.00  0.00     0.018 A 
ATOM     21  C   UNL d   1     -42.138-122.864 -49.393  0.00  0.00     0.064 A 
ATOM     22  C   UNL d   1     -42.489-123.331 -48.096  0.00  0.00     0.002 A 
ATOM     23  C   UNL d   1     -41.348-123.040 -49.250  0.00  0.00     0.018 A 
ATOM     24  C   UNL d   1     -41.123-123.363 -48.528  0.00  0.00     0.002 A 
ATOM     25  C   UNL d   1     -41.695-123.514 -47.937  0.00  0.00     0.000 A 
ENDBRANCH  15  16
ENDBRANCH  14  15
ENDBRANCH   1  14
TORSDOF 5
ENDMDL
MODEL 2
REMARK VINA RESULT:      -1.5      0.982      4.787
REMARK  5 active torsions:
REMARK  status: ('A' for Active; 'I' for Inactive)
REMARK    1  A    between atoms: C_4  and  S_1 
REMARK    2  A    between atoms: N_12  and  S_1 
REMARK    3  A    between atoms: N_2  and  C_17 
REMARK    4  A    between atoms: C_16  and  N_12 
REMARK    5  A    between atoms: C_17  and  C_16 
ROOT
ATOM      1  N   UNL d   1     -42.046-122.753 -51.216  0.00  0.00    -0.155 NA
ENDROOT
BRANCH   1   2
ATOM      2  S   UNL d   1     -42.540-123.254 -50.789  0.00  0.00     0.285 S 
ATOM      3  O   UNL d   1     -43.100-123.817 -50.566  0.00  0.00    -0.198 OA
ATOM      4  O   UNL d   1     -42.706-123.401 -51.587  0.00  0.00    -0.198 OA
BRANCH   2   5
ATOM      5  C   UNL d   1     -42.359-123.093 -49.994  0.00  0.00     0.105 A 
ATOM      6  C   UNL d   1     -41.655-123.374 -49.669  0.00  0.00     0.012 A 
ATOM      7  C   UNL d   1     -41.472-123.218 -48.886  0.00  0.00     0.001 A 
ATOM      8  C   UNL d   1     -41.128-123.817 -50.132  0.00  0.00     0.001 C 
ATOM      9  C   UNL d   1     -41.996-122.775 -48.416  0.00  0.00     0.000 A 
ATOM     10  C   UNL d   1     -42.703-122.496 -48.752  0.00  0.00     0.001 A 
ATOM     11  C   UNL d   1     -41.824-122.611 -47.628  0.00  0.00     0.000 C 
ATOM     12  C   UNL d   1     -42.878-122.659 -49.542  0.00  0.00     0.012 A 
ATOM     13  C   UNL d   1     -43.579-122.380 -49.870  0.00  0.00     0.001 C 
ENDBRANCH   2   5
ENDBRANCH   1   2
BRANCH   1  14
ATOM     14  C   UNL d   1     -41.930-122.871 -52.024  0.00  0.00     0.131 C 
BRANCH  14  15
ATOM     15  C   UNL d   1     -41.344-122.449 -52.422  0.00  0.00     0.102 C 
BRANCH  15  16
ATOM     16  N   UNL d   1     -41.493-122.149 -53.176  0.00  0.00    -0.304 N 
ATOM     17  C   UNL d   1     -41.669-121.362 -53.359  0.00  0.00     0.064 A 
ATOM     18  C   UNL d   1     -41.778-121.307 -54.174  0.00  0.00     0.019 A 
ATOM     19  C   UNL d   1     -41.726-120.741 -52.821  0.00  0.00     0.019 C 
ATOM     20  C   UNL d   1     -41.671-122.057 -54.500  0.00  0.00     0.018 A 
ATOM     21  C   UNL d   1     -41.494-122.580 -53.885  0.00  0.00     0.064 A 
ATOM     22  C   UNL d   1     -41.708-122.342 -55.272  0.00  0.00     0.002 A 
ATOM     23  C   UNL d   1     -41.357-123.376 -54.037  0.00  0.00     0.018 A 
ATOM     24  C   UNL d   1     -41.394-123.661 -54.807  0.00  0.00     0.002 A 
ATOM     25  C   UNL d   1     -41.571-123.144 -55.439  0.00  0.00     0.000 A 
ENDBRANCH  15  16
ENDBRANCH  14  15
ENDBRANCH   1  14
TORSDOF 5
ENDMDL
MODEL 3
REMARK VINA RESULT:      -1.1      1.088      1.663
REMARK  5 active torsions:
REMARK  status: ('A' for Active; 'I' for Inactive)
REMARK    1  A    between atoms: C_4  and  S_1 
REMARK    2  A    between atoms: N_12  and  S_1 
REMARK    3  A    between atoms: N_2  and  C_17 
REMARK    4  A    between atoms: C_16  and  N_12 
REMARK    5  A    between atoms: C_17  and  C_16 
ROOT
ATOM      1  N   UNL d   1     -42.167-122.305 -52.808  0.00  0.00    -0.155 NA
ENDROOT
BRANCH   1   2
ATOM      2  S   UNL d   1     -41.695-121.828 -53.286  0.00  0.00     0.285 S 
ATOM      3  O   UNL d   1     -41.123-121.306 -53.569  0.00  0.00    -0.198 OA
ATOM      4  O   UNL d   1     -41.403-121.737 -52.516  0.00  0.00    -0.198 OA
BRANCH   2   5
ATOM      5  C   UNL d   1     -42.004-121.933 -54.050  0.00  0.00     0.105 A 
ATOM      6  C   UNL d   1     -41.717-122.542 -54.527  0.00  0.00     0.012 A 
ATOM      7  C   UNL d   1     -42.018-122.649 -55.282  0.00  0.00     0.001 A 
ATOM      8  C   UNL d   1     -41.123-123.048 -54.248  0.00  0.00     0.001 C 
ATOM      9  C   UNL d   1     -42.613-122.145 -55.569  0.00  0.00     0.000 A 
ATOM     10  C   UNL d   1     -42.896-121.535 -55.081  0.00  0.00     0.001 A 
ATOM     11  C   UNL d   1     -42.924-122.243 -56.324  0.00  0.00     0.000 C 
ATOM     12  C   UNL d   1     -42.586-121.436 -54.323  0.00  0.00     0.012 A 
ATOM     13  C   UNL d   1     -42.870-120.829 -53.843  0.00  0.00     0.001 C 
ENDBRANCH   2   5
ENDBRANCH   1   2
BRANCH   1  14
ATOM     14  C   UNL d   1     -41.960-122.442 -52.021  0.00  0.00     0.131 C 
BRANCH  14  15
ATOM     15  C   UNL d   1     -42.518-122.749 -51.497  0.00  0.00     0.102 C 
BRANCH  15  16
ATOM     16  N   UNL d   1     -42.285-122.987 -50.742  0.00  0.00    -0.304 N 
ATOM     17  C   UNL d   1     -41.643-123.479 -50.565  0.00  0.00     0.064 A 
ATOM     18  C   UNL d   1     -41.611-123.573 -49.748  0.00  0.00     0.019 A 
ATOM     19  C   UNL d   1     -41.126-123.816 -51.111  0.00  0.00     0.019 C 
ATOM     20  C   UNL d   1     -42.229-123.142 -49.413  0.00  0.00     0.018 A 
ATOM     21  C   UNL d   1     -42.648-122.779 -50.026  0.00  0.00     0.064 A 
ATOM     22  C   UNL d   1     -42.474-123.026 -48.635  0.00  0.00     0.002 A 
ATOM     23  C   UNL d   1     -43.301-122.307 -49.866  0.00  0.00     0.018 A 
ATOM     24  C   UNL d   1     -43.546-122.191 -49.090  0.00  0.00     0.002 A 
ATOM     25  C   UNL d   1     -43.133-122.552 -48.460  0.00  0.00     0.000 A 
ENDBRANCH  15  16
ENDBRANCH  14  15
ENDBRANCH   1  14
TORSDOF 5
ENDMDL
