MODEL 1
REMARK VINA RESULT:      63.4      0.000      0.000
REMARK  7 active torsions:
REMARK  status: ('A' for Active; 'I' for Inactive)
REMARK    1  A    between atoms: C_19  and  N_1 
REMARK    2  A    between atoms: C_6  and  C_3 
REMARK    3  A    between atoms: C_9  and  C_6 
REMARK    4  A    between atoms: C_7  and  N_8 
REMARK       I    between atoms: N_8  and  C_11 
REMARK    5  A    between atoms: C_11  and  C_23 
REMARK    6  A    between atoms: C_22  and  C_19 
REMARK    7  A    between atoms: C_23  and  C_22 
ROOT
ATOM      1  C   UNL d   1     -48.710  28.331  34.817  0.00  0.00     0.024 C 
ENDROOT
BRANCH   1   2
ATOM      2  C   UNL d   1     -48.077  28.778  34.578  0.00  0.00     0.084 C 
BRANCH   2   3
ATOM      3  N   UNL d   1     -47.973  29.564  34.810  0.00  0.00    -0.259 N 
ATOM      4  C   UNL d   1     -47.399  29.823  35.354  0.00  0.00     0.153 A 
ATOM      5  S   UNL d   1     -47.491  30.638  35.421  0.00  0.00    -0.053 SA
ATOM      6  S   UNL d   1     -46.844  29.342  35.749  0.00  0.00    -0.052 SA
ATOM      7  C   UNL d   1     -48.095  30.910  34.947  0.00  0.00     0.090 A 
ATOM      8  C   UNL d   1     -48.391  30.244  34.571  0.00  0.00     0.272 A 
ATOM      9  O   UNL d   1     -49.033  30.261  34.017  0.00  0.00    -0.266 OA
BRANCH   7  10
ATOM     10  C   UNL d   1     -48.356  31.703  34.864  0.00  0.00     0.036 C 
BRANCH  10  11
ATOM     11  C   UNL d   1     -47.954  32.235  34.387  0.00  0.00     0.101 A 
ATOM     12  O   UNL d   1     -47.231  32.215  33.964  0.00  0.00    -0.305 OA
ATOM     13  C   UNL d   1     -47.146  32.954  33.584  0.00  0.00     0.123 A 
ATOM     14  C   UNL d   1     -47.771  33.411  33.754  0.00  0.00     0.029 A 
ATOM     15  C   UNL d   1     -48.272  32.982  34.244  0.00  0.00     0.027 A 
ENDBRANCH  10  11
ENDBRANCH   7  10
ENDBRANCH   2   3
ENDBRANCH   1   2
BRANCH   1  16
ATOM     16  C   UNL d   1     -49.126  27.820  34.291  0.00  0.00     0.064 C 
BRANCH  16  17
ATOM     17  C   UNL d   1     -48.795  27.146  33.989  0.00  0.00     0.279 C 
ATOM     18  N   UNL d   1     -49.255  26.588  33.591  0.00  0.00    -0.208 NA
ATOM     19  O   UNL d   1     -47.979  27.010  34.080  0.00  0.00    -0.265 OA
BRANCH  18  20
ATOM     20  C   UNL d   1     -50.082  26.722  33.497  0.00  0.00     0.085 A 
ATOM     21  C   UNL d   1     -50.584  26.076  33.449  0.00  0.00     0.018 A 
ATOM     22  C   UNL d   1     -51.401  26.195  33.356  0.00  0.00     0.002 A 
ATOM     23  C   UNL d   1     -50.276  25.312  33.493  0.00  0.00     0.002 A 
ATOM     24  C   UNL d   1     -51.906  25.555  33.308  0.00  0.00     0.000 A 
ATOM     25  C   UNL d   1     -51.707  26.972  33.312  0.00  0.00     0.000 A 
ATOM     26  C   UNL d   1     -51.613  24.780  33.350  0.00  0.00     0.000 A 
ATOM     27  C   UNL d   1     -50.788  24.658  33.444  0.00  0.00     0.000 A 
ATOM     28  C   UNL d   1     -51.207  27.609  33.360  0.00  0.00     0.002 A 
ATOM     29  C   UNL d   1     -50.391  27.486  33.453  0.00  0.00     0.019 A 
ENDBRANCH  18  20
ENDBRANCH  16  17
ENDBRANCH   1  16
TORSDOF 7
ENDMDL
MODEL 2
REMARK VINA RESULT:      64.8      1.927      6.188
REMARK  7 active torsions:
REMARK  status: ('A' for Active; 'I' for Inactive)
REMARK    1  A    between atoms: C_19  and  N_1 
REMARK    2  A    between atoms: C_6  and  C_3 
REMARK    3  A    between atoms: C_9  and  C_6 
REMARK    4  A    between atoms: C_7  and  N_8 
REMARK       I    between atoms: N_8  and  C_11 
REMARK    5  A    between atoms: C_11  and  C_23 
REMARK    6  A    between atoms: C_22  and  C_19 
REMARK    7  A    between atoms: C_23  and  C_22 
ROOT
ATOM      1  C   UNL d   1     -49.296  27.779  34.633  0.00  0.00     0.024 C 
ENDROOT
BRANCH   1   2
ATOM      2  C   UNL d   1     -49.549  27.651  33.874  0.00  0.00     0.084 C 
BRANCH   2   3
ATOM      3  N   UNL d   1     -50.119  27.084  33.683  0.00  0.00    -0.259 N 
ATOM      4  C   UNL d   1     -50.895  27.261  33.441  0.00  0.00     0.153 A 
ATOM      5  S   UNL d   1     -51.269  26.539  33.309  0.00  0.00    -0.053 SA
ATOM      6  S   UNL d   1     -51.222  28.022  33.352  0.00  0.00    -0.052 SA
ATOM      7  C   UNL d   1     -50.768  25.913  33.455  0.00  0.00     0.090 A 
ATOM      8  C   UNL d   1     -50.059  26.253  33.686  0.00  0.00     0.272 A 
ATOM      9  O   UNL d   1     -49.368  25.808  33.896  0.00  0.00    -0.266 OA
BRANCH   7  10
ATOM     10  C   UNL d   1     -50.945  25.096  33.384  0.00  0.00     0.036 C 
BRANCH  10  11
ATOM     11  C   UNL d   1     -51.710  24.817  33.472  0.00  0.00     0.101 A 
ATOM     12  O   UNL d   1     -52.458  25.178  33.587  0.00  0.00    -0.305 OA
ATOM     13  C   UNL d   1     -53.025  24.566  33.635  0.00  0.00     0.123 A 
ATOM     14  C   UNL d   1     -52.662  23.866  33.555  0.00  0.00     0.029 A 
ATOM     15  C   UNL d   1     -51.859  24.006  33.456  0.00  0.00     0.027 A 
ENDBRANCH  10  11
ENDBRANCH   7  10
ENDBRANCH   2   3
ENDBRANCH   1   2
BRANCH   1  16
ATOM     16  C   UNL d   1     -48.899  28.486  34.863  0.00  0.00     0.064 C 
BRANCH  16  17
ATOM     17  C   UNL d   1     -48.275  28.484  35.380  0.00  0.00     0.279 C 
ATOM     18  N   UNL d   1     -47.820  29.162  35.499  0.00  0.00    -0.208 NA
ATOM     19  O   UNL d   1     -48.089  27.790  35.799  0.00  0.00    -0.265 OA
BRANCH  18  20
ATOM     20  C   UNL d   1     -48.006  29.867  35.076  0.00  0.00     0.085 A 
ATOM     21  C   UNL d   1     -47.590  30.552  35.248  0.00  0.00     0.018 A 
ATOM     22  C   UNL d   1     -47.764  31.254  34.838  0.00  0.00     0.002 A 
ATOM     23  C   UNL d   1     -47.002  30.542  35.827  0.00  0.00     0.002 A 
ATOM     24  C   UNL d   1     -47.353  31.940  35.006  0.00  0.00     0.000 A 
ATOM     25  C   UNL d   1     -48.361  31.257  34.253  0.00  0.00     0.000 A 
ATOM     26  C   UNL d   1     -46.758  31.946  35.585  0.00  0.00     0.000 A 
ATOM     27  C   UNL d   1     -46.582  31.238  36.000  0.00  0.00     0.000 A 
ATOM     28  C   UNL d   1     -48.771  30.578  34.085  0.00  0.00     0.002 A 
ATOM     29  C   UNL d   1     -48.594  29.878  34.497  0.00  0.00     0.019 A 
ENDBRANCH  18  20
ENDBRANCH  16  17
ENDBRANCH   1  16
TORSDOF 7
ENDMDL
