MODEL 1
REMARK VINA RESULT:      -0.4      0.000      0.000
REMARK  3 active torsions:
REMARK  status: ('A' for Active; 'I' for Inactive)
REMARK    1  A    between atoms: S_6  and  C_2 
REMARK    2  A    between atoms: C_9  and  S_6 
REMARK    3  A    between atoms: C_7  and  C_9 
ROOT
ATOM      1  N   UNL d   1      23.456  12.685  -0.556  0.00  0.00    -0.196 NA
ATOM      2  C   UNL d   1      24.193  12.713  -0.944  0.00  0.00     0.213 A 
ATOM      3  N   UNL d   1      24.131  13.746  -0.088  0.00  0.00    -0.123 NA
ATOM      4  N   UNL d   1      24.606  13.367  -0.654  0.00  0.00    -0.120 NA
ATOM      5  C   UNL d   1      23.425  13.329  -0.027  0.00  0.00     0.224 A 
ENDROOT
BRANCH   2   6
ATOM      6  S   UNL d   1      24.457  12.181  -1.515  0.00  0.00    -0.062 SA
BRANCH   6   7
ATOM      7  C   UNL d   1      24.686  12.452  -2.264  0.00  0.00     0.162 C 
BRANCH   7   8
ATOM      8  C   UNL d   1      24.318  12.166  -2.945  0.00  0.00     0.197 C 
ATOM      9  O   UNL d   1      23.490  12.083  -2.961  0.00  0.00    -0.647 OA
ATOM     10  O   UNL d   1      24.768  11.964  -3.606  0.00  0.00    -0.647 OA
ENDBRANCH   7   8
ENDBRANCH   6   7
ENDBRANCH   2   6
TORSDOF 3
ENDMDL
MODEL 2
REMARK VINA RESULT:      -0.2      9.893     10.378
REMARK  3 active torsions:
REMARK  status: ('A' for Active; 'I' for Inactive)
REMARK    1  A    between atoms: S_6  and  C_2 
REMARK    2  A    between atoms: C_9  and  S_6 
REMARK    3  A    between atoms: C_7  and  C_9 
ROOT
ATOM      1  N   UNL d   1      14.797  11.842  -1.608  0.00  0.00    -0.196 NA
ATOM      2  C   UNL d   1      13.964  11.827  -1.625  0.00  0.00     0.213 A 
ATOM      3  N   UNL d   1      14.356  11.842  -0.340  0.00  0.00    -0.123 NA
ATOM      4  N   UNL d   1      13.695  11.827  -0.843  0.00  0.00    -0.120 NA
ATOM      5  C   UNL d   1      15.033  11.851  -0.808  0.00  0.00     0.224 A 
ENDROOT
BRANCH   2   6
ATOM      6  S   UNL d   1      13.496  11.815  -2.303  0.00  0.00    -0.062 SA
BRANCH   6   7
ATOM      7  C   UNL d   1      13.844  11.891  -3.052  0.00  0.00     0.162 C 
BRANCH   7   8
ATOM      8  C   UNL d   1      13.407  12.177  -3.691  0.00  0.00     0.197 C 
ATOM      9  O   UNL d   1      12.932  12.853  -3.594  0.00  0.00    -0.647 OA
ATOM     10  O   UNL d   1      13.442  11.795  -4.421  0.00  0.00    -0.647 OA
ENDBRANCH   7   8
ENDBRANCH   6   7
ENDBRANCH   2   6
TORSDOF 3
ENDMDL
MODEL 3
REMARK VINA RESULT:      -0.0     10.400     10.930
REMARK  3 active torsions:
REMARK  status: ('A' for Active; 'I' for Inactive)
REMARK    1  A    between atoms: S_6  and  C_2 
REMARK    2  A    between atoms: C_9  and  S_6 
REMARK    3  A    between atoms: C_7  and  C_9 
ROOT
ATOM      1  N   UNL d   1      12.935  12.881  -3.683  0.00  0.00    -0.196 NA
ATOM      2  C   UNL d   1      13.301  12.155  -3.498  0.00  0.00     0.213 A 
ATOM      3  N   UNL d   1      13.249  12.269  -4.836  0.00  0.00    -0.123 NA
ATOM      4  N   UNL d   1      13.493  11.780  -4.209  0.00  0.00    -0.120 NA
ATOM      5  C   UNL d   1      12.907  12.944  -4.514  0.00  0.00     0.224 A 
ENDROOT
BRANCH   2   6
ATOM      6  S   UNL d   1      13.443  11.867  -2.739  0.00  0.00    -0.062 SA
BRANCH   6   7
ATOM      7  C   UNL d   1      14.197  11.932  -2.402  0.00  0.00     0.162 C 
BRANCH   7   8
ATOM      8  C   UNL d   1      14.300  11.867  -1.586  0.00  0.00     0.197 C 
ATOM      9  O   UNL d   1      13.634  11.780  -1.093  0.00  0.00    -0.647 OA
ATOM     10  O   UNL d   1      15.057  11.890  -1.260  0.00  0.00    -0.647 OA
ENDBRANCH   7   8
ENDBRANCH   6   7
ENDBRANCH   2   6
TORSDOF 3
ENDMDL
