MODEL 1
REMARK VINA RESULT:       5.2      0.000      0.000
REMARK  1 active torsions:
REMARK  status: ('A' for Active; 'I' for Inactive)
REMARK    1  A    between atoms: C_2  and  C_1 
REMARK       I    between atoms: N_3  and  C_2 
ROOT
ATOM      1  C   UNL d   1      23.999  12.822  -1.291  0.00  0.00     0.109 A 
ATOM      2  C   UNL d   1      24.347  13.468  -1.107  0.00  0.00     0.026 A 
ATOM      3  C   UNL d   1      23.418  12.695  -0.895  0.00  0.00    -0.014 A 
ATOM      4  C   UNL d   1      23.336  12.359  -1.075  0.00  0.00    -0.014 A 
ATOM      5  C   UNL d   1      23.930  13.837  -0.483  0.00  0.00     0.045 A 
ATOM      6  C   UNL d   1      22.981  12.651  -0.559  0.00  0.00    -0.007 A 
ATOM      7  C   UNL d   1      22.986  13.072  -0.252  0.00  0.00    -0.007 A 
ATOM      8  C   UNL d   1      23.325  13.702  -0.073  0.00  0.00    -0.022 A 
ATOM      9  C   UNL d   1      22.306  12.613  -0.018  0.00  0.00    -0.001 A 
ATOM     10  C   UNL d   1      23.405  13.482  -0.303  0.00  0.00    -0.022 A 
ENDROOT
BRANCH   1  11
ATOM     11  C   UNL d   1      24.366  12.323  -1.969  0.00  0.00     0.248 C 
ATOM     12  N   UNL d   1      24.368  12.341  -2.766  0.00  0.00    -0.275 N 
ATOM     13  C   UNL d   1      24.767  11.790  -3.178  0.00  0.00     0.083 A 
ATOM     14  C   UNL d   1      23.961  12.921  -3.140  0.00  0.00     0.083 A 
ATOM     15  C   UNL d   1      24.764  11.815  -4.002  0.00  0.00     0.019 A 
ATOM     16  C   UNL d   1      24.361  12.391  -4.395  0.00  0.00     0.003 A 
ATOM     17  C   UNL d   1      23.959  12.946  -3.964  0.00  0.00     0.019 A 
ATOM     18  O   UNL d   1      24.740  11.782  -1.329  0.00  0.00    -0.271 OA
ENDBRANCH   1  11
TORSDOF 1
ENDMDL
