MODEL 1
REMARK VINA RESULT:      29.0      0.000      0.000
REMARK  3 active torsions:
REMARK  status: ('A' for Active; 'I' for Inactive)
REMARK    1  A    between atoms: C_9  and  S_1 
REMARK    2  A    between atoms: S_2  and  C_8 
REMARK    3  A    between atoms: N_14  and  C_5 
ROOT
ATOM      1  C   UNL d   1      46.190 -17.418  43.379  0.00  0.00     0.021 A 
ATOM      2  C   UNL d   1      45.969 -16.105  43.628  0.00  0.00     0.021 A 
ATOM      3  C   UNL d   1      46.242 -16.677  43.074  0.00  0.00     0.111 A 
ATOM      4  C   UNL d   1      45.749 -16.537  44.289  0.00  0.00     0.002 A 
ATOM      5  C   UNL d   1      45.870 -17.344  44.174  0.00  0.00     0.002 A 
ATOM      6  C   UNL d   1      45.612 -14.870  44.241  0.00  0.00     0.107 A 
ATOM      7  C   UNL d   1      46.242 -18.828  43.582  0.00  0.00     0.107 A 
ATOM      8  C   UNL d   1      45.908 -15.298  43.592  0.00  0.00     0.015 A 
ATOM      9  C   UNL d   1      46.375 -18.150  43.083  0.00  0.00     0.015 A 
ATOM     10  C   UNL d   1      45.749 -18.000  44.633  0.00  0.00     0.001 A 
ATOM     11  C   UNL d   1      45.444 -16.089  44.954  0.00  0.00     0.001 A 
ATOM     12  C   UNL d   1      45.932 -18.744  44.346  0.00  0.00     0.013 A 
ATOM     13  C   UNL d   1      45.385 -15.288  44.915  0.00  0.00     0.013 A 
ENDROOT
BRANCH   6  14
ATOM     14  S   UNL d   1      45.558 -14.028  44.180  0.00  0.00     0.302 S 
ATOM     15  O   UNL d   1      46.312 -13.968  44.522  0.00  0.00    -0.197 OA
ATOM     16  O   UNL d   1      44.781 -14.076  43.827  0.00  0.00    -0.197 OA
ATOM     17  N   UNL d   1      45.505 -13.179  44.120  0.00  0.00    -0.043 N 
ENDBRANCH   6  14
BRANCH   3  18
ATOM     18  N   UNL d   1      46.549 -16.567  42.270  0.00  0.00    -0.096 NA
ATOM     19  O   UNL d   1      46.549 -17.198  41.728  0.00  0.00    -0.061 OA
ENDBRANCH   3  18
BRANCH   7  20
ATOM     20  S   UNL d   1      46.448 -19.601  43.241  0.00  0.00     0.302 S 
ATOM     21  O   UNL d   1      46.623 -19.849  44.043  0.00  0.00    -0.197 OA
ATOM     22  O   UNL d   1      46.263 -19.308  42.465  0.00  0.00    -0.197 OA
ATOM     23  N   UNL d   1      46.646 -20.330  42.947  0.00  0.00    -0.043 N 
ENDBRANCH   7  20
TORSDOF 3
ENDMDL
MODEL 2
REMARK VINA RESULT:      29.8      0.315      4.138
REMARK  3 active torsions:
REMARK  status: ('A' for Active; 'I' for Inactive)
REMARK    1  A    between atoms: C_9  and  S_1 
REMARK    2  A    between atoms: S_2  and  C_8 
REMARK    3  A    between atoms: N_14  and  C_5 
ROOT
ATOM      1  C   UNL d   1      45.956 -16.021  43.594  0.00  0.00     0.021 A 
ATOM      2  C   UNL d   1      46.148 -17.362  43.561  0.00  0.00     0.021 A 
ATOM      3  C   UNL d   1      46.193 -16.637  43.136  0.00  0.00     0.111 A 
ATOM      4  C   UNL d   1      45.870 -17.157  44.304  0.00  0.00     0.002 A 
ATOM      5  C   UNL d   1      45.741 -16.345  44.362  0.00  0.00     0.002 A 
ATOM      6  C   UNL d   1      46.219 -18.743  43.902  0.00  0.00     0.107 A 
ATOM      7  C   UNL d   1      45.614 -14.731  44.095  0.00  0.00     0.107 A 
ATOM      8  C   UNL d   1      46.321 -18.126  43.353  0.00  0.00     0.015 A 
ATOM      9  C   UNL d   1      45.895 -15.225  43.459  0.00  0.00     0.015 A 
ATOM     10  C   UNL d   1      45.477 -15.860  44.955  0.00  0.00     0.001 A 
ATOM     11  C   UNL d   1      45.768 -17.798  44.864  0.00  0.00     0.001 A 
ATOM     12  C   UNL d   1      45.410 -15.055  44.831  0.00  0.00     0.013 A 
ATOM     13  C   UNL d   1      45.940 -18.556  44.655  0.00  0.00     0.013 A 
ENDROOT
BRANCH   6  14
ATOM     14  S   UNL d   1      46.406 -19.533  43.662  0.00  0.00     0.302 S 
ATOM     15  O   UNL d   1      46.175 -19.801  44.414  0.00  0.00    -0.197 OA
ATOM     16  O   UNL d   1      46.646 -19.270  42.885  0.00  0.00    -0.197 OA
ATOM     17  N   UNL d   1      46.593 -20.329  43.424  0.00  0.00    -0.043 N 
ENDBRANCH   6  14
BRANCH   3  18
ATOM     18  N   UNL d   1      46.448 -16.487  42.321  0.00  0.00    -0.096 NA
ATOM     19  O   UNL d   1      46.493 -17.111  41.771  0.00  0.00    -0.061 OA
ENDBRANCH   3  18
BRANCH   7  20
ATOM     20  S   UNL d   1      45.557 -13.881  43.924  0.00  0.00     0.302 S 
ATOM     21  O   UNL d   1      46.240 -13.786  44.434  0.00  0.00    -0.197 OA
ATOM     22  O   UNL d   1      44.883 -14.026  43.427  0.00  0.00    -0.197 OA
ATOM     23  N   UNL d   1      45.525 -13.084  43.779  0.00  0.00    -0.043 N 
ENDBRANCH   7  20
TORSDOF 3
ENDMDL
MODEL 3
REMARK VINA RESULT:      31.4      1.182      4.530
REMARK  3 active torsions:
REMARK  status: ('A' for Active; 'I' for Inactive)
REMARK    1  A    between atoms: C_9  and  S_1 
REMARK    2  A    between atoms: S_2  and  C_8 
REMARK    3  A    between atoms: N_14  and  C_5 
ROOT
ATOM      1  C   UNL d   1      45.498 -15.201  44.131  0.00  0.00     0.021 A 
ATOM      2  C   UNL d   1      45.606 -16.543  43.979  0.00  0.00     0.021 A 
ATOM      3  C   UNL d   1      45.208 -15.912  44.369  0.00  0.00     0.111 A 
ATOM      4  C   UNL d   1      46.155 -16.180  43.490  0.00  0.00     0.002 A 
ATOM      5  C   UNL d   1      46.117 -15.359  43.556  0.00  0.00     0.002 A 
ATOM      6  C   UNL d   1      46.005 -17.845  43.561  0.00  0.00     0.107 A 
ATOM      7  C   UNL d   1      45.751 -13.810  43.953  0.00  0.00     0.107 A 
ATOM      8  C   UNL d   1      45.523 -17.348  44.023  0.00  0.00     0.015 A 
ATOM      9  C   UNL d   1      45.314 -14.437  44.330  0.00  0.00     0.015 A 
ATOM     10  C   UNL d   1      46.522 -14.750  43.208  0.00  0.00     0.001 A 
ATOM     11  C   UNL d   1      46.647 -16.699  43.017  0.00  0.00     0.001 A 
ATOM     12  C   UNL d   1      46.347 -13.974  43.400  0.00  0.00     0.013 A 
ATOM     13  C   UNL d   1      46.563 -17.497  43.063  0.00  0.00     0.013 A 
ENDROOT
BRANCH   6  14
ATOM     14  S   UNL d   1      45.901 -18.682  43.624  0.00  0.00     0.302 S 
ATOM     15  O   UNL d   1      46.178 -18.644  44.406  0.00  0.00    -0.197 OA
ATOM     16  O   UNL d   1      45.614 -18.735  42.820  0.00  0.00    -0.197 OA
ATOM     17  N   UNL d   1      45.797 -19.525  43.690  0.00  0.00    -0.043 N 
ENDBRANCH   6  14
BRANCH   3  18
ATOM     18  N   UNL d   1      44.569 -15.937  44.955  0.00  0.00    -0.096 NA
ATOM     19  O   UNL d   1      43.881 -15.482  44.849  0.00  0.00    -0.061 OA
ENDBRANCH   3  18
BRANCH   7  20
ATOM     20  S   UNL d   1      45.535 -13.000  44.183  0.00  0.00     0.302 S 
ATOM     21  O   UNL d   1      45.193 -12.925  43.401  0.00  0.00    -0.197 OA
ATOM     22  O   UNL d   1      45.889 -13.123  44.947  0.00  0.00    -0.197 OA
ATOM     23  N   UNL d   1      45.323 -12.242  44.375  0.00  0.00    -0.043 N 
ENDBRANCH   7  20
TORSDOF 3
ENDMDL
