MODEL 1
REMARK VINA RESULT:      -6.3      0.000      0.000
REMARK  5 active torsions:
REMARK  status: ('A' for Active; 'I' for Inactive)
REMARK    1  A    between atoms: C_8  and  C_1 
REMARK    2  A    between atoms: C_7  and  C_4 
REMARK    3  A    between atoms: O_10  and  C_8 
REMARK    4  A    between atoms: C_16  and  O_10 
REMARK    5  A    between atoms: C_19  and  C_16 
ROOT
ATOM      1  C   UNL d   1     -47.919  13.254  22.981  0.00  0.00     0.098 A 
ATOM      2  C   UNL d   1     -47.296  12.690  22.969  0.00  0.00     0.075 A 
ATOM      3  C   UNL d   1     -46.337  13.750  22.980  0.00  0.00     0.354 A 
ATOM      4  C   UNL d   1     -47.742  14.052  22.993  0.00  0.00     0.093 A 
ATOM      5  N   UNL d   1     -46.513  12.941  22.968  0.00  0.00    -0.256 N 
ATOM      6  N   UNL d   1     -46.952  14.306  22.993  0.00  0.00    -0.192 NA
ATOM      7  O   UNL d   1     -45.552  14.003  22.980  0.00  0.00    -0.244 OA
ATOM      8  C   UNL d   1     -47.465  11.890  22.957  0.00  0.00     0.019 C 
ATOM      9  C   UNL d   1     -45.902  12.388  22.956  0.00  0.00     0.104 C 
ENDROOT
BRANCH   1  10
ATOM     10  C   UNL d   1     -48.710  13.016  22.982  0.00  0.00     0.303 C 
ATOM     11  O   UNL d   1     -49.120  12.961  23.691  0.00  0.00    -0.259 OA
BRANCH  10  12
ATOM     12  O   UNL d   1     -49.078  12.837  22.273  0.00  0.00    -0.271 OA
BRANCH  12  13
ATOM     13  C   UNL d   1     -49.724  12.325  22.272  0.00  0.00     0.126 C 
BRANCH  13  14
ATOM     14  C   UNL d   1     -50.284  12.366  21.667  0.00  0.00     0.025 C 
ATOM     15  C   UNL d   1     -50.065  12.221  20.899  0.00  0.00     0.002 C 
ATOM     16  C   UNL d   1     -51.064  12.551  21.828  0.00  0.00     0.002 C 
ENDBRANCH  13  14
ENDBRANCH  12  13
ENDBRANCH  10  12
ENDBRANCH   1  10
BRANCH   4  17
ATOM     17  C   UNL d   1     -48.351  14.603  23.005  0.00  0.00     0.029 A 
ATOM     18  C   UNL d   1     -48.447  15.132  22.372  0.00  0.00     0.059 A 
ATOM     19 CL   UNL d   1     -47.926  15.101  21.730  0.00  0.00    -0.082 Cl
ATOM     20  C   UNL d   1     -49.069  15.695  22.385  0.00  0.00     0.011 A 
ATOM     21  C   UNL d   1     -49.585  15.720  23.030  0.00  0.00     0.001 A 
ATOM     22  C   UNL d   1     -49.493  15.199  23.656  0.00  0.00     0.000 A 
ATOM     23  C   UNL d   1     -48.845  14.613  23.643  0.00  0.00     0.002 A 
ENDBRANCH   4  17
TORSDOF 5
ENDMDL
MODEL 2
REMARK VINA RESULT:      -6.2      1.600      3.549
REMARK  5 active torsions:
REMARK  status: ('A' for Active; 'I' for Inactive)
REMARK    1  A    between atoms: C_8  and  C_1 
REMARK    2  A    between atoms: C_7  and  C_4 
REMARK    3  A    between atoms: O_10  and  C_8 
REMARK    4  A    between atoms: C_16  and  O_10 
REMARK    5  A    between atoms: C_19  and  C_16 
ROOT
ATOM      1  C   UNL d   1     -47.812  13.908  22.690  0.00  0.00     0.098 A 
ATOM      2  C   UNL d   1     -47.825  14.735  22.544  0.00  0.00     0.075 A 
ATOM      3  C   UNL d   1     -49.222  14.660  22.250  0.00  0.00     0.354 A 
ATOM      4  C   UNL d   1     -48.500  13.472  22.614  0.00  0.00     0.093 A 
ATOM      5  N   UNL d   1     -48.527  15.104  22.326  0.00  0.00    -0.256 N 
ATOM      6  N   UNL d   1     -49.208  13.844  22.394  0.00  0.00    -0.192 NA
ATOM      7  O   UNL d   1     -49.927  15.029  22.031  0.00  0.00    -0.244 OA
ATOM      8  C   UNL d   1     -47.141  15.178  22.618  0.00  0.00     0.019 C 
ATOM      9  C   UNL d   1     -48.540  15.916  22.182  0.00  0.00     0.104 C 
ENDROOT
BRANCH   1  10
ATOM     10  C   UNL d   1     -47.114  13.525  22.910  0.00  0.00     0.303 C 
ATOM     11  O   UNL d   1     -46.983  13.334  23.698  0.00  0.00    -0.259 OA
BRANCH  10  12
ATOM     12  O   UNL d   1     -46.558  13.339  22.339  0.00  0.00    -0.271 OA
BRANCH  12  13
ATOM     13  C   UNL d   1     -45.758  13.347  22.536  0.00  0.00     0.126 C 
BRANCH  13  14
ATOM     14  C   UNL d   1     -45.226  12.867  22.128  0.00  0.00     0.025 C 
ATOM     15  C   UNL d   1     -44.856  12.254  22.508  0.00  0.00     0.002 C 
ATOM     16  C   UNL d   1     -45.062  12.998  21.337  0.00  0.00     0.002 C 
ENDBRANCH  13  14
ENDBRANCH  12  13
ENDBRANCH  10  12
ENDBRANCH   1  10
BRANCH   4  17
ATOM     17  C   UNL d   1     -48.487  12.664  22.757  0.00  0.00     0.029 A 
ATOM     18  C   UNL d   1     -48.613  12.128  22.136  0.00  0.00     0.059 A 
ATOM     19 CL   UNL d   1     -48.752  12.414  21.372  0.00  0.00    -0.082 Cl
ATOM     20  C   UNL d   1     -48.600  11.302  22.282  0.00  0.00     0.011 A 
ATOM     21  C   UNL d   1     -48.460  11.025  23.047  0.00  0.00     0.001 A 
ATOM     22  C   UNL d   1     -48.335  11.551  23.664  0.00  0.00     0.000 A 
ATOM     23  C   UNL d   1     -48.349  12.411  23.512  0.00  0.00     0.002 A 
ENDBRANCH   4  17
TORSDOF 5
ENDMDL
MODEL 3
REMARK VINA RESULT:      -6.1      1.511      2.923
REMARK  5 active torsions:
REMARK  status: ('A' for Active; 'I' for Inactive)
REMARK    1  A    between atoms: C_8  and  C_1 
REMARK    2  A    between atoms: C_7  and  C_4 
REMARK    3  A    between atoms: O_10  and  C_8 
REMARK    4  A    between atoms: C_16  and  O_10 
REMARK    5  A    between atoms: C_19  and  C_16 
ROOT
ATOM      1  C   UNL d   1     -48.246  12.766  23.123  0.00  0.00     0.098 A 
ATOM      2  C   UNL d   1     -48.245  11.976  23.407  0.00  0.00     0.075 A 
ATOM      3  C   UNL d   1     -49.637  11.865  23.102  0.00  0.00     0.354 A 
ATOM      4  C   UNL d   1     -48.938  13.092  22.834  0.00  0.00     0.093 A 
ATOM      5  N   UNL d   1     -48.937  11.533  23.395  0.00  0.00    -0.256 N 
ATOM      6  N   UNL d   1     -49.637  12.645  22.821  0.00  0.00    -0.192 NA
ATOM      7  O   UNL d   1     -50.333  11.422  23.089  0.00  0.00    -0.244 OA
ATOM      8  C   UNL d   1     -47.556  11.643  23.698  0.00  0.00     0.019 C 
ATOM      9  C   UNL d   1     -48.937  10.757  23.675  0.00  0.00     0.104 C 
ENDROOT
BRANCH   1  10
ATOM     10  C   UNL d   1     -47.557  13.223  23.129  0.00  0.00     0.303 C 
ATOM     11  O   UNL d   1     -47.459  13.806  23.698  0.00  0.00    -0.259 OA
BRANCH  10  12
ATOM     12  O   UNL d   1     -46.979  13.089  22.566  0.00  0.00    -0.271 OA
BRANCH  12  13
ATOM     13  C   UNL d   1     -46.185  13.144  22.782  0.00  0.00     0.126 C 
BRANCH  13  14
ATOM     14  C   UNL d   1     -45.610  13.295  22.210  0.00  0.00     0.025 C 
ATOM     15  C   UNL d   1     -45.317  12.689  21.757  0.00  0.00     0.002 C 
ATOM     16  C   UNL d   1     -45.325  14.052  22.088  0.00  0.00     0.002 C 
ENDBRANCH  13  14
ENDBRANCH  12  13
ENDBRANCH  10  12
ENDBRANCH   1  10
BRANCH   4  17
ATOM     17  C   UNL d   1     -48.939  13.864  22.555  0.00  0.00     0.029 A 
ATOM     18  C   UNL d   1     -49.046  14.016  21.746  0.00  0.00     0.059 A 
ATOM     19 CL   UNL d   1     -49.151  13.384  21.222  0.00  0.00    -0.082 Cl
ATOM     20  C   UNL d   1     -49.046  14.805  21.462  0.00  0.00     0.011 A 
ATOM     21  C   UNL d   1     -48.940  15.431  21.991  0.00  0.00     0.001 A 
ATOM     22  C   UNL d   1     -48.834  15.284  22.791  0.00  0.00     0.000 A 
ATOM     23  C   UNL d   1     -48.834  14.463  23.087  0.00  0.00     0.002 A 
ENDBRANCH   4  17
TORSDOF 5
ENDMDL
MODEL 4
REMARK VINA RESULT:      -6.0      1.349      2.796
REMARK  5 active torsions:
REMARK  status: ('A' for Active; 'I' for Inactive)
REMARK    1  A    between atoms: C_8  and  C_1 
REMARK    2  A    between atoms: C_7  and  C_4 
REMARK    3  A    between atoms: O_10  and  C_8 
REMARK    4  A    between atoms: C_16  and  O_10 
REMARK    5  A    between atoms: C_19  and  C_16 
ROOT
ATOM      1  C   UNL d   1     -48.296  12.660  23.119  0.00  0.00     0.098 A 
ATOM      2  C   UNL d   1     -47.529  12.444  23.383  0.00  0.00     0.075 A 
ATOM      3  C   UNL d   1     -47.784  11.087  23.013  0.00  0.00     0.354 A 
ATOM      4  C   UNL d   1     -48.793  12.090  22.807  0.00  0.00     0.093 A 
ATOM      5  N   UNL d   1     -47.280  11.662  23.329  0.00  0.00    -0.256 N 
ATOM      6  N   UNL d   1     -48.542  11.301  22.752  0.00  0.00    -0.192 NA
ATOM      7  O   UNL d   1     -47.536  10.302  22.957  0.00  0.00    -0.244 OA
ATOM      8  C   UNL d   1     -47.026  13.008  23.696  0.00  0.00     0.019 C 
ATOM      9  C   UNL d   1     -46.526  11.449  23.588  0.00  0.00     0.104 C 
ENDROOT
BRANCH   1  10
ATOM     10  C   UNL d   1     -48.559  13.442  23.168  0.00  0.00     0.303 C 
ATOM     11  O   UNL d   1     -49.154  13.640  23.698  0.00  0.00    -0.259 OA
BRANCH  10  12
ATOM     12  O   UNL d   1     -48.224  14.012  22.686  0.00  0.00    -0.271 OA
BRANCH  12  13
ATOM     13  C   UNL d   1     -48.300  14.807  22.889  0.00  0.00     0.126 C 
BRANCH  13  14
ATOM     14  C   UNL d   1     -48.115  15.394  22.339  0.00  0.00     0.025 C 
ATOM     15  C   UNL d   1     -47.346  15.506  22.107  0.00  0.00     0.002 C 
ATOM     16  C   UNL d   1     -48.697  15.872  22.020  0.00  0.00     0.002 C 
ENDBRANCH  13  14
ENDBRANCH  12  13
ENDBRANCH  10  12
ENDBRANCH   1  10
BRANCH   4  17
ATOM     17  C   UNL d   1     -49.543  12.302  22.549  0.00  0.00     0.029 A 
ATOM     18  C   UNL d   1     -49.710  12.335  21.736  0.00  0.00     0.059 A 
ATOM     19 CL   UNL d   1     -49.116  12.154  21.189  0.00  0.00    -0.082 Cl
ATOM     20  C   UNL d   1     -50.476  12.552  21.472  0.00  0.00     0.011 A 
ATOM     21  C   UNL d   1     -51.064  12.732  22.024  0.00  0.00     0.001 A 
ATOM     22  C   UNL d   1     -50.902  12.700  22.828  0.00  0.00     0.000 A 
ATOM     23  C   UNL d   1     -50.104  12.475  23.103  0.00  0.00     0.002 A 
ENDBRANCH   4  17
TORSDOF 5
ENDMDL
MODEL 5
REMARK VINA RESULT:      -5.5      1.255      2.744
REMARK  5 active torsions:
REMARK  status: ('A' for Active; 'I' for Inactive)
REMARK    1  A    between atoms: C_8  and  C_1 
REMARK    2  A    between atoms: C_7  and  C_4 
REMARK    3  A    between atoms: O_10  and  C_8 
REMARK    4  A    between atoms: C_16  and  O_10 
REMARK    5  A    between atoms: C_19  and  C_16 
ROOT
ATOM      1  C   UNL d   1     -48.015  13.594  22.409  0.00  0.00     0.098 A 
ATOM      2  C   UNL d   1     -48.434  14.297  22.221  0.00  0.00     0.075 A 
ATOM      3  C   UNL d   1     -47.312  15.077  22.637  0.00  0.00     0.354 A 
ATOM      4  C   UNL d   1     -47.254  13.643  22.706  0.00  0.00     0.093 A 
ATOM      5  N   UNL d   1     -48.082  15.030  22.336  0.00  0.00    -0.256 N 
ATOM      6  N   UNL d   1     -46.898  14.383  22.822  0.00  0.00    -0.192 NA
ATOM      7  O   UNL d   1     -46.956  15.813  22.753  0.00  0.00    -0.244 OA
ATOM      8  C   UNL d   1     -49.196  14.255  21.924  0.00  0.00     0.019 C 
ATOM      9  C   UNL d   1     -48.494  15.721  22.152  0.00  0.00     0.104 C 
ENDROOT
BRANCH   1  10
ATOM     10  C   UNL d   1     -48.357  12.850  22.298  0.00  0.00     0.303 C 
ATOM     11  O   UNL d   1     -48.138  12.391  21.654  0.00  0.00    -0.259 OA
BRANCH  10  12
ATOM     12  O   UNL d   1     -48.912  12.577  22.834  0.00  0.00    -0.271 OA
BRANCH  12  13
ATOM     13  C   UNL d   1     -49.482  12.037  22.585  0.00  0.00     0.126 C 
BRANCH  13  14
ATOM     14  C   UNL d   1     -50.104  11.831  23.086  0.00  0.00     0.025 C 
ATOM     15  C   UNL d   1     -50.009  11.238  23.632  0.00  0.00     0.002 C 
ATOM     16  C   UNL d   1     -50.825  12.218  23.044  0.00  0.00     0.002 C 
ENDBRANCH  13  14
ENDBRANCH  12  13
ENDBRANCH  10  12
ENDBRANCH   1  10
BRANCH   4  17
ATOM     17  C   UNL d   1     -46.844  12.956  22.889  0.00  0.00     0.029 A 
ATOM     18  C   UNL d   1     -46.163  12.749  22.460  0.00  0.00     0.059 A 
ATOM     19 CL   UNL d   1     -45.902  13.241  21.848  0.00  0.00    -0.082 Cl
ATOM     20  C   UNL d   1     -45.744  12.047  22.647  0.00  0.00     0.011 A 
ATOM     21  C   UNL d   1     -46.012  11.562  23.260  0.00  0.00     0.001 A 
ATOM     22  C   UNL d   1     -46.684  11.763  23.686  0.00  0.00     0.000 A 
ATOM     23  C   UNL d   1     -47.120  12.494  23.491  0.00  0.00     0.002 A 
ENDBRANCH   4  17
TORSDOF 5
ENDMDL
MODEL 6
REMARK VINA RESULT:      -5.4      1.007      1.409
REMARK  5 active torsions:
REMARK  status: ('A' for Active; 'I' for Inactive)
REMARK    1  A    between atoms: C_8  and  C_1 
REMARK    2  A    between atoms: C_7  and  C_4 
REMARK    3  A    between atoms: O_10  and  C_8 
REMARK    4  A    between atoms: C_16  and  O_10 
REMARK    5  A    between atoms: C_19  and  C_16 
ROOT
ATOM      1  C   UNL d   1     -47.943  12.550  23.150  0.00  0.00     0.098 A 
ATOM      2  C   UNL d   1     -47.794  11.750  23.357  0.00  0.00     0.075 A 
ATOM      3  C   UNL d   1     -46.395  12.028  23.430  0.00  0.00     0.354 A 
ATOM      4  C   UNL d   1     -47.318  13.075  23.087  0.00  0.00     0.093 A 
ATOM      5  N   UNL d   1     -47.025  11.496  23.495  0.00  0.00    -0.256 N 
ATOM      6  N   UNL d   1     -46.541  12.818  23.226  0.00  0.00    -0.192 NA
ATOM      7  O   UNL d   1     -45.621  11.775  23.568  0.00  0.00    -0.244 OA
ATOM      8  C   UNL d   1     -48.414  11.219  23.422  0.00  0.00     0.019 C 
ATOM      9  C   UNL d   1     -46.879  10.710  23.698  0.00  0.00     0.104 C 
ENDROOT
BRANCH   1  10
ATOM     10  C   UNL d   1     -48.711  12.819  23.008  0.00  0.00     0.303 C 
ATOM     11  O   UNL d   1     -49.111  13.237  23.590  0.00  0.00    -0.259 OA
BRANCH  10  12
ATOM     12  O   UNL d   1     -49.066  12.666  22.287  0.00  0.00    -0.271 OA
BRANCH  12  13
ATOM     13  C   UNL d   1     -49.887  12.607  22.246  0.00  0.00     0.126 C 
BRANCH  13  14
ATOM     14  C   UNL d   1     -50.269  12.658  21.517  0.00  0.00     0.025 C 
ATOM     15  C   UNL d   1     -51.053  12.865  21.481  0.00  0.00     0.002 C 
ATOM     16  C   UNL d   1     -49.870  12.502  20.819  0.00  0.00     0.002 C 
ENDBRANCH  13  14
ENDBRANCH  12  13
ENDBRANCH  10  12
ENDBRANCH   1  10
BRANCH   4  17
ATOM     17  C   UNL d   1     -47.463  13.857  22.884  0.00  0.00     0.029 A 
ATOM     18  C   UNL d   1     -47.071  14.200  22.238  0.00  0.00     0.059 A 
ATOM     19 CL   UNL d   1     -46.534  13.749  21.799  0.00  0.00    -0.082 Cl
ATOM     20  C   UNL d   1     -47.219  15.000  22.031  0.00  0.00     0.011 A 
ATOM     21  C   UNL d   1     -47.758  15.444  22.474  0.00  0.00     0.001 A 
ATOM     22  C   UNL d   1     -48.146  15.108  23.113  0.00  0.00     0.000 A 
ATOM     23  C   UNL d   1     -47.992  14.276  23.328  0.00  0.00     0.002 A 
ENDBRANCH   4  17
TORSDOF 5
ENDMDL
MODEL 7
REMARK VINA RESULT:      -5.4      8.163      9.899
REMARK  5 active torsions:
REMARK  status: ('A' for Active; 'I' for Inactive)
REMARK    1  A    between atoms: C_8  and  C_1 
REMARK    2  A    between atoms: C_7  and  C_4 
REMARK    3  A    between atoms: O_10  and  C_8 
REMARK    4  A    between atoms: C_16  and  O_10 
REMARK    5  A    between atoms: C_19  and  C_16 
ROOT
ATOM      1  C   UNL d   1     -39.433  14.949  18.563  0.00  0.00     0.098 A 
ATOM      2  C   UNL d   1     -39.160  14.868  17.772  0.00  0.00     0.075 A 
ATOM      3  C   UNL d   1     -40.471  15.168  17.289  0.00  0.00     0.354 A 
ATOM      4  C   UNL d   1     -40.217  15.137  18.703  0.00  0.00     0.093 A 
ATOM      5  N   UNL d   1     -39.679  14.977  17.144  0.00  0.00    -0.256 N 
ATOM      6  N   UNL d   1     -40.740  15.248  18.069  0.00  0.00    -0.192 NA
ATOM      7  O   UNL d   1     -40.993  15.279  16.659  0.00  0.00    -0.244 OA
ATOM      8  C   UNL d   1     -38.378  14.679  17.624  0.00  0.00     0.019 C 
ATOM      9  C   UNL d   1     -39.411  14.898  16.368  0.00  0.00     0.104 C 
ENDROOT
BRANCH   1  10
ATOM     10  C   UNL d   1     -38.923  14.842  19.204  0.00  0.00     0.303 C 
ATOM     11  O   UNL d   1     -38.602  15.494  19.584  0.00  0.00    -0.259 OA
BRANCH  10  12
ATOM     12  O   UNL d   1     -38.744  14.084  19.454  0.00  0.00    -0.271 OA
BRANCH  12  13
ATOM     13  C   UNL d   1     -38.080  13.962  19.928  0.00  0.00     0.126 C 
BRANCH  13  14
ATOM     14  C   UNL d   1     -37.987  13.250  20.334  0.00  0.00     0.025 C 
ATOM     15  C   UNL d   1     -37.940  13.245  21.144  0.00  0.00     0.002 C 
ATOM     16  C   UNL d   1     -37.940  12.538  19.931  0.00  0.00     0.002 C 
ENDBRANCH  13  14
ENDBRANCH  12  13
ENDBRANCH  10  12
ENDBRANCH   1  10
BRANCH   4  17
ATOM     17  C   UNL d   1     -40.484  15.217  19.476  0.00  0.00     0.029 A 
ATOM     18  C   UNL d   1     -41.022  14.668  19.789  0.00  0.00     0.059 A 
ATOM     19 CL   UNL d   1     -41.287  14.040  19.319  0.00  0.00    -0.082 Cl
ATOM     20  C   UNL d   1     -41.294  14.749  20.579  0.00  0.00     0.011 A 
ATOM     21  C   UNL d   1     -41.025  15.378  21.042  0.00  0.00     0.001 A 
ATOM     22  C   UNL d   1     -40.493  15.922  20.735  0.00  0.00     0.000 A 
ATOM     23  C   UNL d   1     -40.210  15.838  19.914  0.00  0.00     0.002 A 
ENDBRANCH   4  17
TORSDOF 5
ENDMDL
MODEL 8
REMARK VINA RESULT:      -5.3      1.458      2.848
REMARK  5 active torsions:
REMARK  status: ('A' for Active; 'I' for Inactive)
REMARK    1  A    between atoms: C_8  and  C_1 
REMARK    2  A    between atoms: C_7  and  C_4 
REMARK    3  A    between atoms: O_10  and  C_8 
REMARK    4  A    between atoms: C_16  and  O_10 
REMARK    5  A    between atoms: C_19  and  C_16 
ROOT
ATOM      1  C   UNL d   1     -48.618  12.948  22.821  0.00  0.00     0.098 A 
ATOM      2  C   UNL d   1     -49.247  12.408  22.959  0.00  0.00     0.075 A 
ATOM      3  C   UNL d   1     -48.308  11.428  23.406  0.00  0.00     0.354 A 
ATOM      4  C   UNL d   1     -47.848  12.720  22.977  0.00  0.00     0.093 A 
ATOM      5  N   UNL d   1     -49.088  11.656  23.249  0.00  0.00    -0.256 N 
ATOM      6  N   UNL d   1     -47.687  11.961  23.270  0.00  0.00    -0.192 NA
ATOM      7  O   UNL d   1     -48.146  10.674  23.698  0.00  0.00    -0.244 OA
ATOM      8  C   UNL d   1     -50.020  12.628  22.806  0.00  0.00     0.019 C 
ATOM      9  C   UNL d   1     -49.706  11.126  23.385  0.00  0.00     0.104 C 
ENDROOT
BRANCH   1  10
ATOM     10  C   UNL d   1     -48.763  13.707  22.529  0.00  0.00     0.303 C 
ATOM     11  O   UNL d   1     -48.504  13.913  21.778  0.00  0.00    -0.259 OA
BRANCH  10  12
ATOM     12  O   UNL d   1     -49.165  14.248  22.993  0.00  0.00    -0.271 OA
BRANCH  12  13
ATOM     13  C   UNL d   1     -49.616  14.834  22.631  0.00  0.00     0.126 C 
BRANCH  13  14
ATOM     14  C   UNL d   1     -50.071  15.349  23.088  0.00  0.00     0.025 C 
ATOM     15  C   UNL d   1     -49.712  15.922  23.536  0.00  0.00     0.002 C 
ATOM     16  C   UNL d   1     -50.888  15.292  23.099  0.00  0.00     0.002 C 
ENDBRANCH  13  14
ENDBRANCH  12  13
ENDBRANCH  10  12
ENDBRANCH   1  10
BRANCH   4  17
ATOM     17  C   UNL d   1     -47.233  13.248  22.841  0.00  0.00     0.029 A 
ATOM     18  C   UNL d   1     -46.742  13.155  22.178  0.00  0.00     0.059 A 
ATOM     19 CL   UNL d   1     -46.876  12.528  21.655  0.00  0.00    -0.082 Cl
ATOM     20  C   UNL d   1     -46.114  13.694  22.040  0.00  0.00     0.011 A 
ATOM     21  C   UNL d   1     -45.987  14.317  22.567  0.00  0.00     0.001 A 
ATOM     22  C   UNL d   1     -46.470  14.412  23.223  0.00  0.00     0.000 A 
ATOM     23  C   UNL d   1     -47.124  13.851  23.367  0.00  0.00     0.002 A 
ENDBRANCH   4  17
TORSDOF 5
ENDMDL
MODEL 9
REMARK VINA RESULT:      -5.1      8.629     10.078
REMARK  5 active torsions:
REMARK  status: ('A' for Active; 'I' for Inactive)
REMARK    1  A    between atoms: C_8  and  C_1 
REMARK    2  A    between atoms: C_7  and  C_4 
REMARK    3  A    between atoms: O_10  and  C_8 
REMARK    4  A    between atoms: C_16  and  O_10 
REMARK    5  A    between atoms: C_19  and  C_16 
ROOT
ATOM      1  C   UNL d   1     -39.159  14.481  18.607  0.00  0.00     0.098 A 
ATOM      2  C   UNL d   1     -38.628  13.940  18.968  0.00  0.00     0.075 A 
ATOM      3  C   UNL d   1     -38.822  13.026  17.887  0.00  0.00     0.354 A 
ATOM      4  C   UNL d   1     -39.512  14.287  17.895  0.00  0.00     0.093 A 
ATOM      5  N   UNL d   1     -38.463  13.220  18.607  0.00  0.00    -0.256 N 
ATOM      6  N   UNL d   1     -39.346  13.560  17.530  0.00  0.00    -0.192 NA
ATOM      7  O   UNL d   1     -38.658  12.304  17.523  0.00  0.00    -0.244 OA
ATOM      8  C   UNL d   1     -38.271  14.127  19.680  0.00  0.00     0.019 C 
ATOM      9  C   UNL d   1     -37.941  12.689  18.962  0.00  0.00     0.104 C 
ENDROOT
BRANCH   1  10
ATOM     10  C   UNL d   1     -39.334  15.208  18.958  0.00  0.00     0.303 C 
ATOM     11  O   UNL d   1     -39.013  15.898  18.650  0.00  0.00    -0.259 OA
BRANCH  10  12
ATOM     12  O   UNL d   1     -39.826  15.233  19.612  0.00  0.00    -0.271 OA
BRANCH  12  13
ATOM     13  C   UNL d   1     -39.780  15.874  20.127  0.00  0.00     0.126 C 
BRANCH  13  14
ATOM     14  C   UNL d   1     -40.266  15.906  20.793  0.00  0.00     0.025 C 
ATOM     15  C   UNL d   1     -39.939  15.922  21.535  0.00  0.00     0.002 C 
ATOM     16  C   UNL d   1     -41.081  15.921  20.720  0.00  0.00     0.002 C 
ENDBRANCH  13  14
ENDBRANCH  12  13
ENDBRANCH  10  12
ENDBRANCH   1  10
BRANCH   4  17
ATOM     17  C   UNL d   1     -40.032  14.815  17.541  0.00  0.00     0.029 A 
ATOM     18  C   UNL d   1     -39.780  15.287  16.907  0.00  0.00     0.059 A 
ATOM     19 CL   UNL d   1     -39.002  15.221  16.632  0.00  0.00    -0.082 Cl
ATOM     20  C   UNL d   1     -40.311  15.827  16.546  0.00  0.00     0.011 A 
ATOM     21  C   UNL d   1     -41.086  15.886  16.825  0.00  0.00     0.001 A 
ATOM     22  C   UNL d   1     -41.339  15.422  17.452  0.00  0.00     0.000 A 
ATOM     23  C   UNL d   1     -40.786  14.860  17.828  0.00  0.00     0.002 A 
ENDBRANCH   4  17
TORSDOF 5
ENDMDL
