MODEL 1
REMARK VINA RESULT:      57.0      0.000      0.000
REMARK  5 active torsions:
REMARK  status: ('A' for Active; 'I' for Inactive)
REMARK    1  A    between atoms: S_2  and  C_12 
REMARK    2  A    between atoms: N_7  and  S_2 
REMARK    3  A    between atoms: C_5  and  N_7 
REMARK    4  A    between atoms: O_26  and  C_22 
REMARK    5  A    between atoms: C_27  and  O_26 
ROOT
ATOM      1  S   UNL d   1      13.301  12.576  -3.783  0.00  0.00     0.287 S 
ATOM      2  O   UNL d   1      13.473  11.780  -3.947  0.00  0.00    -0.198 OA
ATOM      3  O   UNL d   1      13.127  13.380  -3.614  0.00  0.00    -0.198 OA
ENDROOT
BRANCH   1   4
ATOM      4  C   UNL d   1      13.522  12.459  -2.985  0.00  0.00     0.107 A 
ATOM      5  C   UNL d   1      14.163  12.876  -2.666  0.00  0.00     0.032 A 
ATOM      6  C   UNL d   1      14.380  12.761  -1.882  0.00  0.00     0.085 A 
ATOM      7  N   UNL d   1      14.979  13.088  -1.417  0.00  0.00    -0.256 N 
ATOM      8  C   UNL d   1      13.959  12.226  -1.407  0.00  0.00     0.085 A 
ATOM      9  C   UNL d   1      14.923  12.754  -0.662  0.00  0.00     0.339 A 
ATOM     10  C   UNL d   1      15.532  13.644  -1.656  0.00  0.00     0.104 C 
ATOM     11  N   UNL d   1      14.304  12.230  -0.655  0.00  0.00    -0.256 N 
ATOM     12  O   UNL d   1      15.413  12.920  -0.015  0.00  0.00    -0.245 OA
ATOM     13  C   UNL d   1      14.057  11.779  -0.015  0.00  0.00     0.104 C 
ATOM     14  C   UNL d   1      13.320  11.813  -1.733  0.00  0.00     0.020 A 
ATOM     15  C   UNL d   1      13.103  11.929  -2.518  0.00  0.00     0.015 A 
ENDBRANCH   1   4
BRANCH   1  16
ATOM     16  N   UNL d   1      13.078  12.700  -4.576  0.00  0.00    -0.132 NA
BRANCH  16  17
ATOM     17  C   UNL d   1      13.213  13.428  -4.937  0.00  0.00     0.206 A 
ATOM     18  N   UNL d   1      13.886  13.547  -5.394  0.00  0.00    -0.220 NA
ATOM     19  C   UNL d   1      13.866  14.326  -5.680  0.00  0.00     0.090 A 
ATOM     20  C   UNL d   1      14.378  14.759  -6.159  0.00  0.00     0.022 A 
ATOM     21  C   UNL d   1      13.174  14.677  -5.392  0.00  0.00     0.052 A 
ATOM     22  C   UNL d   1      14.204  15.533  -6.349  0.00  0.00     0.026 A 
ATOM     23  C   UNL d   1      13.518  15.889  -6.067  0.00  0.00     0.101 A 
ATOM     24  C   UNL d   1      13.002  15.458  -5.586  0.00  0.00     0.033 A 
ATOM     25  S   UNL d   1      12.769  14.141  -4.939  0.00  0.00    -0.046 SA
BRANCH  23  26
ATOM     26  O   UNL d   1      13.338  16.673  -6.258  0.00  0.00    -0.305 OA
BRANCH  26  27
ATOM     27  C   UNL d   1      13.842  17.280  -5.994  0.00  0.00     0.123 C 
ATOM     28  C   UNL d   1      13.693  18.063  -6.207  0.00  0.00     0.029 C 
ENDBRANCH  26  27
ENDBRANCH  23  26
ENDBRANCH  16  17
ENDBRANCH   1  16
TORSDOF 5
ENDMDL
MODEL 2
REMARK VINA RESULT:      58.4      2.384      4.096
REMARK  5 active torsions:
REMARK  status: ('A' for Active; 'I' for Inactive)
REMARK    1  A    between atoms: S_2  and  C_12 
REMARK    2  A    between atoms: N_7  and  S_2 
REMARK    3  A    between atoms: C_5  and  N_7 
REMARK    4  A    between atoms: O_26  and  C_22 
REMARK    5  A    between atoms: C_27  and  O_26 
ROOT
ATOM      1  S   UNL d   1      14.811  13.791  -1.101  0.00  0.00     0.287 S 
ATOM      2  O   UNL d   1      14.358  14.011  -1.763  0.00  0.00    -0.198 OA
ATOM      3  O   UNL d   1      15.269  13.573  -0.433  0.00  0.00    -0.198 OA
ENDROOT
BRANCH   1   4
ATOM      4  C   UNL d   1      14.975  14.597  -0.947  0.00  0.00     0.107 A 
ATOM      5  C   UNL d   1      14.946  15.152  -1.560  0.00  0.00     0.032 A 
ATOM      6  C   UNL d   1      15.107  15.943  -1.408  0.00  0.00     0.085 A 
ATOM      7  N   UNL d   1      15.122  16.611  -1.894  0.00  0.00    -0.256 N 
ATOM      8  C   UNL d   1      15.298  16.189  -0.639  0.00  0.00     0.085 A 
ATOM      9  C   UNL d   1      15.322  17.261  -1.422  0.00  0.00     0.339 A 
ATOM     10  C   UNL d   1      14.968  16.632  -2.698  0.00  0.00     0.104 C 
ATOM     11  N   UNL d   1      15.429  17.006  -0.659  0.00  0.00    -0.256 N 
ATOM     12  O   UNL d   1      15.402  18.046  -1.677  0.00  0.00    -0.245 OA
ATOM     13  C   UNL d   1      15.633  17.473  -0.016  0.00  0.00     0.104 C 
ATOM     14  C   UNL d   1      15.325  15.628  -0.030  0.00  0.00     0.020 A 
ATOM     15  C   UNL d   1      15.164  14.836  -0.183  0.00  0.00     0.015 A 
ENDBRANCH   1   4
BRANCH   1  16
ATOM     16  N   UNL d   1      14.653  12.988  -1.249  0.00  0.00    -0.132 NA
BRANCH  16  17
ATOM     17  C   UNL d   1      14.337  12.752  -1.973  0.00  0.00     0.206 A 
ATOM     18  N   UNL d   1      13.590  12.408  -2.008  0.00  0.00    -0.220 NA
ATOM     19  C   UNL d   1      13.427  12.233  -2.802  0.00  0.00     0.090 A 
ATOM     20  C   UNL d   1      12.779  11.890  -3.177  0.00  0.00     0.022 A 
ATOM     21  C   UNL d   1      14.082  12.474  -3.247  0.00  0.00     0.052 A 
ATOM     22  C   UNL d   1      12.780  11.788  -3.987  0.00  0.00     0.026 A 
ATOM     23  C   UNL d   1      13.427  12.025  -4.437  0.00  0.00     0.101 A 
ATOM     24  C   UNL d   1      14.080  12.369  -4.064  0.00  0.00     0.033 A 
ATOM     25  S   UNL d   1      14.641  12.790  -2.755  0.00  0.00    -0.046 SA
BRANCH  23  26
ATOM     26  O   UNL d   1      13.433  11.923  -5.257  0.00  0.00    -0.305 OA
BRANCH  26  27
ATOM     27  C   UNL d   1      13.255  12.572  -5.746  0.00  0.00     0.123 C 
ATOM     28  C   UNL d   1      13.843  12.906  -6.219  0.00  0.00     0.029 C 
ENDBRANCH  26  27
ENDBRANCH  23  26
ENDBRANCH  16  17
ENDBRANCH   1  16
TORSDOF 5
ENDMDL
