MODEL 1
REMARK VINA RESULT:      -2.2      0.000      0.000
REMARK  3 active torsions:
REMARK  status: ('A' for Active; 'I' for Inactive)
REMARK    1  A    between atoms: N_7  and  C_1 
REMARK       I    between atoms: C_11  and  N_6 
REMARK       I    between atoms: C_10  and  N_7 
REMARK    2  A    between atoms: C_17  and  C_10 
REMARK    3  A    between atoms: C_14  and  C_17 
ROOT
ATOM      1  C   UNL d   1      58.988   0.616  30.335  0.00  0.00     0.124 A 
ATOM      2  C   UNL d   1      59.257   0.644  31.113  0.00  0.00     0.093 A 
ATOM      3  C   UNL d   1      57.923   0.625  31.155  0.00  0.00     0.049 A 
ATOM      4  C   UNL d   1      58.601   0.650  31.620  0.00  0.00     0.021 A 
ATOM      5  S   UNL d   1      58.155   0.604  30.352  0.00  0.00    -0.066 SA
ATOM      6  N   UNL d   1      57.110   0.650  32.334  0.00  0.00    -0.272 N 
ATOM      7  C   UNL d   1      57.178   0.625  31.508  0.00  0.00     0.089 A 
ATOM      8  C   UNL d   1      60.048   0.663  31.347  0.00  0.00     0.103 C 
ATOM      9  C   UNL d   1      56.361   0.650  32.693  0.00  0.00     0.265 C 
ATOM     10  N   UNL d   1      60.841   0.682  31.578  0.00  0.00    -0.191 NA
ATOM     11  C   UNL d   1      58.540   0.675  32.441  0.00  0.00     0.020 A 
ATOM     12  C   UNL d   1      57.792   0.675  32.800  0.00  0.00     0.083 A 
ATOM     13  O   UNL d   1      55.680   0.625  32.226  0.00  0.00    -0.267 OA
ATOM     14  C   UNL d   1      56.294   0.675  33.519  0.00  0.00     0.066 C 
ENDROOT
BRANCH   1  15
ATOM     15  N   UNL d   1      59.444   0.601  29.656  0.00  0.00    -0.201 NA
ATOM     16  C   UNL d   1      59.499  -0.094  29.224  0.00  0.00     0.280 C 
ATOM     17  O   UNL d   1      59.963  -0.113  28.530  0.00  0.00    -0.265 OA
BRANCH  16  18
ATOM     18  C   UNL d   1      59.105  -0.776  29.460  0.00  0.00     0.062 C 
BRANCH  18  19
ATOM     19  C   UNL d   1      59.381  -1.520  29.239  0.00  0.00     0.005 A 
ATOM     20  C   UNL d   1      58.843  -2.146  29.118  0.00  0.00     0.000 A 
ATOM     21  C   UNL d   1      59.131  -2.890  28.896  0.00  0.00     0.000 A 
ATOM     22  C   UNL d   1      58.036  -2.013  29.221  0.00  0.00     0.000 C 
ATOM     23  C   UNL d   1      59.935  -3.021  28.794  0.00  0.00     0.000 A 
ATOM     24  C   UNL d   1      60.467  -2.401  28.914  0.00  0.00     0.000 A 
ATOM     25  C   UNL d   1      60.216  -3.760  28.574  0.00  0.00     0.000 C 
ATOM     26  C   UNL d   1      60.196  -1.650  29.136  0.00  0.00     0.000 A 
ENDBRANCH  18  19
ENDBRANCH  16  18
ENDBRANCH   1  15
TORSDOF 3
ENDMDL
MODEL 2
REMARK VINA RESULT:      -0.4      9.114     10.311
REMARK  3 active torsions:
REMARK  status: ('A' for Active; 'I' for Inactive)
REMARK    1  A    between atoms: N_7  and  C_1 
REMARK       I    between atoms: C_11  and  N_6 
REMARK       I    between atoms: C_10  and  N_7 
REMARK    2  A    between atoms: C_17  and  C_10 
REMARK    3  A    between atoms: C_14  and  C_17 
ROOT
ATOM      1  C   UNL d   1      58.429  -9.817  32.501  0.00  0.00     0.124 A 
ATOM      2  C   UNL d   1      57.965  -9.817  31.820  0.00  0.00     0.093 A 
ATOM      3  C   UNL d   1      59.241  -9.817  31.429  0.00  0.00     0.049 A 
ATOM      4  C   UNL d   1      58.465  -9.817  31.159  0.00  0.00     0.021 A 
ATOM      5  S   UNL d   1      59.229  -9.817  32.265  0.00  0.00    -0.066 SA
ATOM      6  N   UNL d   1      59.714  -9.818  30.078  0.00  0.00    -0.272 N 
ATOM      7  C   UNL d   1      59.867  -9.817  30.893  0.00  0.00     0.089 A 
ATOM      8  C   UNL d   1      57.140  -9.818  31.803  0.00  0.00     0.103 C 
ATOM      9  C   UNL d   1      60.343  -9.818  29.534  0.00  0.00     0.265 C 
ATOM     10  N   UNL d   1      56.314  -9.818  31.788  0.00  0.00    -0.191 NA
ATOM     11  C   UNL d   1      58.306  -9.818  30.350  0.00  0.00     0.020 A 
ATOM     12  C   UNL d   1      58.934  -9.818  29.807  0.00  0.00     0.083 A 
ATOM     13  O   UNL d   1      61.123  -9.817  29.805  0.00  0.00    -0.267 OA
ATOM     14  C   UNL d   1      60.190  -9.818  28.719  0.00  0.00     0.066 C 
ENDROOT
BRANCH   1  15
ATOM     15  N   UNL d   1      58.169  -9.817  33.276  0.00  0.00    -0.201 NA
ATOM     16  C   UNL d   1      58.664  -9.534  33.866  0.00  0.00     0.280 C 
ATOM     17  O   UNL d   1      58.402  -9.532  34.659  0.00  0.00    -0.265 OA
BRANCH  16  18
ATOM     18  C   UNL d   1      59.416  -9.251  33.693  0.00  0.00     0.062 C 
BRANCH  18  19
ATOM     19  C   UNL d   1      59.845  -8.825  34.253  0.00  0.00     0.005 A 
ATOM     20  C   UNL d   1      60.640  -9.023  34.409  0.00  0.00     0.000 A 
ATOM     21  C   UNL d   1      61.062  -8.588  34.973  0.00  0.00     0.000 A 
ATOM     22  C   UNL d   1      60.990  -9.647  34.001  0.00  0.00     0.000 C 
ATOM     23  C   UNL d   1      60.712  -7.966  35.380  0.00  0.00     0.000 A 
ATOM     24  C   UNL d   1      59.925  -7.770  35.224  0.00  0.00     0.000 A 
ATOM     25  C   UNL d   1      61.133  -7.538  35.937  0.00  0.00     0.000 C 
ATOM     26  C   UNL d   1      59.488  -8.195  34.663  0.00  0.00     0.000 A 
ENDBRANCH  18  19
ENDBRANCH  16  18
ENDBRANCH   1  15
TORSDOF 3
ENDMDL
