MODEL 1
REMARK VINA RESULT:      55.2      0.000      0.000
REMARK  6 active torsions:
REMARK  status: ('A' for Active; 'I' for Inactive)
REMARK    1  A    between atoms: C_5  and  C_4 
REMARK    2  A    between atoms: C_6  and  C_5 
REMARK       I    between atoms: N_9  and  C_6 
REMARK    3  A    between atoms: C_10  and  N_9 
REMARK    4  A    between atoms: O_14  and  C_13 
REMARK    5  A    between atoms: C_19  and  O_14 
REMARK    6  A    between atoms: C_20  and  C_19 
ROOT
ATOM      1  C   UNL d   1     -49.183  28.532  33.970  0.00  0.00     0.281 C 
ATOM      2  N   UNL d   1     -49.036  29.295  34.192  0.00  0.00    -0.206 NA
ATOM      3  O   UNL d   1     -48.740  27.927  34.289  0.00  0.00    -0.265 OA
ENDROOT
BRANCH   1   4
ATOM      4  C   UNL d   1     -49.773  28.381  33.432  0.00  0.00     0.086 C 
BRANCH   4   5
ATOM      5  C   UNL d   1     -50.139  27.640  33.405  0.00  0.00     0.144 A 
ATOM      6  C   UNL d   1     -50.963  27.583  33.387  0.00  0.00     0.297 A 
ATOM      7  N   UNL d   1     -51.335  26.846  33.360  0.00  0.00    -0.205 NA
ATOM      8  O   UNL d   1     -51.434  28.266  33.394  0.00  0.00    -0.264 OA
ATOM      9  C   UNL d   1     -50.863  26.156  33.353  0.00  0.00     0.102 A 
ATOM     10  C   UNL d   1     -50.040  26.213  33.371  0.00  0.00     0.099 A 
ATOM     11  C   UNL d   1     -51.236  25.420  33.326  0.00  0.00     0.021 A 
ATOM     12  N   UNL d   1     -49.674  26.961  33.398  0.00  0.00    -0.239 NA
ATOM     13  C   UNL d   1     -49.574  25.535  33.364  0.00  0.00     0.021 A 
ATOM     14  C   UNL d   1     -49.941  24.799  33.338  0.00  0.00     0.002 A 
ATOM     15  C   UNL d   1     -50.765  24.742  33.319  0.00  0.00     0.002 A 
ENDBRANCH   4   5
ENDBRANCH   1   4
BRANCH   2  16
ATOM     16  C   UNL d   1     -48.384  29.588  34.803  0.00  0.00     0.107 A 
ATOM     17  C   UNL d   1     -48.029  30.340  34.831  0.00  0.00     0.118 A 
ATOM     18  C   UNL d   1     -47.470  30.461  35.423  0.00  0.00     0.026 A 
ATOM     19  C   UNL d   1     -47.261  29.846  35.982  0.00  0.00     0.002 A 
ATOM     20  C   UNL d   1     -47.623  29.139  35.922  0.00  0.00     0.002 A 
ATOM     21  C   UNL d   1     -48.184  28.996  35.340  0.00  0.00     0.021 A 
BRANCH  17  22
ATOM     22  O   UNL d   1     -48.218  30.954  34.296  0.00  0.00    -0.304 OA
BRANCH  22  23
ATOM     23  C   UNL d   1     -47.661  31.553  34.140  0.00  0.00     0.123 C 
BRANCH  23  24
ATOM     24  C   UNL d   1     -47.862  32.378  34.218  0.00  0.00     0.027 C 
ATOM     25  C   UNL d   1     -47.354  32.932  34.596  0.00  0.00     0.002 C 
ENDBRANCH  23  24
ENDBRANCH  22  23
ENDBRANCH  17  22
ENDBRANCH   2  16
TORSDOF 6
ENDMDL
