MODEL 1
REMARK VINA RESULT:      82.3      0.000      0.000
REMARK  6 active torsions:
REMARK  status: ('A' for Active; 'I' for Inactive)
REMARK    1  A    between atoms: C_14  and  N_1 
REMARK    2  A    between atoms: S_12  and  C_3 
REMARK    3  A    between atoms: C_4  and  N_11 
REMARK    4  A    between atoms: C_15  and  C_8 
REMARK       I    between atoms: N_11  and  C_13 
REMARK    5  A    between atoms: C_17  and  S_12 
REMARK    6  A    between atoms: C_13  and  C_17 
ROOT
ATOM      1  N   UNL d   1      60.459  48.569  50.853  0.00  0.00    -0.018 NA
ATOM      2  C   UNL d   1      60.557  47.789  50.601  0.00  0.00     0.302 C 
ATOM      3  O   UNL d   1      59.924  47.363  50.321  0.00  0.00    -0.264 OA
ENDROOT
BRANCH   2   4
ATOM      4  C   UNL d   1      61.301  47.443  50.633  0.00  0.00     0.101 C 
BRANCH   4   5
ATOM      5  S   UNL d   1      61.433  46.710  50.282  0.00  0.00    -0.041 SA
BRANCH   5   6
ATOM      6  C   UNL d   1      62.060  46.607  49.762  0.00  0.00     0.219 A 
ATOM      7  N   UNL d   1      62.102  45.921  49.288  0.00  0.00    -0.186 N 
ATOM      8  N   UNL d   1      62.776  45.967  48.830  0.00  0.00    -0.038 NA
ATOM      9  N   UNL d   1      63.157  46.672  49.009  0.00  0.00    -0.022 NA
ATOM     10  N   UNL d   1      62.716  47.071  49.587  0.00  0.00    -0.101 NA
BRANCH   7  11
ATOM     11  C   UNL d   1      61.569  45.286  49.263  0.00  0.00     0.087 A 
ATOM     12  C   UNL d   1      60.847  45.365  48.879  0.00  0.00     0.019 A 
ATOM     13  C   UNL d   1      60.318  44.731  48.856  0.00  0.00     0.002 A 
ATOM     14  C   UNL d   1      60.515  44.018  49.219  0.00  0.00     0.000 A 
ATOM     15  C   UNL d   1      61.248  43.939  49.608  0.00  0.00     0.002 A 
ATOM     16  C   UNL d   1      61.770  44.582  49.625  0.00  0.00     0.019 A 
ENDBRANCH   7  11
ENDBRANCH   5   6
ENDBRANCH   4   5
ENDBRANCH   2   4
BRANCH   1  17
ATOM     17  C   UNL d   1      59.707  48.926  50.823  0.00  0.00     0.760 A 
ATOM     18  N   UNL d   1      59.101  48.769  50.275  0.00  0.00    -0.051 NA
ATOM     19  C   UNL d   1      58.462  49.253  50.462  0.00  0.00     0.147 A 
ATOM     20  S   UNL d   1      58.667  49.701  51.112  0.00  0.00     0.052 SA
ATOM     21  N   UNL d   1      59.432  49.496  51.330  0.00  0.00    -0.019 NA
BRANCH  19  22
ATOM     22  C   UNL d   1      57.712  49.337  50.112  0.00  0.00     0.026 A 
ATOM     23  C   UNL d   1      57.645  49.623  49.341  0.00  0.00     0.002 A 
ATOM     24  C   UNL d   1      56.898  49.705  48.998  0.00  0.00     0.000 A 
ATOM     25  C   UNL d   1      56.235  49.505  49.416  0.00  0.00     0.000 A 
ATOM     26  C   UNL d   1      56.291  49.216  50.194  0.00  0.00     0.000 A 
ATOM     27  C   UNL d   1      57.038  49.134  50.538  0.00  0.00     0.002 A 
ENDBRANCH  19  22
ENDBRANCH   1  17
TORSDOF 6
ENDMDL
MODEL 2
REMARK VINA RESULT:      83.2      1.387      5.580
REMARK  6 active torsions:
REMARK  status: ('A' for Active; 'I' for Inactive)
REMARK    1  A    between atoms: C_14  and  N_1 
REMARK    2  A    between atoms: S_12  and  C_3 
REMARK    3  A    between atoms: C_4  and  N_11 
REMARK    4  A    between atoms: C_15  and  C_8 
REMARK       I    between atoms: N_11  and  C_13 
REMARK    5  A    between atoms: C_17  and  S_12 
REMARK    6  A    between atoms: C_13  and  C_17 
ROOT
ATOM      1  N   UNL d   1      61.805  46.570  49.625  0.00  0.00    -0.018 NA
ATOM      2  C   UNL d   1      61.334  47.059  50.096  0.00  0.00     0.302 C 
ATOM      3  O   UNL d   1      60.811  46.739  50.628  0.00  0.00    -0.264 OA
ENDROOT
BRANCH   2   4
ATOM      4  C   UNL d   1      61.396  47.875  50.023  0.00  0.00     0.101 C 
BRANCH   4   5
ATOM      5  S   UNL d   1      60.797  48.364  50.307  0.00  0.00    -0.041 SA
BRANCH   5   6
ATOM      6  C   UNL d   1      60.919  48.819  50.980  0.00  0.00     0.219 A 
ATOM      7  N   UNL d   1      60.318  49.329  51.253  0.00  0.00    -0.186 N 
ATOM      8  N   UNL d   1      60.589  49.707  51.924  0.00  0.00    -0.038 NA
ATOM      9  N   UNL d   1      61.351  49.440  52.076  0.00  0.00    -0.022 NA
ATOM     10  N   UNL d   1      61.558  48.889  51.492  0.00  0.00    -0.101 NA
BRANCH   7  11
ATOM     11  C   UNL d   1      59.568  49.454  50.924  0.00  0.00     0.087 A 
ATOM     12  C   UNL d   1      59.468  49.463  50.108  0.00  0.00     0.019 A 
ATOM     13  C   UNL d   1      58.719  49.588  49.783  0.00  0.00     0.002 A 
ATOM     14  C   UNL d   1      58.070  49.703  50.277  0.00  0.00     0.000 A 
ATOM     15  C   UNL d   1      58.172  49.694  51.105  0.00  0.00     0.002 A 
ATOM     16  C   UNL d   1      58.928  49.568  51.420  0.00  0.00     0.019 A 
ENDBRANCH   7  11
ENDBRANCH   5   6
ENDBRANCH   4   5
ENDBRANCH   2   4
BRANCH   1  17
ATOM     17  C   UNL d   1      61.747  45.742  49.695  0.00  0.00     0.760 A 
ATOM     18  N   UNL d   1      62.034  45.272  50.319  0.00  0.00    -0.051 NA
ATOM     19  C   UNL d   1      61.848  44.488  50.147  0.00  0.00     0.147 A 
ATOM     20  S   UNL d   1      61.456  44.472  49.432  0.00  0.00     0.052 SA
ATOM     21  N   UNL d   1      61.396  45.245  49.159  0.00  0.00    -0.019 NA
BRANCH  19  22
ATOM     22  C   UNL d   1      61.994  43.783  50.563  0.00  0.00     0.026 A 
ATOM     23  C   UNL d   1      62.515  43.221  50.256  0.00  0.00     0.002 A 
ATOM     24  C   UNL d   1      62.656  42.522  50.673  0.00  0.00     0.000 A 
ATOM     25  C   UNL d   1      62.285  42.389  51.380  0.00  0.00     0.000 A 
ATOM     26  C   UNL d   1      61.758  42.949  51.699  0.00  0.00     0.000 A 
ATOM     27  C   UNL d   1      61.616  43.648  51.282  0.00  0.00     0.002 A 
ENDBRANCH  19  22
ENDBRANCH   1  17
TORSDOF 6
ENDMDL
