MODEL 1
REMARK VINA RESULT:      48.9      0.000      0.000
REMARK  2 active torsions:
REMARK  status: ('A' for Active; 'I' for Inactive)
REMARK    1  A    between atoms: C_9  and  C_3 
REMARK    2  A    between atoms: C_8  and  C_4 
ROOT
ATOM      1  N   UNL d   1      14.183  13.810  -2.502  0.00  0.00    -0.242 NA
ATOM      2  N   UNL d   1      13.909  12.257  -2.979  0.00  0.00    -0.242 NA
ATOM      3  C   UNL d   1      13.865  13.657  -3.246  0.00  0.00     0.099 A 
ATOM      4  C   UNL d   1      13.729  12.885  -3.484  0.00  0.00     0.099 A 
ATOM      5  C   UNL d   1      14.363  13.186  -1.999  0.00  0.00     0.101 A 
ATOM      6  C   UNL d   1      14.226  12.414  -2.237  0.00  0.00     0.099 A 
ATOM      7  C   UNL d   1      14.680  13.340  -1.257  0.00  0.00     0.042 A 
ATOM      8  C   UNL d   1      14.405  11.787  -1.735  0.00  0.00     0.022 A 
ATOM      9  C   UNL d   1      14.860  12.715  -0.753  0.00  0.00     0.104 A 
ATOM     10  N   UNL d   1      15.175  12.870  -0.015  0.00  0.00    -0.148 N 
ATOM     11  C   UNL d   1      14.723  11.943  -0.990  0.00  0.00     0.023 A 
ENDROOT
BRANCH   3  12
ATOM     12  C   UNL d   1      13.687  14.280  -3.744  0.00  0.00     0.019 A 
ATOM     13  C   UNL d   1      12.977  14.703  -3.643  0.00  0.00     0.002 A 
ATOM     14  C   UNL d   1      12.791  15.336  -4.145  0.00  0.00     0.000 A 
ATOM     15  C   UNL d   1      13.316  15.551  -4.754  0.00  0.00     0.000 A 
ATOM     16  C   UNL d   1      14.029  15.122  -4.850  0.00  0.00     0.000 A 
ATOM     17  C   UNL d   1      14.209  14.494  -4.348  0.00  0.00     0.002 A 
ENDBRANCH   3  12
BRANCH   4  18
ATOM     18  C   UNL d   1      13.413  12.727  -4.222  0.00  0.00     0.019 A 
ATOM     19  C   UNL d   1      13.191  11.947  -4.415  0.00  0.00     0.002 A 
ATOM     20  C   UNL d   1      12.869  11.779  -5.163  0.00  0.00     0.000 A 
ATOM     21  C   UNL d   1      12.769  12.391  -5.722  0.00  0.00     0.000 A 
ATOM     22  C   UNL d   1      12.989  13.170  -5.531  0.00  0.00     0.000 A 
ATOM     23  C   UNL d   1      13.312  13.339  -4.781  0.00  0.00     0.002 A 
ENDBRANCH   4  18
TORSDOF 2
ENDMDL
