MODEL 1
REMARK VINA RESULT:      36.5      0.000      0.000
REMARK  7 active torsions:
REMARK  status: ('A' for Active; 'I' for Inactive)
REMARK    1  A    between atoms: C_2  and  S_1 
REMARK    2  A    between atoms: N_6  and  S_1 
REMARK    3  A    between atoms: O_14  and  C_5 
REMARK    4  A    between atoms: C_15  and  N_6 
REMARK    5  A    between atoms: O_16  and  C_7 
REMARK    6  A    between atoms: C_11  and  C_19 
REMARK    7  A    between atoms: C_19  and  C_15 
ROOT
ATOM      1  C   UNL d   1      45.667 -17.742  39.656  0.00  0.00     0.112 C 
ENDROOT
BRANCH   1   2
ATOM      2  N   UNL d   1      46.003 -17.968  40.370  0.00  0.00    -0.157 NA
BRANCH   2   3
ATOM      3  S   UNL d   1      46.325 -18.723  40.464  0.00  0.00     0.285 S 
ATOM      4  O   UNL d   1      46.344 -18.803  39.643  0.00  0.00    -0.198 OA
ATOM      5  O   UNL d   1      46.644 -19.471  40.544  0.00  0.00    -0.198 OA
BRANCH   3   6
ATOM      6  C   UNL d   1      46.303 -18.634  41.285  0.00  0.00     0.105 A 
ATOM      7  C   UNL d   1      46.469 -19.275  41.781  0.00  0.00     0.013 A 
ATOM      8  C   UNL d   1      46.444 -19.178  42.600  0.00  0.00     0.001 A 
ATOM      9  C   UNL d   1      46.609 -19.814  43.097  0.00  0.00     0.000 C 
ATOM     10  C   UNL d   1      46.254 -18.440  42.923  0.00  0.00     0.000 A 
ATOM     11  C   UNL d   1      46.089 -17.803  42.427  0.00  0.00     0.001 A 
ATOM     12  C   UNL d   1      46.114 -17.900  41.608  0.00  0.00     0.013 A 
ENDBRANCH   3   6
ENDBRANCH   2   3
ENDBRANCH   1   2
BRANCH   1  13
ATOM     13  C   UNL d   1      45.853 -17.010  39.341  0.00  0.00     0.022 C 
BRANCH  13  14
ATOM     14  C   UNL d   1      45.455 -16.742  38.679  0.00  0.00     0.004 A 
ATOM     15  C   UNL d   1      45.800 -16.182  38.180  0.00  0.00     0.026 A 
ATOM     16  C   UNL d   1      45.395 -15.913  37.513  0.00  0.00     0.116 A 
ATOM     17  C   UNL d   1      44.632 -16.214  37.347  0.00  0.00     0.116 A 
ATOM     18  C   UNL d   1      44.296 -16.766  37.841  0.00  0.00     0.026 A 
ATOM     19  C   UNL d   1      44.697 -17.035  38.505  0.00  0.00     0.002 A 
BRANCH  16  20
ATOM     20  O   UNL d   1      45.743 -15.353  37.018  0.00  0.00    -0.326 OA
ATOM     21  C   UNL d   1      46.519 -14.964  37.103  0.00  0.00     0.181 C 
ENDBRANCH  16  20
BRANCH  17  22
ATOM     22  O   UNL d   1      44.226 -15.964  36.703  0.00  0.00    -0.326 OA
ATOM     23  C   UNL d   1      43.438 -15.766  36.753  0.00  0.00     0.181 C 
ENDBRANCH  17  22
ENDBRANCH  13  14
ENDBRANCH   1  13
TORSDOF 7
ENDMDL
