MODEL 1
REMARK VINA RESULT:      13.5      0.000      0.000
REMARK  3 active torsions:
REMARK  status: ('A' for Active; 'I' for Inactive)
REMARK    1  A    between atoms: N_2  and  C_1 
REMARK    2  A    between atoms: C_5  and  C_1 
REMARK    3  A    between atoms: C_3  and  N_2 
ROOT
ATOM      1  N   UNL d   1      46.247 -17.346  43.713  0.00  0.00    -0.233 NA
ENDROOT
BRANCH   1   2
ATOM      2  C   UNL d   1      45.859 -17.070  44.376  0.00  0.00     0.153 C 
ATOM      3  S   UNL d   1      45.589 -17.595  44.955  0.00  0.00    -0.056 SA
BRANCH   2   4
ATOM      4  C   UNL d   1      45.731 -16.261  44.473  0.00  0.00     0.109 A 
ATOM      5  N   UNL d   1      46.321 -15.722  44.260  0.00  0.00    -0.242 NA
ATOM      6  C   UNL d   1      46.194 -14.914  44.358  0.00  0.00     0.099 A 
ATOM      7  C   UNL d   1      45.479 -14.642  44.667  0.00  0.00     0.021 A 
ATOM      8  C   UNL d   1      44.884 -15.175  44.882  0.00  0.00     0.003 A 
ATOM      9  C   UNL d   1      45.010 -15.987  44.785  0.00  0.00     0.021 A 
ENDBRANCH   2   4
ENDBRANCH   1   2
BRANCH   1  10
ATOM     10  C   UNL d   1      46.381 -18.161  43.623  0.00  0.00     0.082 A 
ATOM     11  C   UNL d   1      46.445 -18.476  42.863  0.00  0.00     0.018 A 
ATOM     12  C   UNL d   1      46.579 -19.291  42.773  0.00  0.00     0.002 A 
ATOM     13  C   UNL d   1      46.377 -17.993  42.201  0.00  0.00     0.002 C 
ATOM     14  C   UNL d   1      46.646 -19.774  43.435  0.00  0.00     0.000 A 
ATOM     15  C   UNL d   1      46.580 -19.442  44.192  0.00  0.00     0.002 A 
ATOM     16  C   UNL d   1      46.447 -18.637  44.283  0.00  0.00     0.019 A 
ATOM     17  C   UNL d   1      46.647 -19.923  44.863  0.00  0.00     0.000 C 
ENDBRANCH   1  10
TORSDOF 3
ENDMDL
