MODEL 1
REMARK VINA RESULT:      -3.0      0.000      0.000
REMARK  5 active torsions:
REMARK  status: ('A' for Active; 'I' for Inactive)
REMARK    1  A    between atoms: C_3  and  C_1 
REMARK    2  A    between atoms: C_4  and  C_3 
REMARK    3  A    between atoms: C_7  and  C_4 
REMARK    4  A    between atoms: C_10  and  C_7 
REMARK    5  A    between atoms: O_19  and  C_9 
ROOT
ATOM      1  C   UNL d   1      32.396  17.134 -23.831  0.00  0.00     0.199 C 
ATOM      2  O   UNL d   1      33.048  16.859 -24.255  0.00  0.00    -0.286 OA
ENDROOT
BRANCH   1   3
ATOM      3  C   UNL d   1      31.672  16.749 -23.895  0.00  0.00     0.078 A 
ATOM      4  C   UNL d   1      31.573  15.997 -23.569  0.00  0.00     0.201 A 
ATOM      5  C   UNL d   1      30.844  15.611 -23.634  0.00  0.00     0.066 A 
ATOM      6  O   UNL d   1      32.198  15.627 -23.178  0.00  0.00    -0.286 OA
ATOM      7  C   UNL d   1      30.217  15.978 -24.025  0.00  0.00     0.097 A 
ATOM      8  C   UNL d   1      30.316  16.729 -24.351  0.00  0.00     0.025 A 
ATOM      9  C   UNL d   1      31.041  17.114 -24.286  0.00  0.00     0.008 A 
BRANCH   7  10
ATOM     10  O   UNL d   1      29.486  15.592 -24.091  0.00  0.00    -0.328 OA
ATOM     11  C   UNL d   1      28.785  16.014 -23.991  0.00  0.00     0.181 C 
ENDBRANCH   7  10
ENDBRANCH   1   3
BRANCH   1  12
ATOM     12  C   UNL d   1      32.468  17.794 -23.344  0.00  0.00     0.042 C 
BRANCH  12  13
ATOM     13  C   UNL d   1      33.163  18.249 -23.357  0.00  0.00     0.003 C 
BRANCH  13  14
ATOM     14  C   UNL d   1      33.183  18.984 -22.990  0.00  0.00     0.000 A 
ATOM     15  C   UNL d   1      33.221  19.668 -23.451  0.00  0.00     0.001 A 
ATOM     16  C   UNL d   1      33.241  20.404 -23.085  0.00  0.00     0.011 A 
ATOM     17  C   UNL d   1      33.221  20.439 -22.239  0.00  0.00     0.058 A 
ATOM     18  C   UNL d   1      33.185  19.772 -21.798  0.00  0.00     0.011 A 
ATOM     19 CL   UNL d   1      33.241  21.165 -21.864  0.00  0.00    -0.082 Cl
ATOM     20  C   UNL d   1      33.165  19.036 -22.165  0.00  0.00     0.001 A 
ENDBRANCH  13  14
ENDBRANCH  12  13
ENDBRANCH   1  12
TORSDOF 5
ENDMDL
MODEL 2
REMARK VINA RESULT:      -2.6      2.797      5.069
REMARK  5 active torsions:
REMARK  status: ('A' for Active; 'I' for Inactive)
REMARK    1  A    between atoms: C_3  and  C_1 
REMARK    2  A    between atoms: C_4  and  C_3 
REMARK    3  A    between atoms: C_7  and  C_4 
REMARK    4  A    between atoms: C_10  and  C_7 
REMARK    5  A    between atoms: O_19  and  C_9 
ROOT
ATOM      1  C   UNL d   1      33.027  20.067 -21.841  0.00  0.00     0.199 C 
ATOM      2  O   UNL d   1      33.238  19.665 -21.152  0.00  0.00    -0.286 OA
ENDROOT
BRANCH   1   3
ATOM      3  C   UNL d   1      32.930  20.884 -21.829  0.00  0.00     0.078 A 
ATOM      4  C   UNL d   1      32.542  21.244 -21.197  0.00  0.00     0.201 A 
ATOM      5  C   UNL d   1      32.446  22.066 -21.187  0.00  0.00     0.066 A 
ATOM      6  O   UNL d   1      32.249  20.790 -20.574  0.00  0.00    -0.286 OA
ATOM      7  C   UNL d   1      32.738  22.523 -21.807  0.00  0.00     0.097 A 
ATOM      8  C   UNL d   1      33.126  22.162 -22.439  0.00  0.00     0.025 A 
ATOM      9  C   UNL d   1      33.222  21.344 -22.451  0.00  0.00     0.008 A 
BRANCH   7  10
ATOM     10  O   UNL d   1      32.642  23.347 -21.798  0.00  0.00    -0.328 OA
ATOM     11  C   UNL d   1      31.889  23.676 -21.859  0.00  0.00     0.181 C 
ENDBRANCH   7  10
ENDBRANCH   1   3
BRANCH   1  12
ATOM     12  C   UNL d   1      32.913  19.650 -22.542  0.00  0.00     0.042 C 
BRANCH  12  13
ATOM     13  C   UNL d   1      33.113  18.845 -22.588  0.00  0.00     0.003 C 
BRANCH  13  14
ATOM     14  C   UNL d   1      32.855  18.390 -23.222  0.00  0.00     0.000 A 
ATOM     15  C   UNL d   1      33.239  18.453 -23.950  0.00  0.00     0.001 A 
ATOM     16  C   UNL d   1      32.981  17.997 -24.586  0.00  0.00     0.011 A 
ATOM     17  C   UNL d   1      32.325  17.473 -24.472  0.00  0.00     0.058 A 
ATOM     18  C   UNL d   1      31.959  17.417 -23.763  0.00  0.00     0.011 A 
ATOM     19 CL   UNL d   1      32.061  17.016 -25.096  0.00  0.00    -0.082 Cl
ATOM     20  C   UNL d   1      32.217  17.873 -23.129  0.00  0.00     0.001 A 
ENDBRANCH  13  14
ENDBRANCH  12  13
ENDBRANCH   1  12
TORSDOF 5
ENDMDL
MODEL 3
REMARK VINA RESULT:      -2.6      4.433      6.371
REMARK  5 active torsions:
REMARK  status: ('A' for Active; 'I' for Inactive)
REMARK    1  A    between atoms: C_3  and  C_1 
REMARK    2  A    between atoms: C_4  and  C_3 
REMARK    3  A    between atoms: C_7  and  C_4 
REMARK    4  A    between atoms: C_10  and  C_7 
REMARK    5  A    between atoms: O_19  and  C_9 
ROOT
ATOM      1  C   UNL d   1      32.206  22.809 -20.507  0.00  0.00     0.199 C 
ATOM      2  O   UNL d   1      31.566  23.268 -20.754  0.00  0.00    -0.286 OA
ENDROOT
BRANCH   1   3
ATOM      3  C   UNL d   1      32.456  22.171 -20.963  0.00  0.00     0.078 A 
ATOM      4  C   UNL d   1      32.933  22.298 -21.624  0.00  0.00     0.201 A 
ATOM      5  C   UNL d   1      33.183  21.655 -22.081  0.00  0.00     0.066 A 
ATOM      6  O   UNL d   1      33.162  23.062 -21.833  0.00  0.00    -0.286 OA
ATOM      7  C   UNL d   1      32.957  20.890 -21.876  0.00  0.00     0.097 A 
ATOM      8  C   UNL d   1      32.480  20.764 -21.215  0.00  0.00     0.025 A 
ATOM      9  C   UNL d   1      32.230  21.402 -20.759  0.00  0.00     0.008 A 
BRANCH   7  10
ATOM     10  O   UNL d   1      33.207  20.245 -22.334  0.00  0.00    -0.328 OA
ATOM     11  C   UNL d   1      32.826  19.518 -22.267  0.00  0.00     0.181 C 
ENDBRANCH   7  10
ENDBRANCH   1   3
BRANCH   1  12
ATOM     12  C   UNL d   1      32.595  22.988 -19.804  0.00  0.00     0.042 C 
BRANCH  12  13
ATOM     13  C   UNL d   1      32.238  23.488 -19.244  0.00  0.00     0.003 C 
BRANCH  13  14
ATOM     14  C   UNL d   1      32.399  23.393 -18.443  0.00  0.00     0.000 A 
ATOM     15  C   UNL d   1      31.875  23.702 -17.885  0.00  0.00     0.001 A 
ATOM     16  C   UNL d   1      32.036  23.608 -17.083  0.00  0.00     0.011 A 
ATOM     17  C   UNL d   1      32.738  23.194 -16.853  0.00  0.00     0.058 A 
ATOM     18  C   UNL d   1      33.241  22.898 -17.401  0.00  0.00     0.011 A 
ATOM     19 CL   UNL d   1      32.907  23.095 -16.060  0.00  0.00    -0.082 Cl
ATOM     20  C   UNL d   1      33.080  22.992 -18.202  0.00  0.00     0.001 A 
ENDBRANCH  13  14
ENDBRANCH  12  13
ENDBRANCH   1  12
TORSDOF 5
ENDMDL
MODEL 4
REMARK VINA RESULT:      -2.5      1.175      1.767
REMARK  5 active torsions:
REMARK  status: ('A' for Active; 'I' for Inactive)
REMARK    1  A    between atoms: C_3  and  C_1 
REMARK    2  A    between atoms: C_4  and  C_3 
REMARK    3  A    between atoms: C_7  and  C_4 
REMARK    4  A    between atoms: C_10  and  C_7 
REMARK    5  A    between atoms: O_19  and  C_9 
ROOT
ATOM      1  C   UNL d   1      31.099  16.212 -24.009  0.00  0.00     0.199 C 
ATOM      2  O   UNL d   1      31.588  15.597 -24.260  0.00  0.00    -0.286 OA
ENDROOT
BRANCH   1   3
ATOM      3  C   UNL d   1      30.300  16.074 -23.869  0.00  0.00     0.078 A 
ATOM      4  C   UNL d   1      30.062  15.700 -23.173  0.00  0.00     0.201 A 
ATOM      5  C   UNL d   1      29.259  15.561 -23.033  0.00  0.00     0.066 A 
ATOM      6  O   UNL d   1      30.621  15.464 -22.614  0.00  0.00    -0.286 OA
ATOM      7  C   UNL d   1      28.697  15.796 -23.589  0.00  0.00     0.097 A 
ATOM      8  C   UNL d   1      28.936  16.169 -24.285  0.00  0.00     0.025 A 
ATOM      9  C   UNL d   1      29.735  16.308 -24.425  0.00  0.00     0.008 A 
BRANCH   7  10
ATOM     10  O   UNL d   1      27.891  15.657 -23.450  0.00  0.00    -0.328 OA
ATOM     11  C   UNL d   1      27.423  16.245 -23.111  0.00  0.00     0.181 C 
ENDBRANCH   7  10
ENDBRANCH   1   3
BRANCH   1  12
ATOM     12  C   UNL d   1      31.410  16.967 -23.900  0.00  0.00     0.042 C 
BRANCH  12  13
ATOM     13  C   UNL d   1      32.136  17.174 -24.246  0.00  0.00     0.003 C 
BRANCH  13  14
ATOM     14  C   UNL d   1      32.413  17.947 -24.195  0.00  0.00     0.000 A 
ATOM     15  C   UNL d   1      32.541  18.379 -24.886  0.00  0.00     0.001 A 
ATOM     16  C   UNL d   1      32.819  19.152 -24.836  0.00  0.00     0.011 A 
ATOM     17  C   UNL d   1      32.965  19.484 -24.071  0.00  0.00     0.058 A 
ATOM     18  C   UNL d   1      32.839  19.059 -23.405  0.00  0.00     0.011 A 
ATOM     19 CL   UNL d   1      33.241  20.251 -24.010  0.00  0.00    -0.082 Cl
ATOM     20  C   UNL d   1      32.562  18.286 -23.455  0.00  0.00     0.001 A 
ENDBRANCH  13  14
ENDBRANCH  12  13
ENDBRANCH   1  12
TORSDOF 5
ENDMDL
MODEL 5
REMARK VINA RESULT:      -1.4      3.459      5.938
REMARK  5 active torsions:
REMARK  status: ('A' for Active; 'I' for Inactive)
REMARK    1  A    between atoms: C_3  and  C_1 
REMARK    2  A    between atoms: C_4  and  C_3 
REMARK    3  A    between atoms: C_7  and  C_4 
REMARK    4  A    between atoms: C_10  and  C_7 
REMARK    5  A    between atoms: O_19  and  C_9 
ROOT
ATOM      1  C   UNL d   1      32.437  21.083 -21.074  0.00  0.00     0.199 C 
ATOM      2  O   UNL d   1      31.707  20.712 -20.981  0.00  0.00    -0.286 OA
ENDROOT
BRANCH   1   3
ATOM      3  C   UNL d   1      32.629  21.736 -20.612  0.00  0.00     0.078 A 
ATOM      4  C   UNL d   1      32.405  22.493 -20.852  0.00  0.00     0.201 A 
ATOM      5  C   UNL d   1      32.598  23.149 -20.386  0.00  0.00     0.066 A 
ATOM      6  O   UNL d   1      31.988  22.600 -21.556  0.00  0.00    -0.286 OA
ATOM      7  C   UNL d   1      33.014  23.045 -19.682  0.00  0.00     0.097 A 
ATOM      8  C   UNL d   1      33.239  22.289 -19.442  0.00  0.00     0.025 A 
ATOM      9  C   UNL d   1      33.047  21.635 -19.905  0.00  0.00     0.008 A 
BRANCH   7  10
ATOM     10  O   UNL d   1      33.209  23.702 -19.214  0.00  0.00    -0.328 OA
ATOM     11  C   UNL d   1      33.240  23.630 -18.394  0.00  0.00     0.181 C 
ENDBRANCH   7  10
ENDBRANCH   1   3
BRANCH   1  12
ATOM     12  C   UNL d   1      32.976  20.801 -21.629  0.00  0.00     0.042 C 
BRANCH  12  13
ATOM     13  C   UNL d   1      33.077  19.984 -21.736  0.00  0.00     0.003 C 
BRANCH  13  14
ATOM     14  C   UNL d   1      33.100  19.665 -22.494  0.00  0.00     0.000 A 
ATOM     15  C   UNL d   1      33.006  18.852 -22.596  0.00  0.00     0.001 A 
ATOM     16  C   UNL d   1      33.029  18.532 -23.354  0.00  0.00     0.011 A 
ATOM     17  C   UNL d   1      33.150  19.052 -24.012  0.00  0.00     0.058 A 
ATOM     18  C   UNL d   1      33.241  19.840 -23.905  0.00  0.00     0.011 A 
ATOM     19 CL   UNL d   1      33.175  18.746 -24.769  0.00  0.00    -0.082 Cl
ATOM     20  C   UNL d   1      33.217  20.158 -23.147  0.00  0.00     0.001 A 
ENDBRANCH  13  14
ENDBRANCH  12  13
ENDBRANCH   1  12
TORSDOF 5
ENDMDL
MODEL 6
REMARK VINA RESULT:      -1.0      2.343      4.591
REMARK  5 active torsions:
REMARK  status: ('A' for Active; 'I' for Inactive)
REMARK    1  A    between atoms: C_3  and  C_1 
REMARK    2  A    between atoms: C_4  and  C_3 
REMARK    3  A    between atoms: C_7  and  C_4 
REMARK    4  A    between atoms: C_10  and  C_7 
REMARK    5  A    between atoms: O_19  and  C_9 
ROOT
ATOM      1  C   UNL d   1      32.948  18.814 -24.095  0.00  0.00     0.199 C 
ATOM      2  O   UNL d   1      33.196  19.091 -24.831  0.00  0.00    -0.286 OA
ENDROOT
BRANCH   1   3
ATOM      3  C   UNL d   1      33.021  19.292 -23.429  0.00  0.00     0.078 A 
ATOM      4  C   UNL d   1      33.167  20.099 -23.514  0.00  0.00     0.201 A 
ATOM      5  C   UNL d   1      33.241  20.578 -22.843  0.00  0.00     0.066 A 
ATOM      6  O   UNL d   1      33.241  20.433 -24.265  0.00  0.00    -0.286 OA
ATOM      7  C   UNL d   1      33.168  20.249 -22.092  0.00  0.00     0.097 A 
ATOM      8  C   UNL d   1      33.021  19.441 -22.007  0.00  0.00     0.025 A 
ATOM      9  C   UNL d   1      32.948  18.964 -22.674  0.00  0.00     0.008 A 
BRANCH   7  10
ATOM     10  O   UNL d   1      33.241  20.728 -21.418  0.00  0.00    -0.328 OA
ATOM     11  C   UNL d   1      32.592  20.851 -20.926  0.00  0.00     0.181 C 
ENDBRANCH   7  10
ENDBRANCH   1   3
BRANCH   1  12
ATOM     12  C   UNL d   1      32.626  18.059 -24.025  0.00  0.00     0.042 C 
BRANCH  12  13
ATOM     13  C   UNL d   1      32.439  17.621 -24.705  0.00  0.00     0.003 C 
BRANCH  13  14
ATOM     14  C   UNL d   1      31.799  17.103 -24.700  0.00  0.00     0.000 A 
ATOM     15  C   UNL d   1      31.035  17.402 -24.613  0.00  0.00     0.001 A 
ATOM     16  C   UNL d   1      30.395  16.885 -24.608  0.00  0.00     0.011 A 
ATOM     17  C   UNL d   1      30.541  16.055 -24.693  0.00  0.00     0.058 A 
ATOM     18  C   UNL d   1      31.285  15.772 -24.777  0.00  0.00     0.011 A 
ATOM     19 CL   UNL d   1      29.912  15.532 -24.689  0.00  0.00    -0.082 Cl
ATOM     20  C   UNL d   1      31.924  16.290 -24.782  0.00  0.00     0.001 A 
ENDBRANCH  13  14
ENDBRANCH  12  13
ENDBRANCH   1  12
TORSDOF 5
ENDMDL
