MODEL 1
REMARK VINA RESULT:      19.0      0.000      0.000
REMARK  1 active torsions:
REMARK  status: ('A' for Active; 'I' for Inactive)
REMARK    1  A    between atoms: C_9  and  C_3 
ROOT
ATOM      1  C   UNL d   1      57.833  49.701  50.477  0.00  0.00     0.171 A 
ATOM      2  N   UNL d   1      57.373  49.701  51.161  0.00  0.00    -0.212 N 
ATOM      3  C   UNL d   1      58.659  49.705  50.533  0.00  0.00     0.121 A 
ATOM      4  N   UNL d   1      57.736  49.704  51.901  0.00  0.00    -0.162 NA
ATOM      5  N   UNL d   1      57.474  49.698  49.736  0.00  0.00    -0.226 NA
ATOM      6  C   UNL d   1      56.552  49.698  51.105  0.00  0.00     0.086 A 
ATOM      7  C   UNL d   1      58.561  49.707  51.958  0.00  0.00     0.130 A 
ATOM      8  C   UNL d   1      56.188  49.695  50.364  0.00  0.00     0.038 A 
ATOM      9  C   UNL d   1      56.649  49.695  49.680  0.00  0.00     0.085 A 
ATOM     10  C   UNL d   1      56.091  49.697  51.789  0.00  0.00     0.021 C 
ATOM     11  C   UNL d   1      56.286  49.692  48.939  0.00  0.00     0.021 C 
ENDROOT
BRANCH   3  12
ATOM     12  C   UNL d   1      59.277  49.706  49.985  0.00  0.00     0.215 C 
ATOM     13  O   UNL d   1      60.059  49.706  50.252  0.00  0.00    -0.644 OA
ATOM     14  O   UNL d   1      59.115  49.708  49.175  0.00  0.00    -0.644 OA
ENDBRANCH   3  12
TORSDOF 1
ENDMDL
MODEL 2
REMARK VINA RESULT:      21.2      1.619      2.991
REMARK  1 active torsions:
REMARK  status: ('A' for Active; 'I' for Inactive)
REMARK    1  A    between atoms: C_9  and  C_3 
ROOT
ATOM      1  C   UNL d   1      59.244  49.696  50.793  0.00  0.00     0.171 A 
ATOM      2  N   UNL d   1      59.711  49.701  51.473  0.00  0.00    -0.212 N 
ATOM      3  C   UNL d   1      58.419  49.695  50.857  0.00  0.00     0.121 A 
ATOM      4  N   UNL d   1      59.355  49.705  52.217  0.00  0.00    -0.162 NA
ATOM      5  N   UNL d   1      59.596  49.691  50.050  0.00  0.00    -0.226 NA
ATOM      6  C   UNL d   1      60.531  49.702  51.409  0.00  0.00     0.086 A 
ATOM      7  C   UNL d   1      58.530  49.704  52.281  0.00  0.00     0.130 A 
ATOM      8  C   UNL d   1      60.888  49.698  50.665  0.00  0.00     0.038 A 
ATOM      9  C   UNL d   1      60.421  49.692  49.985  0.00  0.00     0.085 A 
ATOM     10  C   UNL d   1      60.999  49.707  52.089  0.00  0.00     0.021 C 
ATOM     11  C   UNL d   1      60.777  49.688  49.241  0.00  0.00     0.021 C 
ENDROOT
BRANCH   3  12
ATOM     12  C   UNL d   1      57.795  49.690  50.315  0.00  0.00     0.215 C 
ATOM     13  O   UNL d   1      57.016  49.667  50.589  0.00  0.00    -0.644 OA
ATOM     14  O   UNL d   1      57.949  49.708  49.504  0.00  0.00    -0.644 OA
ENDBRANCH   3  12
TORSDOF 1
ENDMDL
