MODEL 1
REMARK VINA RESULT:      16.0      0.000      0.000
REMARK  0 active torsions:
REMARK  status: ('A' for Active; 'I' for Inactive)
ROOT
ATOM      1  N   UNL d   1      57.966  49.707  49.539  0.00  0.00    -0.202 NA
ATOM      2  N   UNL d   1      57.600  49.707  51.140  0.00  0.00    -0.202 NA
ATOM      3  C   UNL d   1      56.994  49.707  50.585  0.00  0.00     0.337 A 
ATOM      4  C   UNL d   1      57.176  49.707  49.777  0.00  0.00     0.337 A 
ATOM      5  C   UNL d   1      58.381  49.707  50.897  0.00  0.00     0.102 A 
ATOM      6  C   UNL d   1      58.560  49.707  50.102  0.00  0.00     0.102 A 
ATOM      7  C   UNL d   1      59.348  49.707  49.850  0.00  0.00     0.021 A 
ATOM      8  C   UNL d   1      58.984  49.707  51.466  0.00  0.00     0.021 A 
ATOM      9  C   UNL d   1      59.775  49.707  51.212  0.00  0.00     0.002 A 
ATOM     10  C   UNL d   1      59.956  49.708  50.410  0.00  0.00     0.002 A 
ATOM     11  O   UNL d   1      56.208  49.707  50.827  0.00  0.00    -0.260 OA
ATOM     12  O   UNL d   1      56.571  49.707  49.217  0.00  0.00    -0.260 OA
ATOM     13  C   UNL d   1      60.743  49.708  50.165  0.00  0.00     0.000 C 
ATOM     14  C   UNL d   1      60.374  49.708  51.770  0.00  0.00     0.000 C 
ENDROOT
TORSDOF 0
ENDMDL
