MODEL 1
REMARK VINA RESULT:      -8.1      0.000      0.000
REMARK  3 active torsions:
REMARK  status: ('A' for Active; 'I' for Inactive)
REMARK    1  A    between atoms: N_6  and  C_1 
REMARK       I    between atoms: C_8  and  N_6 
REMARK       I    between atoms: C_11  and  N_7 
REMARK    2  A    between atoms: C_14  and  C_8 
REMARK    3  A    between atoms: O_20  and  C_19 
ROOT
ATOM      1  C   UNL d   1      51.488  33.904  53.040  0.00  0.00     0.124 A 
ATOM      2  C   UNL d   1      52.230  34.050  53.386  0.00  0.00     0.093 A 
ATOM      3  C   UNL d   1      52.172  32.746  53.087  0.00  0.00     0.049 A 
ATOM      4  C   UNL d   1      52.649  33.332  53.412  0.00  0.00     0.021 A 
ATOM      5  S   UNL d   1      51.455  33.087  52.854  0.00  0.00    -0.066 SA
ATOM      6  N   UNL d   1      53.199  31.774  53.319  0.00  0.00    -0.272 N 
ATOM      7  C   UNL d   1      52.450  31.957  53.039  0.00  0.00     0.089 A 
ATOM      8  C   UNL d   1      52.496  34.785  53.653  0.00  0.00     0.103 C 
ATOM      9  C   UNL d   1      53.484  30.994  53.276  0.00  0.00     0.265 C 
ATOM     10  N   UNL d   1      52.759  35.508  53.916  0.00  0.00    -0.191 NA
ATOM     11  C   UNL d   1      53.412  33.152  53.699  0.00  0.00     0.020 A 
ATOM     12  C   UNL d   1      53.680  32.371  53.648  0.00  0.00     0.083 A 
ATOM     13  O   UNL d   1      53.009  30.405  52.951  0.00  0.00    -0.267 OA
ATOM     14  C   UNL d   1      54.233  30.811  53.555  0.00  0.00     0.066 C 
ENDROOT
BRANCH   1  15
ATOM     15  N   UNL d   1      50.891  34.459  52.903  0.00  0.00    -0.201 NA
ATOM     16  C   UNL d   1      50.106  34.214  52.841  0.00  0.00     0.280 C 
ATOM     17  O   UNL d   1      49.907  33.418  52.913  0.00  0.00    -0.265 OA
BRANCH  16  18
ATOM     18  C   UNL d   1      49.522  34.759  52.707  0.00  0.00     0.060 A 
ATOM     19  C   UNL d   1      49.263  35.254  53.314  0.00  0.00     0.029 A 
ATOM     20  C   UNL d   1      48.669  35.807  53.178  0.00  0.00     0.094 A 
ATOM     21  C   UNL d   1      48.329  35.870  52.434  0.00  0.00     0.024 A 
ATOM     22  C   UNL d   1      48.581  35.379  51.822  0.00  0.00     0.002 A 
ATOM     23  C   UNL d   1      49.183  34.817  51.960  0.00  0.00     0.005 A 
BRANCH  20  24
ATOM     24  O   UNL d   1      48.400  36.317  53.794  0.00  0.00    -0.328 OA
ATOM     25  C   UNL d   1      47.597  36.414  53.945  0.00  0.00     0.181 C 
ENDBRANCH  20  24
ENDBRANCH  16  18
ENDBRANCH   1  15
TORSDOF 3
ENDMDL
MODEL 2
REMARK VINA RESULT:      -7.9      1.663      2.259
REMARK  3 active torsions:
REMARK  status: ('A' for Active; 'I' for Inactive)
REMARK    1  A    between atoms: N_6  and  C_1 
REMARK       I    between atoms: C_8  and  N_6 
REMARK       I    between atoms: C_11  and  N_7 
REMARK    2  A    between atoms: C_14  and  C_8 
REMARK    3  A    between atoms: O_20  and  C_19 
ROOT
ATOM      1  C   UNL d   1      51.996  33.566  53.262  0.00  0.00     0.124 A 
ATOM      2  C   UNL d   1      52.467  32.880  53.288  0.00  0.00     0.093 A 
ATOM      3  C   UNL d   1      53.082  33.822  54.014  0.00  0.00     0.049 A 
ATOM      4  C   UNL d   1      53.137  33.044  53.754  0.00  0.00     0.021 A 
ATOM      5  S   UNL d   1      52.385  34.153  53.717  0.00  0.00    -0.066 SA
ATOM      6  N   UNL d   1      54.326  33.681  54.712  0.00  0.00    -0.272 N 
ATOM      7  C   UNL d   1      53.684  34.145  54.499  0.00  0.00     0.089 A 
ATOM      8  C   UNL d   1      52.292  32.165  52.913  0.00  0.00     0.103 C 
ATOM      9  C   UNL d   1      54.929  33.992  55.193  0.00  0.00     0.265 C 
ATOM     10  N   UNL d   1      52.119  31.462  52.544  0.00  0.00    -0.191 NA
ATOM     11  C   UNL d   1      53.787  32.566  53.966  0.00  0.00     0.020 A 
ATOM     12  C   UNL d   1      54.378  32.891  54.445  0.00  0.00     0.083 A 
ATOM     13  O   UNL d   1      54.878  34.771  55.455  0.00  0.00    -0.267 OA
ATOM     14  C   UNL d   1      55.571  33.528  55.405  0.00  0.00     0.066 C 
ENDROOT
BRANCH   1  15
ATOM     15  N   UNL d   1      51.279  33.654  52.862  0.00  0.00    -0.201 NA
ATOM     16  C   UNL d   1      50.938  34.402  52.787  0.00  0.00     0.280 C 
ATOM     17  O   UNL d   1      51.305  35.065  53.107  0.00  0.00    -0.265 OA
BRANCH  16  18
ATOM     18  C   UNL d   1      50.235  34.488  52.395  0.00  0.00     0.060 A 
ATOM     19  C   UNL d   1      49.594  34.857  52.760  0.00  0.00     0.029 A 
ATOM     20  C   UNL d   1      48.879  34.944  52.362  0.00  0.00     0.094 A 
ATOM     21  C   UNL d   1      48.799  34.664  51.595  0.00  0.00     0.024 A 
ATOM     22  C   UNL d   1      49.435  34.294  51.222  0.00  0.00     0.002 A 
ATOM     23  C   UNL d   1      50.160  34.205  51.626  0.00  0.00     0.005 A 
BRANCH  20  24
ATOM     24  O   UNL d   1      48.219  35.321  52.729  0.00  0.00    -0.328 OA
ATOM     25  C   UNL d   1      47.749  35.852  52.315  0.00  0.00     0.181 C 
ENDBRANCH  20  24
ENDBRANCH  16  18
ENDBRANCH   1  15
TORSDOF 3
ENDMDL
MODEL 3
REMARK VINA RESULT:      -6.9     10.031     11.240
REMARK  3 active torsions:
REMARK  status: ('A' for Active; 'I' for Inactive)
REMARK    1  A    between atoms: N_6  and  C_1 
REMARK       I    between atoms: C_8  and  N_6 
REMARK       I    between atoms: C_11  and  N_7 
REMARK    2  A    between atoms: C_14  and  C_8 
REMARK    3  A    between atoms: O_20  and  C_19 
ROOT
ATOM      1  C   UNL d   1      44.410  29.693  60.247  0.00  0.00     0.124 A 
ATOM      2  C   UNL d   1      44.368  29.296  60.978  0.00  0.00     0.093 A 
ATOM      3  C   UNL d   1      44.393  30.611  61.230  0.00  0.00     0.049 A 
ATOM      4  C   UNL d   1      44.358  29.868  61.581  0.00  0.00     0.021 A 
ATOM      5  S   UNL d   1      44.425  30.515  60.409  0.00  0.00    -0.066 SA
ATOM      6  N   UNL d   1      44.355  31.229  62.523  0.00  0.00    -0.272 N 
ATOM      7  C   UNL d   1      44.391  31.301  61.706  0.00  0.00     0.089 A 
ATOM      8  C   UNL d   1      44.342  28.476  61.075  0.00  0.00     0.103 C 
ATOM      9  C   UNL d   1      44.353  31.907  63.004  0.00  0.00     0.265 C 
ATOM     10  N   UNL d   1      44.317  27.670  61.172  0.00  0.00    -0.191 NA
ATOM     11  C   UNL d   1      44.321  29.788  62.411  0.00  0.00     0.020 A 
ATOM     12  C   UNL d   1      44.320  30.473  62.875  0.00  0.00     0.083 A 
ATOM     13  O   UNL d   1      44.387  32.653  62.656  0.00  0.00    -0.267 OA
ATOM     14  C   UNL d   1      44.316  31.836  63.820  0.00  0.00     0.066 C 
ENDROOT
BRANCH   1  15
ATOM     15  N   UNL d   1      44.432  29.343  59.499  0.00  0.00    -0.201 NA
ATOM     16  C   UNL d   1      44.898  29.673  58.903  0.00  0.00     0.280 C 
ATOM     17  O   UNL d   1      45.345  30.350  59.045  0.00  0.00    -0.265 OA
BRANCH  16  18
ATOM     18  C   UNL d   1      44.920  29.330  58.170  0.00  0.00     0.060 A 
ATOM     19  C   UNL d   1      45.305  28.609  58.055  0.00  0.00     0.029 A 
ATOM     20  C   UNL d   1      45.327  28.261  57.310  0.00  0.00     0.094 A 
ATOM     21  C   UNL d   1      44.964  28.629  56.673  0.00  0.00     0.024 A 
ATOM     22  C   UNL d   1      44.577  29.350  56.779  0.00  0.00     0.002 A 
ATOM     23  C   UNL d   1      44.555  29.704  57.535  0.00  0.00     0.005 A 
BRANCH  20  24
ATOM     24  O   UNL d   1      45.718  27.524  57.185  0.00  0.00    -0.328 OA
ATOM     25  C   UNL d   1      45.298  26.850  56.973  0.00  0.00     0.181 C 
ENDBRANCH  20  24
ENDBRANCH  16  18
ENDBRANCH   1  15
TORSDOF 3
ENDMDL
MODEL 4
REMARK VINA RESULT:      -6.3      1.315      5.432
REMARK  3 active torsions:
REMARK  status: ('A' for Active; 'I' for Inactive)
REMARK    1  A    between atoms: N_6  and  C_1 
REMARK       I    between atoms: C_8  and  N_6 
REMARK       I    between atoms: C_11  and  N_7 
REMARK    2  A    between atoms: C_14  and  C_8 
REMARK    3  A    between atoms: O_20  and  C_19 
ROOT
ATOM      1  C   UNL d   1      49.894  34.798  52.770  0.00  0.00     0.124 A 
ATOM      2  C   UNL d   1      49.317  34.825  52.171  0.00  0.00     0.093 A 
ATOM      3  C   UNL d   1      48.819  35.454  53.243  0.00  0.00     0.049 A 
ATOM      4  C   UNL d   1      48.655  35.231  52.468  0.00  0.00     0.021 A 
ATOM      5  S   UNL d   1      49.579  35.193  53.439  0.00  0.00    -0.066 SA
ATOM      6  N   UNL d   1      47.527  36.066  53.345  0.00  0.00    -0.272 N 
ATOM      7  C   UNL d   1      48.248  35.877  53.688  0.00  0.00     0.089 A 
ATOM      8  C   UNL d   1      49.397  34.502  51.415  0.00  0.00     0.103 C 
ATOM      9  C   UNL d   1      46.953  36.485  53.779  0.00  0.00     0.265 C 
ATOM     10  N   UNL d   1      49.476  34.183  50.672  0.00  0.00    -0.191 NA
ATOM     11  C   UNL d   1      47.923  35.421  52.114  0.00  0.00     0.020 A 
ATOM     12  C   UNL d   1      47.364  35.838  52.559  0.00  0.00     0.083 A 
ATOM     13  O   UNL d   1      47.113  36.709  54.554  0.00  0.00    -0.267 OA
ATOM     14  C   UNL d   1      46.232  36.674  53.436  0.00  0.00     0.066 C 
ENDROOT
BRANCH   1  15
ATOM     15  N   UNL d   1      50.640  34.447  52.717  0.00  0.00    -0.201 NA
ATOM     16  C   UNL d   1      50.900  33.940  53.314  0.00  0.00     0.280 C 
ATOM     17  O   UNL d   1      50.423  33.777  53.965  0.00  0.00    -0.265 OA
BRANCH  16  18
ATOM     18  C   UNL d   1      51.632  33.596  53.263  0.00  0.00     0.060 A 
ATOM     19  C   UNL d   1      51.716  32.835  52.959  0.00  0.00     0.029 A 
ATOM     20  C   UNL d   1      52.460  32.485  52.907  0.00  0.00     0.094 A 
ATOM     21  C   UNL d   1      53.125  32.895  53.158  0.00  0.00     0.024 A 
ATOM     22  C   UNL d   1      53.049  33.658  53.463  0.00  0.00     0.002 A 
ATOM     23  C   UNL d   1      52.295  34.012  53.516  0.00  0.00     0.005 A 
BRANCH  20  24
ATOM     24  O   UNL d   1      52.554  31.706  52.597  0.00  0.00    -0.328 OA
ATOM     25  C   UNL d   1      53.049  31.161  52.963  0.00  0.00     0.181 C 
ENDBRANCH  20  24
ENDBRANCH  16  18
ENDBRANCH   1  15
TORSDOF 3
ENDMDL
MODEL 5
REMARK VINA RESULT:      -6.2      1.655      2.726
REMARK  3 active torsions:
REMARK  status: ('A' for Active; 'I' for Inactive)
REMARK    1  A    between atoms: N_6  and  C_1 
REMARK       I    between atoms: C_8  and  N_6 
REMARK       I    between atoms: C_11  and  N_7 
REMARK    2  A    between atoms: C_14  and  C_8 
REMARK    3  A    between atoms: O_20  and  C_19 
ROOT
ATOM      1  C   UNL d   1      49.532  34.828  52.809  0.00  0.00     0.124 A 
ATOM      2  C   UNL d   1      49.942  34.468  52.180  0.00  0.00     0.093 A 
ATOM      3  C   UNL d   1      50.758  34.479  53.241  0.00  0.00     0.049 A 
ATOM      4  C   UNL d   1      50.698  34.255  52.452  0.00  0.00     0.021 A 
ATOM      5  S   UNL d   1      50.046  34.833  53.471  0.00  0.00    -0.066 SA
ATOM      6  N   UNL d   1      52.095  33.966  53.291  0.00  0.00    -0.272 N 
ATOM      7  C   UNL d   1      51.465  34.333  53.666  0.00  0.00     0.089 A 
ATOM      8  C   UNL d   1      49.640  34.348  51.420  0.00  0.00     0.103 C 
ATOM      9  C   UNL d   1      52.801  33.817  53.704  0.00  0.00     0.265 C 
ATOM     10  N   UNL d   1      49.344  34.230  50.673  0.00  0.00    -0.191 NA
ATOM     11  C   UNL d   1      51.335  33.881  52.064  0.00  0.00     0.020 A 
ATOM     12  C   UNL d   1      52.030  33.739  52.490  0.00  0.00     0.083 A 
ATOM     13  O   UNL d   1      52.865  34.040  54.494  0.00  0.00    -0.267 OA
ATOM     14  C   UNL d   1      53.431  33.449  53.328  0.00  0.00     0.066 C 
ENDROOT
BRANCH   1  15
ATOM     15  N   UNL d   1      48.762  35.126  52.787  0.00  0.00    -0.201 NA
ATOM     16  C   UNL d   1      48.544  35.742  53.291  0.00  0.00     0.280 C 
ATOM     17  O   UNL d   1      49.087  36.066  53.818  0.00  0.00    -0.265 OA
BRANCH  16  18
ATOM     18  C   UNL d   1      47.789  36.034  53.269  0.00  0.00     0.060 A 
ATOM     19  C   UNL d   1      47.292  35.959  53.923  0.00  0.00     0.029 A 
ATOM     20  C   UNL d   1      46.525  36.256  53.901  0.00  0.00     0.094 A 
ATOM     21  C   UNL d   1      46.248  36.630  53.226  0.00  0.00     0.024 A 
ATOM     22  C   UNL d   1      46.738  36.709  52.567  0.00  0.00     0.002 A 
ATOM     23  C   UNL d   1      47.516  36.408  52.589  0.00  0.00     0.005 A 
BRANCH  20  24
ATOM     24  O   UNL d   1      46.010  36.183  54.567  0.00  0.00    -0.328 OA
ATOM     25  C   UNL d   1      45.380  35.655  54.560  0.00  0.00     0.181 C 
ENDBRANCH  20  24
ENDBRANCH  16  18
ENDBRANCH   1  15
TORSDOF 3
ENDMDL
MODEL 6
REMARK VINA RESULT:      -6.2      9.927     11.121
REMARK  3 active torsions:
REMARK  status: ('A' for Active; 'I' for Inactive)
REMARK    1  A    between atoms: N_6  and  C_1 
REMARK       I    between atoms: C_8  and  N_6 
REMARK       I    between atoms: C_11  and  N_7 
REMARK    2  A    between atoms: C_14  and  C_8 
REMARK    3  A    between atoms: O_20  and  C_19 
ROOT
ATOM      1  C   UNL d   1      44.891  26.984  57.055  0.00  0.00     0.124 A 
ATOM      2  C   UNL d   1      44.946  27.438  57.751  0.00  0.00     0.093 A 
ATOM      3  C   UNL d   1      44.799  28.286  56.724  0.00  0.00     0.049 A 
ATOM      4  C   UNL d   1      44.889  28.241  57.541  0.00  0.00     0.021 A 
ATOM      5  S   UNL d   1      44.799  27.518  56.415  0.00  0.00    -0.066 SA
ATOM      6  N   UNL d   1      44.746  29.715  56.804  0.00  0.00    -0.272 N 
ATOM      7  C   UNL d   1      44.727  29.032  56.351  0.00  0.00     0.089 A 
ATOM      8  C   UNL d   1      45.041  27.134  58.513  0.00  0.00     0.103 C 
ATOM      9  C   UNL d   1      44.675  30.461  56.442  0.00  0.00     0.265 C 
ATOM     10  N   UNL d   1      45.134  26.836  59.263  0.00  0.00    -0.191 NA
ATOM     11  C   UNL d   1      44.909  28.932  58.008  0.00  0.00     0.020 A 
ATOM     12  C   UNL d   1      44.837  29.666  57.632  0.00  0.00     0.083 A 
ATOM     13  O   UNL d   1      44.586  30.510  55.625  0.00  0.00    -0.267 OA
ATOM     14  C   UNL d   1      44.694  31.145  56.895  0.00  0.00     0.066 C 
ENDROOT
BRANCH   1  15
ATOM     15  N   UNL d   1      44.921  26.160  57.003  0.00  0.00    -0.201 NA
ATOM     16  C   UNL d   1      44.633  25.780  56.329  0.00  0.00     0.280 C 
ATOM     17  O   UNL d   1      44.314  26.212  55.705  0.00  0.00    -0.265 OA
BRANCH  16  18
ATOM     18  C   UNL d   1      44.662  24.972  56.278  0.00  0.00     0.060 A 
ATOM     19  C   UNL d   1      45.038  24.606  55.642  0.00  0.00     0.029 A 
ATOM     20  C   UNL d   1      45.068  23.785  55.589  0.00  0.00     0.094 A 
ATOM     21  C   UNL d   1      44.722  23.324  56.172  0.00  0.00     0.024 A 
ATOM     22  C   UNL d   1      44.344  23.681  56.812  0.00  0.00     0.002 A 
ATOM     23  C   UNL d   1      44.314  24.514  56.866  0.00  0.00     0.005 A 
BRANCH  20  24
ATOM     24  O   UNL d   1      45.451  23.404  54.941  0.00  0.00    -0.328 OA
ATOM     25  C   UNL d   1      45.086  22.789  54.535  0.00  0.00     0.181 C 
ENDBRANCH  20  24
ENDBRANCH  16  18
ENDBRANCH   1  15
TORSDOF 3
ENDMDL
MODEL 7
REMARK VINA RESULT:      -6.1      9.907     10.633
REMARK  3 active torsions:
REMARK  status: ('A' for Active; 'I' for Inactive)
REMARK    1  A    between atoms: N_6  and  C_1 
REMARK       I    between atoms: C_8  and  N_6 
REMARK       I    between atoms: C_11  and  N_7 
REMARK    2  A    between atoms: C_14  and  C_8 
REMARK    3  A    between atoms: O_20  and  C_19 
ROOT
ATOM      1  C   UNL d   1      44.930  29.732  59.544  0.00  0.00     0.124 A 
ATOM      2  C   UNL d   1      45.004  29.918  58.737  0.00  0.00     0.093 A 
ATOM      3  C   UNL d   1      45.030  28.584  58.849  0.00  0.00     0.049 A 
ATOM      4  C   UNL d   1      45.065  29.206  58.311  0.00  0.00     0.021 A 
ATOM      5  S   UNL d   1      44.947  28.896  59.610  0.00  0.00    -0.066 SA
ATOM      6  N   UNL d   1      45.160  27.644  57.775  0.00  0.00    -0.272 N 
ATOM      7  C   UNL d   1      45.078  27.793  58.578  0.00  0.00     0.089 A 
ATOM      8  C   UNL d   1      45.013  30.682  58.422  0.00  0.00     0.103 C 
ATOM      9  C   UNL d   1      45.209  26.862  57.496  0.00  0.00     0.265 C 
ATOM     10  N   UNL d   1      45.022  31.433  58.112  0.00  0.00    -0.191 NA
ATOM     11  C   UNL d   1      45.148  29.061  57.494  0.00  0.00     0.020 A 
ATOM     12  C   UNL d   1      45.195  28.278  57.233  0.00  0.00     0.083 A 
ATOM     13  O   UNL d   1      45.174  26.236  58.030  0.00  0.00    -0.267 OA
ATOM     14  C   UNL d   1      45.291  26.712  56.694  0.00  0.00     0.066 C 
ENDROOT
BRANCH   1  15
ATOM     15  N   UNL d   1      44.855  30.268  60.168  0.00  0.00    -0.201 NA
ATOM     16  C   UNL d   1      44.551  30.018  60.893  0.00  0.00     0.280 C 
ATOM     17  O   UNL d   1      44.321  29.235  61.005  0.00  0.00    -0.265 OA
BRANCH  16  18
ATOM     18  C   UNL d   1      44.477  30.544  61.504  0.00  0.00     0.060 A 
ATOM     19  C   UNL d   1      44.489  30.283  62.286  0.00  0.00     0.029 A 
ATOM     20  C   UNL d   1      44.414  30.817  62.907  0.00  0.00     0.094 A 
ATOM     21  C   UNL d   1      44.327  31.618  62.752  0.00  0.00     0.024 A 
ATOM     22  C   UNL d   1      44.314  31.889  61.973  0.00  0.00     0.002 A 
ATOM     23  C   UNL d   1      44.390  31.346  61.342  0.00  0.00     0.005 A 
BRANCH  20  24
ATOM     24  O   UNL d   1      44.424  30.557  63.710  0.00  0.00    -0.328 OA
ATOM     25  C   UNL d   1      44.428  31.096  64.331  0.00  0.00     0.181 C 
ENDBRANCH  20  24
ENDBRANCH  16  18
ENDBRANCH   1  15
TORSDOF 3
ENDMDL
MODEL 8
REMARK VINA RESULT:      -6.0      1.152      5.215
REMARK  3 active torsions:
REMARK  status: ('A' for Active; 'I' for Inactive)
REMARK    1  A    between atoms: N_6  and  C_1 
REMARK       I    between atoms: C_8  and  N_6 
REMARK       I    between atoms: C_11  and  N_7 
REMARK    2  A    between atoms: C_14  and  C_8 
REMARK    3  A    between atoms: O_20  and  C_19 
ROOT
ATOM      1  C   UNL d   1      52.093  32.801  53.337  0.00  0.00     0.124 A 
ATOM      2  C   UNL d   1      52.104  33.565  53.668  0.00  0.00     0.093 A 
ATOM      3  C   UNL d   1      51.017  33.475  52.892  0.00  0.00     0.049 A 
ATOM      4  C   UNL d   1      51.438  33.977  53.390  0.00  0.00     0.021 A 
ATOM      5  S   UNL d   1      51.411  32.749  52.852  0.00  0.00    -0.066 SA
ATOM      6  N   UNL d   1      50.045  34.504  52.668  0.00  0.00    -0.272 N 
ATOM      7  C   UNL d   1      50.312  33.741  52.526  0.00  0.00     0.089 A 
ATOM      8  C   UNL d   1      52.682  33.854  54.183  0.00  0.00     0.103 C 
ATOM      9  C   UNL d   1      49.347  34.778  52.309  0.00  0.00     0.265 C 
ATOM     10  N   UNL d   1      53.250  34.139  54.690  0.00  0.00    -0.191 NA
ATOM     11  C   UNL d   1      51.171  34.754  53.538  0.00  0.00     0.020 A 
ATOM     12  C   UNL d   1      50.475  35.010  53.174  0.00  0.00     0.083 A 
ATOM     13  O   UNL d   1      48.923  34.279  51.810  0.00  0.00    -0.267 OA
ATOM     14  C   UNL d   1      49.080  35.540  52.451  0.00  0.00     0.066 C 
ENDROOT
BRANCH   1  15
ATOM     15  N   UNL d   1      52.650  32.204  53.462  0.00  0.00    -0.201 NA
ATOM     16  C   UNL d   1      52.491  31.434  53.213  0.00  0.00     0.280 C 
ATOM     17  O   UNL d   1      51.780  31.251  52.839  0.00  0.00    -0.265 OA
BRANCH  16  18
ATOM     18  C   UNL d   1      53.036  30.848  53.335  0.00  0.00     0.060 A 
ATOM     19  C   UNL d   1      52.829  30.159  53.738  0.00  0.00     0.029 A 
ATOM     20  C   UNL d   1      53.383  29.564  53.862  0.00  0.00     0.094 A 
ATOM     21  C   UNL d   1      54.150  29.652  53.585  0.00  0.00     0.024 A 
ATOM     22  C   UNL d   1      54.367  30.338  53.182  0.00  0.00     0.002 A 
ATOM     23  C   UNL d   1      53.804  30.942  53.055  0.00  0.00     0.005 A 
BRANCH  20  24
ATOM     24  O   UNL d   1      53.178  28.855  54.273  0.00  0.00    -0.328 OA
ATOM     25  C   UNL d   1      53.408  28.735  55.053  0.00  0.00     0.181 C 
ENDBRANCH  20  24
ENDBRANCH  16  18
ENDBRANCH   1  15
TORSDOF 3
ENDMDL
MODEL 9
REMARK VINA RESULT:      -6.0      9.756     10.253
REMARK  3 active torsions:
REMARK  status: ('A' for Active; 'I' for Inactive)
REMARK    1  A    between atoms: N_6  and  C_1 
REMARK       I    between atoms: C_8  and  N_6 
REMARK       I    between atoms: C_11  and  N_7 
REMARK    2  A    between atoms: C_14  and  C_8 
REMARK    3  A    between atoms: O_20  and  C_19 
ROOT
ATOM      1  C   UNL d   1      44.608  27.368  57.653  0.00  0.00     0.124 A 
ATOM      2  C   UNL d   1      44.519  26.686  58.121  0.00  0.00     0.093 A 
ATOM      3  C   UNL d   1      44.661  26.289  56.850  0.00  0.00     0.049 A 
ATOM      4  C   UNL d   1      44.552  26.022  57.621  0.00  0.00     0.021 A 
ATOM      5  S   UNL d   1      44.697  27.116  56.858  0.00  0.00    -0.066 SA
ATOM      6  N   UNL d   1      44.659  24.937  56.376  0.00  0.00    -0.272 N 
ATOM      7  C   UNL d   1      44.715  25.740  56.220  0.00  0.00     0.089 A 
ATOM      8  C   UNL d   1      44.416  26.679  58.941  0.00  0.00     0.103 C 
ATOM      9  C   UNL d   1      44.712  24.384  55.757  0.00  0.00     0.265 C 
ATOM     10  N   UNL d   1      44.314  26.672  59.747  0.00  0.00    -0.191 NA
ATOM     11  C   UNL d   1      44.494  25.206  57.787  0.00  0.00     0.020 A 
ATOM     12  C   UNL d   1      44.549  24.670  57.160  0.00  0.00     0.083 A 
ATOM     13  O   UNL d   1      44.821  24.647  54.985  0.00  0.00    -0.267 OA
ATOM     14  C   UNL d   1      44.656  23.580  55.914  0.00  0.00     0.066 C 
ENDROOT
BRANCH   1  15
ATOM     15  N   UNL d   1      44.610  28.150  57.920  0.00  0.00    -0.201 NA
ATOM     16  C   UNL d   1      45.023  28.727  57.499  0.00  0.00     0.280 C 
ATOM     17  O   UNL d   1      45.437  28.534  56.814  0.00  0.00    -0.265 OA
BRANCH  16  18
ATOM     18  C   UNL d   1      45.025  29.494  57.761  0.00  0.00     0.060 A 
ATOM     19  C   UNL d   1      44.672  30.090  57.314  0.00  0.00     0.029 A 
ATOM     20  C   UNL d   1      44.674  30.869  57.579  0.00  0.00     0.094 A 
ATOM     21  C   UNL d   1      45.029  31.059  58.294  0.00  0.00     0.024 A 
ATOM     22  C   UNL d   1      45.385  30.469  58.748  0.00  0.00     0.002 A 
ATOM     23  C   UNL d   1      45.383  29.678  58.478  0.00  0.00     0.005 A 
BRANCH  20  24
ATOM     24  O   UNL d   1      44.314  31.484  57.127  0.00  0.00    -0.328 OA
ATOM     25  C   UNL d   1      44.663  32.226  57.067  0.00  0.00     0.181 C 
ENDBRANCH  20  24
ENDBRANCH  16  18
ENDBRANCH   1  15
TORSDOF 3
ENDMDL
