MODEL 1
REMARK VINA RESULT:      -7.8      0.000      0.000
REMARK  3 active torsions:
REMARK  status: ('A' for Active; 'I' for Inactive)
REMARK    1  A    between atoms: C_4  and  N_1 
REMARK    2  A    between atoms: C_2  and  O_5 
REMARK       I    between atoms: N_3  and  C_2 
REMARK    3  A    between atoms: O_5  and  C_10 
ROOT
ATOM      1  C   UNL d   1     -46.574  12.587  23.260  0.00  0.00     0.129 A 
ATOM      2  C   UNL d   1     -47.305  12.945  23.378  0.00  0.00     0.048 A 
ATOM      3  C   UNL d   1     -47.438  13.700  23.086  0.00  0.00     0.106 A 
ATOM      4  C   UNL d   1     -45.979  12.986  22.851  0.00  0.00     0.024 A 
ATOM      5  C   UNL d   1     -46.122  13.739  22.564  0.00  0.00     0.004 A 
ATOM      6  C   UNL d   1     -46.853  14.097  22.682  0.00  0.00     0.025 A 
ENDROOT
BRANCH   3   7
ATOM      7  O   UNL d   1     -48.173  14.060  23.205  0.00  0.00    -0.259 OA
BRANCH   7   8
ATOM      8  C   UNL d   1     -48.743  14.070  22.614  0.00  0.00     0.377 C 
ATOM      9  N   UNL d   1     -49.489  14.424  22.737  0.00  0.00    -0.252 N 
ATOM     10  C   UNL d   1     -50.058  14.425  22.122  0.00  0.00     0.085 A 
ATOM     11  C   UNL d   1     -49.680  14.781  23.466  0.00  0.00     0.085 A 
ATOM     12  C   UNL d   1     -50.808  14.781  22.246  0.00  0.00     0.019 A 
ATOM     13  C   UNL d   1     -50.981  15.133  22.984  0.00  0.00     0.003 A 
ATOM     14  C   UNL d   1     -50.419  15.131  23.588  0.00  0.00     0.019 A 
ATOM     15  O   UNL d   1     -48.558  13.712  21.874  0.00  0.00    -0.237 OA
ENDBRANCH   7   8
ENDBRANCH   3   7
BRANCH   1  16
ATOM     16  N   UNL d   1     -46.430  11.825  23.549  0.00  0.00    -0.114 N 
ATOM     17  O   UNL d   1     -45.656  11.571  23.689  0.00  0.00    -0.532 OA
ATOM     18  O   UNL d   1     -47.069  11.321  23.698  0.00  0.00    -0.532 OA
ENDBRANCH   1  16
TORSDOF 3
ENDMDL
MODEL 2
REMARK VINA RESULT:      -7.7      1.259      1.640
REMARK  3 active torsions:
REMARK  status: ('A' for Active; 'I' for Inactive)
REMARK    1  A    between atoms: C_4  and  N_1 
REMARK    2  A    between atoms: C_2  and  O_5 
REMARK       I    between atoms: N_3  and  C_2 
REMARK    3  A    between atoms: O_5  and  C_10 
ROOT
ATOM      1  C   UNL d   1     -46.679  12.602  23.304  0.00  0.00     0.129 A 
ATOM      2  C   UNL d   1     -47.422  12.942  23.219  0.00  0.00     0.048 A 
ATOM      3  C   UNL d   1     -48.093  12.495  23.375  0.00  0.00     0.106 A 
ATOM      4  C   UNL d   1     -46.609  11.815  23.545  0.00  0.00     0.024 A 
ATOM      5  C   UNL d   1     -47.284  11.379  23.698  0.00  0.00     0.004 A 
ATOM      6  C   UNL d   1     -48.027  11.720  23.613  0.00  0.00     0.025 A 
ENDROOT
BRANCH   3   7
ATOM      7  O   UNL d   1     -48.840  12.838  23.289  0.00  0.00    -0.259 OA
BRANCH   7   8
ATOM      8  C   UNL d   1     -49.275  12.745  22.599  0.00  0.00     0.377 C 
ATOM      9  N   UNL d   1     -49.871  13.289  22.386  0.00  0.00    -0.252 N 
ATOM     10  C   UNL d   1     -50.304  13.179  21.677  0.00  0.00     0.085 A 
ATOM     11  C   UNL d   1     -50.045  13.947  22.867  0.00  0.00     0.085 A 
ATOM     12  C   UNL d   1     -50.903  13.726  21.463  0.00  0.00     0.019 A 
ATOM     13  C   UNL d   1     -51.063  14.378  21.959  0.00  0.00     0.003 A 
ATOM     14  C   UNL d   1     -50.635  14.486  22.656  0.00  0.00     0.019 A 
ATOM     15  O   UNL d   1     -49.106  12.084  22.106  0.00  0.00    -0.237 OA
ENDBRANCH   7   8
ENDBRANCH   3   7
BRANCH   1  16
ATOM     16  N   UNL d   1     -45.996  13.043  23.149  0.00  0.00    -0.114 N 
ATOM     17  O   UNL d   1     -45.412  12.746  22.644  0.00  0.00    -0.532 OA
ATOM     18  O   UNL d   1     -45.905  13.785  23.504  0.00  0.00    -0.532 OA
ENDBRANCH   1  16
TORSDOF 3
ENDMDL
MODEL 3
REMARK VINA RESULT:      -6.9      1.399      4.171
REMARK  3 active torsions:
REMARK  status: ('A' for Active; 'I' for Inactive)
REMARK    1  A    between atoms: C_4  and  N_1 
REMARK    2  A    between atoms: C_2  and  O_5 
REMARK       I    between atoms: N_3  and  C_2 
REMARK    3  A    between atoms: O_5  and  C_10 
ROOT
ATOM      1  C   UNL d   1     -50.139  14.497  22.649  0.00  0.00     0.129 A 
ATOM      2  C   UNL d   1     -49.603  14.010  23.037  0.00  0.00     0.048 A 
ATOM      3  C   UNL d   1     -49.297  13.354  22.649  0.00  0.00     0.106 A 
ATOM      4  C   UNL d   1     -50.366  14.328  21.874  0.00  0.00     0.024 A 
ATOM      5  C   UNL d   1     -50.055  13.672  21.497  0.00  0.00     0.004 A 
ATOM      6  C   UNL d   1     -49.519  13.184  21.885  0.00  0.00     0.025 A 
ENDROOT
BRANCH   3   7
ATOM      7  O   UNL d   1     -48.758  12.863  23.040  0.00  0.00    -0.259 OA
BRANCH   7   8
ATOM      8  C   UNL d   1     -47.949  12.992  22.987  0.00  0.00     0.377 C 
ATOM      9  N   UNL d   1     -47.401  12.400  23.204  0.00  0.00    -0.252 N 
ATOM     10  C   UNL d   1     -46.579  12.548  23.143  0.00  0.00     0.085 A 
ATOM     11  C   UNL d   1     -47.658  11.658  23.483  0.00  0.00     0.085 A 
ATOM     12  C   UNL d   1     -46.029  11.954  23.361  0.00  0.00     0.019 A 
ATOM     13  C   UNL d   1     -46.306  11.216  23.638  0.00  0.00     0.003 A 
ATOM     14  C   UNL d   1     -47.116  11.072  23.698  0.00  0.00     0.019 A 
ATOM     15  O   UNL d   1     -47.680  13.738  22.706  0.00  0.00    -0.237 OA
ENDBRANCH   7   8
ENDBRANCH   3   7
BRANCH   1  16
ATOM     16  N   UNL d   1     -50.453  15.161  23.031  0.00  0.00    -0.114 N 
ATOM     17  O   UNL d   1     -50.217  15.922  22.809  0.00  0.00    -0.532 OA
ATOM     18  O   UNL d   1     -51.006  15.054  23.637  0.00  0.00    -0.532 OA
ENDBRANCH   1  16
TORSDOF 3
ENDMDL
MODEL 4
REMARK VINA RESULT:      -6.9      1.663      4.003
REMARK  3 active torsions:
REMARK  status: ('A' for Active; 'I' for Inactive)
REMARK    1  A    between atoms: C_4  and  N_1 
REMARK    2  A    between atoms: C_2  and  O_5 
REMARK       I    between atoms: N_3  and  C_2 
REMARK    3  A    between atoms: O_5  and  C_10 
ROOT
ATOM      1  C   UNL d   1     -50.244  12.713  22.410  0.00  0.00     0.129 A 
ATOM      2  C   UNL d   1     -49.482  12.978  22.562  0.00  0.00     0.048 A 
ATOM      3  C   UNL d   1     -49.070  12.682  23.208  0.00  0.00     0.106 A 
ATOM      4  C   UNL d   1     -50.594  12.152  22.905  0.00  0.00     0.024 A 
ATOM      5  C   UNL d   1     -50.174  11.863  23.546  0.00  0.00     0.004 A 
ATOM      6  C   UNL d   1     -49.411  12.129  23.698  0.00  0.00     0.025 A 
ENDROOT
BRANCH   3   7
ATOM      7  O   UNL d   1     -48.303  12.949  23.360  0.00  0.00    -0.259 OA
BRANCH   7   8
ATOM      8  C   UNL d   1     -47.647  12.553  23.064  0.00  0.00     0.377 C 
ATOM      9  N   UNL d   1     -46.934  12.956  22.903  0.00  0.00    -0.252 N 
ATOM     10  C   UNL d   1     -46.275  12.536  22.601  0.00  0.00     0.085 A 
ATOM     11  C   UNL d   1     -46.864  13.776  23.037  0.00  0.00     0.085 A 
ATOM     12  C   UNL d   1     -45.559  12.941  22.438  0.00  0.00     0.019 A 
ATOM     13  C   UNL d   1     -45.508  13.763  22.579  0.00  0.00     0.003 A 
ATOM     14  C   UNL d   1     -46.157  14.175  22.877  0.00  0.00     0.019 A 
ATOM     15  O   UNL d   1     -47.709  11.725  22.926  0.00  0.00    -0.237 OA
ENDBRANCH   7   8
ENDBRANCH   3   7
BRANCH   1  16
ATOM     16  N   UNL d   1     -50.668  13.005  21.762  0.00  0.00    -0.114 N 
ATOM     17  O   UNL d   1     -51.064  13.729  21.814  0.00  0.00    -0.532 OA
ATOM     18  O   UNL d   1     -50.690  12.565  21.062  0.00  0.00    -0.532 OA
ENDBRANCH   1  16
TORSDOF 3
ENDMDL
MODEL 5
REMARK VINA RESULT:      -5.4      9.132     10.109
REMARK  3 active torsions:
REMARK  status: ('A' for Active; 'I' for Inactive)
REMARK    1  A    between atoms: C_4  and  N_1 
REMARK    2  A    between atoms: C_2  and  O_5 
REMARK       I    between atoms: N_3  and  C_2 
REMARK    3  A    between atoms: O_5  and  C_10 
ROOT
ATOM      1  C   UNL d   1     -40.105  14.699  17.374  0.00  0.00     0.129 A 
ATOM      2  C   UNL d   1     -40.102  14.675  18.196  0.00  0.00     0.048 A 
ATOM      3  C   UNL d   1     -39.605  14.150  18.583  0.00  0.00     0.106 A 
ATOM      4  C   UNL d   1     -39.612  14.198  16.943  0.00  0.00     0.024 A 
ATOM      5  C   UNL d   1     -39.120  13.677  17.340  0.00  0.00     0.004 A 
ATOM      6  C   UNL d   1     -39.117  13.653  18.162  0.00  0.00     0.025 A 
ENDROOT
BRANCH   3   7
ATOM      7  O   UNL d   1     -39.602  14.125  19.410  0.00  0.00    -0.259 OA
BRANCH   7   8
ATOM      8  C   UNL d   1     -39.047  14.545  19.846  0.00  0.00     0.377 C 
ATOM      9  N   UNL d   1     -39.019  14.490  20.679  0.00  0.00    -0.252 N 
ATOM     10  C   UNL d   1     -38.446  14.925  21.108  0.00  0.00     0.085 A 
ATOM     11  C   UNL d   1     -39.554  14.005  21.096  0.00  0.00     0.085 A 
ATOM     12  C   UNL d   1     -38.418  14.869  21.945  0.00  0.00     0.019 A 
ATOM     13  C   UNL d   1     -38.963  14.379  22.344  0.00  0.00     0.003 A 
ATOM     14  C   UNL d   1     -39.526  13.950  21.921  0.00  0.00     0.019 A 
ATOM     15  O   UNL d   1     -38.503  15.036  19.434  0.00  0.00    -0.237 OA
ENDBRANCH   7   8
ENDBRANCH   3   7
BRANCH   1  16
ATOM     16  N   UNL d   1     -40.602  15.226  16.973  0.00  0.00    -0.114 N 
ATOM     17  O   UNL d   1     -41.408  15.058  16.889  0.00  0.00    -0.532 OA
ATOM     18  O   UNL d   1     -40.285  15.921  16.657  0.00  0.00    -0.532 OA
ENDBRANCH   1  16
TORSDOF 3
ENDMDL
MODEL 6
REMARK VINA RESULT:      -5.3      8.630     10.288
REMARK  3 active torsions:
REMARK  status: ('A' for Active; 'I' for Inactive)
REMARK    1  A    between atoms: C_4  and  N_1 
REMARK    2  A    between atoms: C_2  and  O_5 
REMARK       I    between atoms: N_3  and  C_2 
REMARK    3  A    between atoms: O_5  and  C_10 
ROOT
ATOM      1  C   UNL d   1     -38.489  13.858  16.661  0.00  0.00     0.129 A 
ATOM      2  C   UNL d   1     -38.751  14.308  17.298  0.00  0.00     0.048 A 
ATOM      3  C   UNL d   1     -38.835  13.957  18.035  0.00  0.00     0.106 A 
ATOM      4  C   UNL d   1     -38.313  13.058  16.765  0.00  0.00     0.024 A 
ATOM      5  C   UNL d   1     -38.400  12.718  17.504  0.00  0.00     0.004 A 
ATOM      6  C   UNL d   1     -38.662  13.168  18.140  0.00  0.00     0.025 A 
ENDROOT
BRANCH   3   7
ATOM      7  O   UNL d   1     -39.099  14.409  18.675  0.00  0.00    -0.259 OA
BRANCH   7   8
ATOM      8  C   UNL d   1     -39.855  14.314  18.982  0.00  0.00     0.377 C 
ATOM      9  N   UNL d   1     -40.082  14.684  19.695  0.00  0.00    -0.252 N 
ATOM     10  C   UNL d   1     -40.858  14.575  19.993  0.00  0.00     0.085 A 
ATOM     11  C   UNL d   1     -39.549  15.163  20.120  0.00  0.00     0.085 A 
ATOM     12  C   UNL d   1     -41.086  14.947  20.709  0.00  0.00     0.019 A 
ATOM     13  C   UNL d   1     -40.538  15.424  21.121  0.00  0.00     0.003 A 
ATOM     14  C   UNL d   1     -39.775  15.530  20.826  0.00  0.00     0.019 A 
ATOM     15  O   UNL d   1     -40.400  13.831  18.559  0.00  0.00    -0.237 OA
ENDBRANCH   7   8
ENDBRANCH   3   7
BRANCH   1  16
ATOM     16  N   UNL d   1     -38.401  14.202  15.914  0.00  0.00    -0.114 N 
ATOM     17  O   UNL d   1     -38.299  15.020  15.840  0.00  0.00    -0.532 OA
ATOM     18  O   UNL d   1     -38.415  13.720  15.242  0.00  0.00    -0.532 OA
ENDBRANCH   1  16
TORSDOF 3
ENDMDL
MODEL 7
REMARK VINA RESULT:      -5.2      8.322      9.806
REMARK  3 active torsions:
REMARK  status: ('A' for Active; 'I' for Inactive)
REMARK    1  A    between atoms: C_4  and  N_1 
REMARK    2  A    between atoms: C_2  and  O_5 
REMARK       I    between atoms: N_3  and  C_2 
REMARK    3  A    between atoms: O_5  and  C_10 
ROOT
ATOM      1  C   UNL d   1     -39.881  15.355  21.247  0.00  0.00     0.129 A 
ATOM      2  C   UNL d   1     -39.726  14.950  20.549  0.00  0.00     0.048 A 
ATOM      3  C   UNL d   1     -40.251  15.011  19.920  0.00  0.00     0.106 A 
ATOM      4  C   UNL d   1     -40.560  15.820  21.315  0.00  0.00     0.024 A 
ATOM      5  C   UNL d   1     -41.076  15.874  20.682  0.00  0.00     0.004 A 
ATOM      6  C   UNL d   1     -40.921  15.469  19.983  0.00  0.00     0.025 A 
ENDROOT
BRANCH   3   7
ATOM      7  O   UNL d   1     -40.095  14.604  19.218  0.00  0.00    -0.259 OA
BRANCH   7   8
ATOM      8  C   UNL d   1     -39.779  14.987  18.564  0.00  0.00     0.377 C 
ATOM      9  N   UNL d   1     -39.428  14.560  17.939  0.00  0.00    -0.252 N 
ATOM     10  C   UNL d   1     -39.111  14.968  17.280  0.00  0.00     0.085 A 
ATOM     11  C   UNL d   1     -39.387  13.727  17.957  0.00  0.00     0.085 A 
ATOM     12  C   UNL d   1     -38.758  14.538  16.651  0.00  0.00     0.019 A 
ATOM     13  C   UNL d   1     -38.726  13.704  16.688  0.00  0.00     0.003 A 
ATOM     14  C   UNL d   1     -39.039  13.304  17.338  0.00  0.00     0.019 A 
ATOM     15  O   UNL d   1     -39.817  15.828  18.537  0.00  0.00    -0.237 OA
ENDBRANCH   7   8
ENDBRANCH   3   7
BRANCH   1  16
ATOM     16  N   UNL d   1     -39.359  15.300  21.887  0.00  0.00    -0.114 N 
ATOM     17  O   UNL d   1     -39.363  14.631  22.373  0.00  0.00    -0.532 OA
ATOM     18  O   UNL d   1     -38.833  15.921  22.034  0.00  0.00    -0.532 OA
ENDBRANCH   1  16
TORSDOF 3
ENDMDL
