MODEL 1
REMARK VINA RESULT:      65.5      0.000      0.000
REMARK  3 active torsions:
REMARK  status: ('A' for Active; 'I' for Inactive)
REMARK    1  A    between atoms: C_10  and  C_5 
REMARK    2  A    between atoms: C_16  and  C_10 
REMARK    3  A    between atoms: C_17  and  C_16 
ROOT
ATOM      1  C   UNL d   1     -56.994 -98.856 -45.395  0.00  0.00     0.111 A 
ATOM      2  C   UNL d   1     -58.245 -98.862 -44.682  0.00  0.00     0.062 A 
ATOM      3  C   UNL d   1     -56.598 -98.927 -44.609  0.00  0.00     0.213 A 
ATOM      4  C   UNL d   1     -57.870 -98.927 -43.981  0.00  0.00     0.101 A 
ATOM      5  C   UNL d   1     -57.806 -98.827 -45.391  0.00  0.00     0.018 A 
ATOM      6  O   UNL d   1     -57.048 -98.959 -43.945  0.00  0.00    -0.288 OA
ATOM      7  C   UNL d   1     -59.076 -98.829 -44.723  0.00  0.00     0.194 A 
ATOM      8  C   UNL d   1     -56.560 -98.821 -46.095  0.00  0.00     0.105 C 
ATOM      9  N   UNL d   1     -56.142 -98.784 -46.811  0.00  0.00    -0.191 NA
ATOM     10  C   UNL d   1     -58.304 -98.962 -43.280  0.00  0.00     0.002 A 
ATOM     11  C   UNL d   1     -59.116 -98.932 -43.277  0.00  0.00     0.042 A 
ATOM     12  C   UNL d   1     -59.517 -98.862 -44.054  0.00  0.00     0.019 A 
ATOM     13  O   UNL d   1     -59.478 -98.759 -45.479  0.00  0.00    -0.287 OA
ATOM     14  N   UNL d   1     -55.745 -98.964 -44.529  0.00  0.00    -0.120 N 
ATOM     15  C   UNL d   1     -59.135 -98.992 -42.446  0.00  0.00     0.009 C 
ATOM     16  C   UNL d   1     -59.915 -98.915 -43.116  0.00  0.00     0.009 C 
ENDROOT
BRANCH   5  17
ATOM     17  C   UNL d   1     -58.188 -98.757 -46.157  0.00  0.00     0.001 C 
BRANCH  17  18
ATOM     18  C   UNL d   1     -58.902 -99.149 -46.284  0.00  0.00     0.000 C 
BRANCH  18  19
ATOM     19  C   UNL d   1     -59.149 -99.246 -47.065  0.00  0.00     0.000 A 
ATOM     20  C   UNL d   1     -58.804 -98.762 -47.648  0.00  0.00     0.000 A 
ATOM     21  C   UNL d   1     -59.040 -98.847 -48.424  0.00  0.00     0.000 A 
ATOM     22  C   UNL d   1     -59.614 -99.409 -48.632  0.00  0.00     0.000 A 
ATOM     23  C   UNL d   1     -59.959 -99.893 -48.050  0.00  0.00     0.000 A 
ATOM     24  C   UNL d   1     -59.728 -99.811 -47.275  0.00  0.00     0.000 A 
ENDBRANCH  18  19
ENDBRANCH  17  18
ENDBRANCH   5  17
TORSDOF 3
ENDMDL
MODEL 2
REMARK VINA RESULT:      67.9      1.677      3.576
REMARK  3 active torsions:
REMARK  status: ('A' for Active; 'I' for Inactive)
REMARK    1  A    between atoms: C_10  and  C_5 
REMARK    2  A    between atoms: C_16  and  C_10 
REMARK    3  A    between atoms: C_17  and  C_16 
ROOT
ATOM      1  C   UNL d   1     -56.722 -98.816 -43.510  0.00  0.00     0.111 A 
ATOM      2  C   UNL d   1     -57.476 -98.829 -44.737  0.00  0.00     0.062 A 
ATOM      3  C   UNL d   1     -57.497 -98.790 -43.087  0.00  0.00     0.213 A 
ATOM      4  C   UNL d   1     -58.166 -98.806 -44.338  0.00  0.00     0.101 A 
ATOM      5  C   UNL d   1     -56.751 -98.834 -44.321  0.00  0.00     0.018 A 
ATOM      6  O   UNL d   1     -58.176 -98.787 -43.515  0.00  0.00    -0.288 OA
ATOM      7  C   UNL d   1     -57.461 -98.849 -45.569  0.00  0.00     0.194 A 
ATOM      8  C   UNL d   1     -56.007 -98.820 -43.100  0.00  0.00     0.105 C 
ATOM      9  N   UNL d   1     -55.276 -98.826 -42.706  0.00  0.00    -0.191 NA
ATOM     10  C   UNL d   1     -58.882 -98.801 -44.748  0.00  0.00     0.002 A 
ATOM     11  C   UNL d   1     -58.910 -98.819 -45.559  0.00  0.00     0.042 A 
ATOM     12  C   UNL d   1     -58.145 -98.844 -45.987  0.00  0.00     0.019 A 
ATOM     13  O   UNL d   1     -56.716 -98.873 -45.996  0.00  0.00    -0.287 OA
ATOM     14  N   UNL d   1     -57.550 -98.769 -42.232  0.00  0.00    -0.120 N 
ATOM     15  C   UNL d   1     -59.744 -98.802 -45.550  0.00  0.00     0.009 C 
ATOM     16  C   UNL d   1     -59.097 -98.834 -46.353  0.00  0.00     0.009 C 
ENDROOT
BRANCH   5  17
ATOM     17  C   UNL d   1     -55.996 -98.858 -44.730  0.00  0.00     0.001 C 
BRANCH  17  18
ATOM     18  C   UNL d   1     -55.348 -99.199 -44.352  0.00  0.00     0.000 C 
BRANCH  18  19
ATOM     19  C   UNL d   1     -55.142 -99.968 -44.566  0.00  0.00     0.000 A 
ATOM     20  C   UNL d   1     -54.982-100.120 -45.370  0.00  0.00     0.000 A 
ATOM     21  C   UNL d   1     -54.777-100.876 -45.596  0.00  0.00     0.000 A 
ATOM     22  C   UNL d   1     -54.727-101.487 -45.036  0.00  0.00     0.000 A 
ATOM     23  C   UNL d   1     -54.887-101.335 -44.234  0.00  0.00     0.000 A 
ATOM     24  C   UNL d   1     -55.092-100.583 -44.003  0.00  0.00     0.000 A 
ENDBRANCH  18  19
ENDBRANCH  17  18
ENDBRANCH   5  17
TORSDOF 3
ENDMDL
