MODEL 1
REMARK VINA RESULT:      -7.4      0.000      0.000
REMARK  4 active torsions:
REMARK  status: ('A' for Active; 'I' for Inactive)
REMARK    1  A    between atoms: C_7  and  C_1 
REMARK    2  A    between atoms: N_5  and  C_3 
REMARK       I    between atoms: C_8  and  N_5 
REMARK    3  A    between atoms: C_9  and  C_8 
REMARK    4  A    between atoms: O_21  and  C_15 
ROOT
ATOM      1  C   UNL d   1     -49.011  13.100  22.628  0.00  0.00     0.137 A 
ATOM      2  S   UNL d   1     -48.267  13.089  22.275  0.00  0.00    -0.026 SA
ATOM      3  C   UNL d   1     -47.747  12.690  22.769  0.00  0.00     0.219 A 
ATOM      4  N   UNL d   1     -48.950  12.697  23.358  0.00  0.00    -0.139 NA
ATOM      5  N   UNL d   1     -48.171  12.444  23.445  0.00  0.00    -0.121 NA
ENDROOT
BRANCH   3   6
ATOM      6  N   UNL d   1     -46.948  12.552  22.627  0.00  0.00    -0.181 NA
ATOM      7  C   UNL d   1     -46.268  12.897  22.953  0.00  0.00     0.281 C 
ATOM      8  O   UNL d   1     -46.339  13.480  23.519  0.00  0.00    -0.265 OA
BRANCH   7   9
ATOM      9  C   UNL d   1     -45.525  12.642  22.698  0.00  0.00     0.060 A 
ATOM     10  C   UNL d   1     -45.099  13.112  22.169  0.00  0.00     0.031 A 
ATOM     11  C   UNL d   1     -44.363  12.868  21.913  0.00  0.00     0.119 A 
ATOM     12  O   UNL d   1     -43.818  13.206  21.399  0.00  0.00    -0.300 OA
ATOM     13  C   UNL d   1     -44.046  12.156  22.180  0.00  0.00     0.119 A 
ATOM     14  C   UNL d   1     -43.160  12.705  21.346  0.00  0.00     0.304 A 
ATOM     15  O   UNL d   1     -43.304  12.052  21.833  0.00  0.00    -0.300 OA
ATOM     16  C   UNL d   1     -44.471  11.686  22.710  0.00  0.00     0.026 A 
ATOM     17  C   UNL d   1     -45.211  11.930  22.968  0.00  0.00     0.007 A 
ENDBRANCH   7   9
ENDBRANCH   3   6
BRANCH   1  18
ATOM     18  C   UNL d   1     -49.697  13.445  22.320  0.00  0.00     0.048 A 
ATOM     19  C   UNL d   1     -49.986  14.163  22.625  0.00  0.00     0.096 A 
ATOM     20  C   UNL d   1     -50.661  14.502  22.322  0.00  0.00     0.024 A 
ATOM     21  C   UNL d   1     -51.064  14.126  21.702  0.00  0.00     0.002 A 
ATOM     22  C   UNL d   1     -50.790  13.422  21.394  0.00  0.00     0.000 A 
ATOM     23  C   UNL d   1     -50.102  13.082  21.708  0.00  0.00     0.004 A 
BRANCH  19  24
ATOM     24  O   UNL d   1     -49.581  14.526  23.237  0.00  0.00    -0.328 OA
ATOM     25  C   UNL d   1     -49.716  15.323  23.403  0.00  0.00     0.181 C 
ENDBRANCH  19  24
ENDBRANCH   1  18
TORSDOF 4
ENDMDL
MODEL 2
REMARK VINA RESULT:      -6.4      1.379      5.406
REMARK  4 active torsions:
REMARK  status: ('A' for Active; 'I' for Inactive)
REMARK    1  A    between atoms: C_7  and  C_1 
REMARK    2  A    between atoms: N_5  and  C_3 
REMARK       I    between atoms: C_8  and  N_5 
REMARK    3  A    between atoms: C_9  and  C_8 
REMARK    4  A    between atoms: O_21  and  C_15 
ROOT
ATOM      1  C   UNL d   1     -45.310  12.556  22.748  0.00  0.00     0.137 A 
ATOM      2  S   UNL d   1     -46.044  12.597  22.377  0.00  0.00    -0.026 SA
ATOM      3  C   UNL d   1     -46.625  12.677  22.950  0.00  0.00     0.219 A 
ATOM      4  N   UNL d   1     -45.440  12.613  23.572  0.00  0.00    -0.139 NA
ATOM      5  N   UNL d   1     -46.251  12.687  23.697  0.00  0.00    -0.121 NA
ENDROOT
BRANCH   3   6
ATOM      6  N   UNL d   1     -47.435  12.737  22.818  0.00  0.00    -0.181 NA
ATOM      7  C   UNL d   1     -48.027  12.158  22.782  0.00  0.00     0.281 C 
ATOM      8  O   UNL d   1     -47.836  11.372  22.889  0.00  0.00    -0.265 OA
BRANCH   7   9
ATOM      9  C   UNL d   1     -48.808  12.387  22.639  0.00  0.00     0.060 A 
ATOM     10  C   UNL d   1     -48.982  12.814  21.954  0.00  0.00     0.031 A 
ATOM     11  C   UNL d   1     -49.751  13.044  21.805  0.00  0.00     0.119 A 
ATOM     12  O   UNL d   1     -50.090  13.465  21.185  0.00  0.00    -0.300 OA
ATOM     13  C   UNL d   1     -50.352  12.850  22.334  0.00  0.00     0.119 A 
ATOM     14  C   UNL d   1     -50.904  13.534  21.329  0.00  0.00     0.304 A 
ATOM     15  O   UNL d   1     -51.064  13.151  22.044  0.00  0.00    -0.300 OA
ATOM     16  C   UNL d   1     -50.179  12.422  23.019  0.00  0.00     0.026 A 
ATOM     17  C   UNL d   1     -49.407  12.191  23.170  0.00  0.00     0.007 A 
ENDBRANCH   7   9
ENDBRANCH   3   6
BRANCH   1  18
ATOM     18  C   UNL d   1     -44.575  12.475  22.378  0.00  0.00     0.048 A 
ATOM     19  C   UNL d   1     -44.072  11.840  22.566  0.00  0.00     0.096 A 
ATOM     20  C   UNL d   1     -43.349  11.760  22.202  0.00  0.00     0.024 A 
ATOM     21  C   UNL d   1     -43.111  12.318  21.637  0.00  0.00     0.002 A 
ATOM     22  C   UNL d   1     -43.596  12.946  21.444  0.00  0.00     0.000 A 
ATOM     23  C   UNL d   1     -44.332  13.022  21.819  0.00  0.00     0.004 A 
BRANCH  19  24
ATOM     24  O   UNL d   1     -44.315  11.293  23.125  0.00  0.00    -0.328 OA
ATOM     25  C   UNL d   1     -43.823  10.659  23.319  0.00  0.00     0.181 C 
ENDBRANCH  19  24
ENDBRANCH   1  18
TORSDOF 4
ENDMDL
MODEL 3
REMARK VINA RESULT:      -5.0      1.481      2.303
REMARK  4 active torsions:
REMARK  status: ('A' for Active; 'I' for Inactive)
REMARK    1  A    between atoms: C_7  and  C_1 
REMARK    2  A    between atoms: N_5  and  C_3 
REMARK       I    between atoms: C_8  and  N_5 
REMARK    3  A    between atoms: C_9  and  C_8 
REMARK    4  A    between atoms: O_21  and  C_15 
ROOT
ATOM      1  C   UNL d   1     -47.035  13.656  22.760  0.00  0.00     0.137 A 
ATOM      2  S   UNL d   1     -46.347  13.781  22.324  0.00  0.00    -0.026 SA
ATOM      3  C   UNL d   1     -45.743  13.334  22.652  0.00  0.00     0.219 A 
ATOM      4  N   UNL d   1     -46.850  13.119  23.374  0.00  0.00    -0.139 NA
ATOM      5  N   UNL d   1     -46.053  12.921  23.307  0.00  0.00    -0.121 NA
ENDROOT
BRANCH   3   6
ATOM      6  N   UNL d   1     -44.964  13.297  22.387  0.00  0.00    -0.181 NA
ATOM      7  C   UNL d   1     -44.636  12.966  21.702  0.00  0.00     0.281 C 
ATOM      8  O   UNL d   1     -45.118  12.596  21.157  0.00  0.00    -0.265 OA
BRANCH   7   9
ATOM      9  C   UNL d   1     -43.820  13.014  21.580  0.00  0.00     0.060 A 
ATOM     10  C   UNL d   1     -43.494  13.726  21.320  0.00  0.00     0.031 A 
ATOM     11  C   UNL d   1     -42.689  13.782  21.197  0.00  0.00     0.119 A 
ATOM     12  O   UNL d   1     -42.211  14.402  20.945  0.00  0.00    -0.300 OA
ATOM     13  C   UNL d   1     -42.203  13.130  21.333  0.00  0.00     0.119 A 
ATOM     14  C   UNL d   1     -41.426  14.136  20.923  0.00  0.00     0.304 A 
ATOM     15  O   UNL d   1     -41.423  13.345  21.165  0.00  0.00    -0.300 OA
ATOM     16  C   UNL d   1     -42.529  12.418  21.594  0.00  0.00     0.026 A 
ATOM     17  C   UNL d   1     -43.337  12.360  21.717  0.00  0.00     0.007 A 
ENDBRANCH   7   9
ENDBRANCH   3   6
BRANCH   1  18
ATOM     18  C   UNL d   1     -47.775  13.997  22.621  0.00  0.00     0.048 A 
ATOM     19  C   UNL d   1     -48.391  13.554  22.280  0.00  0.00     0.096 A 
ATOM     20  C   UNL d   1     -49.119  13.890  22.143  0.00  0.00     0.024 A 
ATOM     21  C   UNL d   1     -49.248  14.683  22.346  0.00  0.00     0.002 A 
ATOM     22  C   UNL d   1     -48.652  15.129  22.682  0.00  0.00     0.000 A 
ATOM     23  C   UNL d   1     -47.912  14.780  22.819  0.00  0.00     0.004 A 
BRANCH  19  24
ATOM     24  O   UNL d   1     -48.254  12.772  22.082  0.00  0.00    -0.328 OA
ATOM     25  C   UNL d   1     -48.856  12.324  21.738  0.00  0.00     0.181 C 
ENDBRANCH  19  24
ENDBRANCH   1  18
TORSDOF 4
ENDMDL
