MODEL 1
REMARK VINA RESULT:      -1.7      0.000      0.000
REMARK  4 active torsions:
REMARK  status: ('A' for Active; 'I' for Inactive)
REMARK    1  A    between atoms: S_9  and  C_2 
REMARK    2  A    between atoms: C_11  and  C_3 
REMARK    3  A    between atoms: C_7  and  C_10 
REMARK       I    between atoms: N_8  and  C_7 
REMARK    4  A    between atoms: C_10  and  S_9 
ROOT
ATOM      1  N   UNL d   1      31.063  17.796 -24.324  0.00  0.00    -0.220 NA
ATOM      2  C   UNL d   1      31.861  17.695 -24.468  0.00  0.00     0.114 A 
ATOM      3  C   UNL d   1      30.544  17.159 -24.388  0.00  0.00     0.163 A 
ATOM      4  N   UNL d   1      30.832  16.414 -24.598  0.00  0.00    -0.227 NA
ATOM      5  C   UNL d   1      32.149  16.951 -24.678  0.00  0.00     0.042 A 
ATOM      6  C   UNL d   1      31.640  16.305 -24.745  0.00  0.00     0.085 A 
ATOM      7  C   UNL d   1      32.955  16.847 -24.823  0.00  0.00     0.004 A 
ATOM      8  C   UNL d   1      31.912  15.572 -24.950  0.00  0.00     0.019 A 
ATOM      9  C   UNL d   1      33.233  16.098 -25.033  0.00  0.00     0.000 A 
ATOM     10  C   UNL d   1      32.708  15.459 -25.096  0.00  0.00     0.002 A 
ENDROOT
BRANCH   2  11
ATOM     11  S   UNL d   1      32.386  18.334 -24.405  0.00  0.00    -0.062 SA
BRANCH  11  12
ATOM     12  C   UNL d   1      32.412  18.789 -23.717  0.00  0.00     0.098 C 
BRANCH  12  13
ATOM     13  C   UNL d   1      32.723  19.545 -23.738  0.00  0.00     0.272 C 
ATOM     14  N   UNL d   1      32.824  19.972 -23.030  0.00  0.00    -0.267 N 
ATOM     15  C   UNL d   1      33.141  20.739 -23.056  0.00  0.00     0.110 A 
ATOM     16  C   UNL d   1      32.612  19.633 -22.320  0.00  0.00     0.110 A 
ATOM     17  C   UNL d   1      33.240  21.158 -22.359  0.00  0.00     0.142 A 
ATOM     18  O   UNL d   1      33.026  20.818 -21.636  0.00  0.00    -0.300 OA
ATOM     19  C   UNL d   1      32.711  20.052 -21.622  0.00  0.00     0.142 A 
ATOM     20  O   UNL d   1      32.937  19.885 -24.460  0.00  0.00    -0.266 OA
ENDBRANCH  12  13
ENDBRANCH  11  12
ENDBRANCH   2  11
BRANCH   3  21
ATOM     21  C   UNL d   1      29.733  17.261 -24.242  0.00  0.00     0.036 A 
ATOM     22  C   UNL d   1      29.343  16.745 -23.729  0.00  0.00     0.003 A 
ATOM     23  C   UNL d   1      28.538  16.847 -23.585  0.00  0.00     0.000 A 
ATOM     24  C   UNL d   1      28.129  17.463 -23.955  0.00  0.00     0.000 A 
ATOM     25  C   UNL d   1      28.526  17.976 -24.468  0.00  0.00     0.000 A 
ATOM     26  C   UNL d   1      29.330  17.867 -24.606  0.00  0.00     0.003 A 
ENDBRANCH   3  21
TORSDOF 4
ENDMDL
MODEL 2
REMARK VINA RESULT:      -0.2      1.989      3.445
REMARK  4 active torsions:
REMARK  status: ('A' for Active; 'I' for Inactive)
REMARK    1  A    between atoms: S_9  and  C_2 
REMARK    2  A    between atoms: C_11  and  C_3 
REMARK    3  A    between atoms: C_7  and  C_10 
REMARK       I    between atoms: N_8  and  C_7 
REMARK    4  A    between atoms: C_10  and  S_9 
ROOT
ATOM      1  N   UNL d   1      32.753  18.896 -22.838  0.00  0.00    -0.220 NA
ATOM      2  C   UNL d   1      32.984  19.678 -22.889  0.00  0.00     0.114 A 
ATOM      3  C   UNL d   1      32.534  18.480 -23.515  0.00  0.00     0.163 A 
ATOM      4  N   UNL d   1      32.547  18.857 -24.250  0.00  0.00    -0.227 NA
ATOM      5  C   UNL d   1      32.998  20.054 -23.624  0.00  0.00     0.042 A 
ATOM      6  C   UNL d   1      32.780  19.649 -24.309  0.00  0.00     0.085 A 
ATOM      7  C   UNL d   1      33.231  20.844 -23.678  0.00  0.00     0.004 A 
ATOM      8  C   UNL d   1      32.790  20.009 -25.033  0.00  0.00     0.019 A 
ATOM      9  C   UNL d   1      33.241  21.211 -24.418  0.00  0.00     0.000 A 
ATOM     10  C   UNL d   1      33.019  20.791 -25.097  0.00  0.00     0.002 A 
ENDROOT
BRANCH   2  11
ATOM     11  S   UNL d   1      33.206  20.099 -22.210  0.00  0.00    -0.062 SA
BRANCH  11  12
ATOM     12  C   UNL d   1      32.639  20.487 -21.754  0.00  0.00     0.098 C 
BRANCH  12  13
ATOM     13  C   UNL d   1      32.826  20.747 -21.001  0.00  0.00     0.272 C 
ATOM     14  N   UNL d   1      32.605  21.512 -20.759  0.00  0.00    -0.267 N 
ATOM     15  C   UNL d   1      32.797  21.771 -19.994  0.00  0.00     0.110 A 
ATOM     16  C   UNL d   1      32.202  21.998 -21.273  0.00  0.00     0.110 A 
ATOM     17  C   UNL d   1      32.579  22.524 -19.755  0.00  0.00     0.142 A 
ATOM     18  O   UNL d   1      32.170  23.020 -20.275  0.00  0.00    -0.300 OA
ATOM     19  C   UNL d   1      31.983  22.752 -21.036  0.00  0.00     0.142 A 
ATOM     20  O   UNL d   1      33.235  20.250 -20.482  0.00  0.00    -0.266 OA
ENDBRANCH  12  13
ENDBRANCH  11  12
ENDBRANCH   2  11
BRANCH   3  21
ATOM     21  C   UNL d   1      32.299  17.685 -23.463  0.00  0.00     0.036 A 
ATOM     22  C   UNL d   1      31.521  17.478 -23.643  0.00  0.00     0.003 A 
ATOM     23  C   UNL d   1      31.289  16.688 -23.592  0.00  0.00     0.000 A 
ATOM     24  C   UNL d   1      31.836  16.113 -23.361  0.00  0.00     0.000 A 
ATOM     25  C   UNL d   1      32.614  16.329 -23.181  0.00  0.00     0.000 A 
ATOM     26  C   UNL d   1      32.837  17.119 -23.236  0.00  0.00     0.003 A 
ENDBRANCH   3  21
TORSDOF 4
ENDMDL
