MODEL 1
REMARK VINA RESULT:       2.3      0.000      0.000
REMARK  4 active torsions:
REMARK  status: ('A' for Active; 'I' for Inactive)
REMARK    1  A    between atoms: C_5  and  N_1 
REMARK    2  A    between atoms: C_7  and  C_3 
REMARK    3  A    between atoms: C_10  and  C_4 
REMARK    4  A    between atoms: N_11  and  C_5 
ROOT
ATOM      1  N   UNL d   1     -42.800-122.823 -50.338  0.00  0.00    -0.203 N 
ATOM      2  N   UNL d   1     -42.759-122.801 -51.166  0.00  0.00    -0.163 NA
ATOM      3  C   UNL d   1     -42.050-122.992 -50.043  0.00  0.00     0.088 A 
ATOM      4  C   UNL d   1     -41.967-122.960 -51.383  0.00  0.00     0.103 A 
ATOM      5  C   UNL d   1     -41.535-123.077 -50.690  0.00  0.00     0.040 A 
ENDROOT
BRANCH   3   6
ATOM      6  C   UNL d   1     -41.807-123.073 -49.253  0.00  0.00     0.028 A 
ATOM      7  C   UNL d   1     -41.369-122.482 -48.902  0.00  0.00     0.059 A 
ATOM      8 CL   UNL d   1     -41.270-122.104 -49.181  0.00  0.00    -0.082 Cl
ATOM      9  C   UNL d   1     -41.123-122.556 -48.115  0.00  0.00     0.011 A 
ATOM     10  C   UNL d   1     -41.319-123.224 -47.684  0.00  0.00     0.001 A 
ATOM     11  C   UNL d   1     -41.766-123.817 -48.054  0.00  0.00     0.000 A 
ATOM     12  C   UNL d   1     -42.000-123.733 -48.824  0.00  0.00     0.002 A 
ENDBRANCH   3   6
BRANCH   1  13
ATOM     13  C   UNL d   1     -43.502-122.691 -49.885  0.00  0.00     0.222 C 
ATOM     14  S   UNL d   1     -43.818-121.924 -49.849  0.00  0.00    -0.037 SA
BRANCH  13  15
ATOM     15  N   UNL d   1     -43.864-123.326 -49.486  0.00  0.00    -0.214 NA
ATOM     16  C   UNL d   1     -44.694-123.442 -49.561  0.00  0.00     0.122 C 
ENDBRANCH  13  15
ENDBRANCH   1  13
BRANCH   4  17
ATOM     17  C   UNL d   1     -41.689-122.990 -52.145  0.00  0.00     0.019 A 
ATOM     18  C   UNL d   1     -41.552-123.724 -52.496  0.00  0.00     0.002 A 
ATOM     19  C   UNL d   1     -41.269-123.769 -53.270  0.00  0.00     0.000 A 
ATOM     20  C   UNL d   1     -41.123-123.081 -53.698  0.00  0.00     0.000 A 
ATOM     21  C   UNL d   1     -41.257-122.350 -53.355  0.00  0.00     0.000 A 
ATOM     22  C   UNL d   1     -41.539-122.306 -52.581  0.00  0.00     0.002 A 
ENDBRANCH   4  17
TORSDOF 4
ENDMDL
MODEL 2
REMARK VINA RESULT:       2.4      1.508      4.115
REMARK  4 active torsions:
REMARK  status: ('A' for Active; 'I' for Inactive)
REMARK    1  A    between atoms: C_5  and  N_1 
REMARK    2  A    between atoms: C_7  and  C_3 
REMARK    3  A    between atoms: C_10  and  C_4 
REMARK    4  A    between atoms: N_11  and  C_5 
ROOT
ATOM      1  N   UNL d   1     -41.826-121.859 -51.705  0.00  0.00    -0.203 N 
ATOM      2  N   UNL d   1     -41.880-121.950 -50.882  0.00  0.00    -0.163 NA
ATOM      3  C   UNL d   1     -41.763-122.605 -52.048  0.00  0.00     0.088 A 
ATOM      4  C   UNL d   1     -41.849-122.769 -50.718  0.00  0.00     0.103 A 
ATOM      5  C   UNL d   1     -41.777-123.168 -51.437  0.00  0.00     0.040 A 
ENDROOT
BRANCH   3   6
ATOM      6  C   UNL d   1     -41.696-122.805 -52.850  0.00  0.00     0.028 A 
ATOM      7  C   UNL d   1     -41.303-123.487 -53.067  0.00  0.00     0.059 A 
ATOM      8 CL   UNL d   1     -41.125-123.746 -52.703  0.00  0.00    -0.082 Cl
ATOM      9  C   UNL d   1     -41.233-123.693 -53.865  0.00  0.00     0.011 A 
ATOM     10  C   UNL d   1     -41.557-123.212 -54.444  0.00  0.00     0.001 A 
ATOM     11  C   UNL d   1     -41.953-122.522 -54.210  0.00  0.00     0.000 A 
ATOM     12  C   UNL d   1     -42.015-122.331 -53.426  0.00  0.00     0.002 A 
ENDBRANCH   3   6
BRANCH   1  13
ATOM     13  C   UNL d   1     -41.836-121.117 -52.111  0.00  0.00     0.222 C 
ATOM     14  S   UNL d   1     -42.558-120.831 -52.406  0.00  0.00    -0.037 SA
BRANCH  13  15
ATOM     15  N   UNL d   1     -41.130-120.687 -52.207  0.00  0.00    -0.214 NA
ATOM     16  C   UNL d   1     -41.160-119.906 -52.520  0.00  0.00     0.122 C 
ENDBRANCH  13  15
ENDBRANCH   1  13
BRANCH   4  17
ATOM     17  C   UNL d   1     -41.884-123.098 -49.976  0.00  0.00     0.019 A 
ATOM     18  C   UNL d   1     -41.201-123.129 -49.516  0.00  0.00     0.002 A 
ATOM     19  C   UNL d   1     -41.223-123.461 -48.760  0.00  0.00     0.000 A 
ATOM     20  C   UNL d   1     -41.929-123.762 -48.461  0.00  0.00     0.000 A 
ATOM     21  C   UNL d   1     -42.610-123.733 -48.913  0.00  0.00     0.000 A 
ATOM     22  C   UNL d   1     -42.587-123.402 -49.669  0.00  0.00     0.002 A 
ENDBRANCH   4  17
TORSDOF 4
ENDMDL
MODEL 3
REMARK VINA RESULT:       2.5      1.042      3.704
REMARK  4 active torsions:
REMARK  status: ('A' for Active; 'I' for Inactive)
REMARK    1  A    between atoms: C_5  and  N_1 
REMARK    2  A    between atoms: C_7  and  C_3 
REMARK    3  A    between atoms: C_10  and  C_4 
REMARK    4  A    between atoms: N_11  and  C_5 
ROOT
ATOM      1  N   UNL d   1     -42.875-122.505 -50.012  0.00  0.00    -0.203 N 
ATOM      2  N   UNL d   1     -42.944-122.692 -49.207  0.00  0.00    -0.163 NA
ATOM      3  C   UNL d   1     -42.122-122.718 -50.268  0.00  0.00     0.088 A 
ATOM      4  C   UNL d   1     -42.217-123.027 -48.964  0.00  0.00     0.103 A 
ATOM      5  C   UNL d   1     -41.715-123.042 -49.618  0.00  0.00     0.040 A 
ENDROOT
BRANCH   3   6
ATOM      6  C   UNL d   1     -41.788-122.644 -51.023  0.00  0.00     0.028 A 
ATOM      7  C   UNL d   1     -41.646-123.310 -51.472  0.00  0.00     0.059 A 
ATOM      8 CL   UNL d   1     -41.768-123.727 -51.266  0.00  0.00    -0.082 Cl
ATOM      9  C   UNL d   1     -41.313-123.242 -52.226  0.00  0.00     0.011 A 
ATOM     10  C   UNL d   1     -41.124-122.504 -52.528  0.00  0.00     0.001 A 
ATOM     11  C   UNL d   1     -41.274-121.835 -52.061  0.00  0.00     0.000 A 
ATOM     12  C   UNL d   1     -41.600-121.914 -51.324  0.00  0.00     0.002 A 
ENDBRANCH   3   6
BRANCH   1  13
ATOM     13  C   UNL d   1     -43.486-122.154 -50.480  0.00  0.00     0.222 C 
ATOM     14  S   UNL d   1     -43.372-121.387 -50.777  0.00  0.00    -0.037 SA
BRANCH  13  15
ATOM     15  N   UNL d   1     -44.186-122.577 -50.635  0.00  0.00    -0.214 NA
ATOM     16  C   UNL d   1     -44.930-122.223 -50.468  0.00  0.00     0.122 C 
ENDBRANCH  13  15
ENDBRANCH   1  13
BRANCH   4  17
ATOM     17  C   UNL d   1     -42.051-123.287 -48.212  0.00  0.00     0.019 A 
ATOM     18  C   UNL d   1     -42.670-123.407 -47.681  0.00  0.00     0.002 A 
ATOM     19  C   UNL d   1     -42.515-123.672 -46.915  0.00  0.00     0.000 A 
ATOM     20  C   UNL d   1     -41.741-123.817 -46.676  0.00  0.00     0.000 A 
ATOM     21  C   UNL d   1     -41.123-123.700 -47.199  0.00  0.00     0.000 A 
ATOM     22  C   UNL d   1     -41.278-123.436 -47.965  0.00  0.00     0.002 A 
ENDBRANCH   4  17
TORSDOF 4
ENDMDL
