MODEL 1
REMARK VINA RESULT:      -2.5      0.000      0.000
REMARK  8 active torsions:
REMARK  status: ('A' for Active; 'I' for Inactive)
REMARK    1  A    between atoms: C_7  and  C_1 
REMARK    2  A    between atoms: S_2  and  N_8 
REMARK    3  A    between atoms: C_11  and  S_2 
REMARK    4  A    between atoms: O_17  and  C_7 
REMARK    5  A    between atoms: N_8  and  C_13 
REMARK    6  A    between atoms: C_22  and  O_17 
REMARK    7  A    between atoms: O_19  and  C_23 
REMARK    8  A    between atoms: C_23  and  C_22 
ROOT
ATOM      1  C   UNL d   1     -41.679-122.619 -52.743  0.00  0.00     0.088 A 
ATOM      2  C   UNL d   1     -41.316-123.257 -53.115  0.00  0.00     0.105 A 
ATOM      3  C   UNL d   1     -41.714-122.776 -51.940  0.00  0.00     0.031 A 
ATOM      4  O   UNL d   1     -41.126-123.817 -52.525  0.00  0.00    -0.307 OA
ATOM      5  C   UNL d   1     -41.373-123.515 -51.805  0.00  0.00     0.100 A 
ATOM      6  C   UNL d   1     -42.015-122.338 -51.307  0.00  0.00     0.022 A 
ATOM      7  C   UNL d   1     -41.974-122.641 -50.546  0.00  0.00     0.094 A 
ATOM      8  C   UNL d   1     -41.333-123.816 -51.037  0.00  0.00     0.026 A 
ATOM      9  C   UNL d   1     -41.633-123.380 -50.411  0.00  0.00     0.022 A 
ATOM     10  C   UNL d   1     -41.148-123.377 -53.908  0.00  0.00     0.027 C 
ENDROOT
BRANCH   7  11
ATOM     11  N   UNL d   1     -42.293-122.172 -49.888  0.00  0.00    -0.158 NA
BRANCH  11  12
ATOM     12  S   UNL d   1     -42.332-122.490 -49.119  0.00  0.00     0.285 S 
ATOM     13  O   UNL d   1     -41.617-122.892 -49.215  0.00  0.00    -0.198 OA
ATOM     14  O   UNL d   1     -43.075-122.086 -48.989  0.00  0.00    -0.198 OA
BRANCH  12  15
ATOM     15  C   UNL d   1     -42.405-122.796 -48.330  0.00  0.00     0.105 A 
ATOM     16  C   UNL d   1     -43.092-123.218 -48.150  0.00  0.00     0.013 A 
ATOM     17  C   UNL d   1     -43.197-123.529 -47.393  0.00  0.00     0.001 A 
ATOM     18  C   UNL d   1     -42.615-123.418 -46.816  0.00  0.00     0.000 A 
ATOM     19  C   UNL d   1     -41.935-122.998 -47.000  0.00  0.00     0.001 A 
ATOM     20  C   UNL d   1     -41.830-122.687 -47.757  0.00  0.00     0.013 A 
ENDBRANCH  12  15
ENDBRANCH  11  12
ENDBRANCH   7  11
BRANCH   1  21
ATOM     21  C   UNL d   1     -41.948-121.944 -53.169  0.00  0.00     0.302 C 
ATOM     22  O   UNL d   1     -41.764-121.173 -52.921  0.00  0.00    -0.259 OA
BRANCH  21  23
ATOM     23  O   UNL d   1     -42.410-122.059 -53.854  0.00  0.00    -0.269 OA
BRANCH  23  24
ATOM     24  C   UNL d   1     -42.262-121.622 -54.547  0.00  0.00     0.152 C 
BRANCH  24  25
ATOM     25  C   UNL d   1     -42.831-121.560 -55.138  0.00  0.00     0.143 C 
BRANCH  25  26
ATOM     26  O   UNL d   1     -42.683-121.799 -55.923  0.00  0.00    -0.324 OA
ATOM     27  C   UNL d   1     -43.282-122.111 -56.360  0.00  0.00     0.182 C 
ENDBRANCH  25  26
ENDBRANCH  24  25
ENDBRANCH  23  24
ENDBRANCH  21  23
ENDBRANCH   1  21
TORSDOF 8
ENDMDL
MODEL 2
REMARK VINA RESULT:      -1.3      1.603      5.715
REMARK  8 active torsions:
REMARK  status: ('A' for Active; 'I' for Inactive)
REMARK    1  A    between atoms: C_7  and  C_1 
REMARK    2  A    between atoms: S_2  and  N_8 
REMARK    3  A    between atoms: C_11  and  S_2 
REMARK    4  A    between atoms: O_17  and  C_7 
REMARK    5  A    between atoms: N_8  and  C_13 
REMARK    6  A    between atoms: C_22  and  O_17 
REMARK    7  A    between atoms: O_19  and  C_23 
REMARK    8  A    between atoms: C_23  and  C_22 
ROOT
ATOM      1  C   UNL d   1     -42.121-122.306 -50.234  0.00  0.00     0.088 A 
ATOM      2  C   UNL d   1     -41.782-121.672 -49.834  0.00  0.00     0.105 A 
ATOM      3  C   UNL d   1     -41.902-122.257 -51.023  0.00  0.00     0.031 A 
ATOM      4  O   UNL d   1     -41.347-121.225 -50.390  0.00  0.00    -0.307 OA
ATOM      5  C   UNL d   1     -41.425-121.591 -51.118  0.00  0.00     0.100 A 
ATOM      6  C   UNL d   1     -42.077-122.737 -51.673  0.00  0.00     0.022 A 
ATOM      7  C   UNL d   1     -41.775-122.548 -52.411  0.00  0.00     0.094 A 
ATOM      8  C   UNL d   1     -41.123-121.405 -51.864  0.00  0.00     0.026 A 
ATOM      9  C   UNL d   1     -41.298-121.882 -52.507  0.00  0.00     0.022 A 
ATOM     10  C   UNL d   1     -41.828-121.467 -49.042  0.00  0.00     0.027 C 
ENDROOT
BRANCH   7  11
ATOM     11  N   UNL d   1     -41.965-123.060 -53.087  0.00  0.00    -0.158 NA
BRANCH  11  12
ATOM     12  S   UNL d   1     -41.954-122.759 -53.864  0.00  0.00     0.285 S 
ATOM     13  O   UNL d   1     -42.547-122.211 -53.694  0.00  0.00    -0.198 OA
ATOM     14  O   UNL d   1     -41.337-123.316 -54.071  0.00  0.00    -0.198 OA
BRANCH  12  15
ATOM     15  C   UNL d   1     -41.914-122.478 -54.664  0.00  0.00     0.105 A 
ATOM     16  C   UNL d   1     -41.230-122.652 -55.093  0.00  0.00     0.013 A 
ATOM     17  C   UNL d   1     -41.157-122.396 -55.874  0.00  0.00     0.001 A 
ATOM     18  C   UNL d   1     -41.769-121.965 -56.226  0.00  0.00     0.000 A 
ATOM     19  C   UNL d   1     -42.446-121.794 -55.796  0.00  0.00     0.001 A 
ATOM     20  C   UNL d   1     -42.518-122.051 -55.016  0.00  0.00     0.013 A 
ENDBRANCH  12  15
ENDBRANCH  11  12
ENDBRANCH   7  11
BRANCH   1  21
ATOM     21  C   UNL d   1     -42.603-122.878 -49.847  0.00  0.00     0.302 C 
ATOM     22  O   UNL d   1     -43.423-122.911 -49.974  0.00  0.00    -0.259 OA
BRANCH  21  23
ATOM     23  O   UNL d   1     -42.242-123.420 -49.326  0.00  0.00    -0.269 OA
BRANCH  23  24
ATOM     24  C   UNL d   1     -42.616-123.644 -48.617  0.00  0.00     0.152 C 
BRANCH  24  25
ATOM     25  C   UNL d   1     -42.179-123.778 -47.933  0.00  0.00     0.143 C 
BRANCH  25  26
ATOM     26  O   UNL d   1     -42.384-123.433 -47.201  0.00  0.00    -0.324 OA
ATOM     27  C   UNL d   1     -42.893-123.817 -46.712  0.00  0.00     0.182 C 
ENDBRANCH  25  26
ENDBRANCH  24  25
ENDBRANCH  23  24
ENDBRANCH  21  23
ENDBRANCH   1  21
TORSDOF 8
ENDMDL
