MODEL 1
REMARK VINA RESULT:       4.9      0.000      0.000
REMARK  8 active torsions:
REMARK  status: ('A' for Active; 'I' for Inactive)
REMARK    1  A    between atoms: C_2  and  P_1 
REMARK    2  A    between atoms: O_4  and  P_1 
REMARK    3  A    between atoms: C_5  and  P_1 
REMARK    4  A    between atoms: C_3  and  C_2 
REMARK    5  A    between atoms: C_20  and  O_4 
REMARK    6  A    between atoms: O_19  and  C_8 
REMARK    7  A    between atoms: N_11  and  C_9 
REMARK    8  A    between atoms: O_21  and  C_10 
ROOT
ATOM      1  P   UNL d   1      31.085  17.179 -23.989  0.00  0.00     0.307 P 
ATOM      2  O   UNL d   1      31.128  16.541 -23.470  0.00  0.00    -0.277 OA
ENDROOT
BRANCH   1   3
ATOM      3  C   UNL d   1      31.043  17.816 -24.507  0.00  0.00     0.253 C 
ATOM      4  O   UNL d   1      30.450  17.851 -25.090  0.00  0.00    -0.281 OA
BRANCH   3   5
ATOM      5  C   UNL d   1      31.593  18.437 -24.455  0.00  0.00     0.046 A 
ATOM      6  C   UNL d   1      31.640  18.897 -23.774  0.00  0.00     0.030 A 
ATOM      7  C   UNL d   1      32.183  19.506 -23.729  0.00  0.00     0.116 A 
ATOM      8  C   UNL d   1      32.695  19.675 -24.362  0.00  0.00     0.116 A 
ATOM      9  C   UNL d   1      32.647  19.209 -25.053  0.00  0.00     0.026 A 
ATOM     10  C   UNL d   1      32.095  18.590 -25.097  0.00  0.00     0.005 A 
BRANCH   7  11
ATOM     11  O   UNL d   1      32.228  19.963 -23.048  0.00  0.00    -0.326 OA
ATOM     12  C   UNL d   1      32.783  19.781 -22.466  0.00  0.00     0.181 C 
ENDBRANCH   7  11
BRANCH   8  13
ATOM     13  O   UNL d   1      33.241  20.287 -24.319  0.00  0.00    -0.326 OA
ATOM     14  C   UNL d   1      33.226  20.876 -24.894  0.00  0.00     0.181 C 
ENDBRANCH   8  13
ENDBRANCH   3   5
ENDBRANCH   1   3
BRANCH   1  15
ATOM     15  O   UNL d   1      31.904  17.172 -24.063  0.00  0.00    -0.281 OA
BRANCH  15  16
ATOM     16  C   UNL d   1      32.349  16.599 -23.682  0.00  0.00     0.101 A 
ATOM     17  C   UNL d   1      32.379  16.580 -22.852  0.00  0.00     0.025 A 
ATOM     18  C   UNL d   1      32.822  16.010 -22.471  0.00  0.00     0.002 A 
ATOM     19  C   UNL d   1      33.241  15.453 -22.908  0.00  0.00     0.000 A 
ATOM     20  C   UNL d   1      33.216  15.465 -23.730  0.00  0.00     0.002 A 
ATOM     21  C   UNL d   1      32.765  16.045 -24.119  0.00  0.00     0.025 A 
ENDBRANCH  15  16
ENDBRANCH   1  15
BRANCH   1  22
ATOM     22  C   UNL d   1      30.259  17.185 -23.914  0.00  0.00     0.061 A 
ATOM     23  C   UNL d   1      29.898  17.722 -23.402  0.00  0.00     0.007 A 
ATOM     24  C   UNL d   1      29.067  17.729 -23.325  0.00  0.00     0.018 A 
ATOM     25  C   UNL d   1      28.609  17.204 -23.757  0.00  0.00     0.064 A 
ATOM     26  C   UNL d   1      28.977  16.667 -24.270  0.00  0.00     0.018 A 
ATOM     27  C   UNL d   1      29.809  16.660 -24.346  0.00  0.00     0.007 A 
BRANCH  25  28
ATOM     28  N   UNL d   1      27.786  17.211 -23.682  0.00  0.00    -0.301 N 
ATOM     29  C   UNL d   1      27.438  17.496 -22.993  0.00  0.00     0.100 C 
ATOM     30  C   UNL d   1      27.316  16.930 -24.298  0.00  0.00     0.100 C 
ENDBRANCH  25  28
ENDBRANCH   1  22
TORSDOF 8
ENDMDL
MODEL 2
REMARK VINA RESULT:       5.9      1.642      3.702
REMARK  8 active torsions:
REMARK  status: ('A' for Active; 'I' for Inactive)
REMARK    1  A    between atoms: C_2  and  P_1 
REMARK    2  A    between atoms: O_4  and  P_1 
REMARK    3  A    between atoms: C_5  and  P_1 
REMARK    4  A    between atoms: C_3  and  C_2 
REMARK    5  A    between atoms: C_20  and  O_4 
REMARK    6  A    between atoms: O_19  and  C_8 
REMARK    7  A    between atoms: N_11  and  C_9 
REMARK    8  A    between atoms: O_21  and  C_10 
ROOT
ATOM      1  P   UNL d   1      32.326  18.133 -23.860  0.00  0.00     0.307 P 
ATOM      2  O   UNL d   1      32.743  17.838 -23.215  0.00  0.00    -0.277 OA
ENDROOT
BRANCH   1   3
ATOM      3  C   UNL d   1      31.910  18.429 -24.505  0.00  0.00     0.253 C 
ATOM      4  O   UNL d   1      32.260  18.981 -25.019  0.00  0.00    -0.281 OA
BRANCH   3   5
ATOM      5  C   UNL d   1      31.131  18.180 -24.653  0.00  0.00     0.046 A 
ATOM      6  C   UNL d   1      30.539  18.731 -24.802  0.00  0.00     0.030 A 
ATOM      7  C   UNL d   1      29.775  18.480 -24.947  0.00  0.00     0.116 A 
ATOM      8  C   UNL d   1      29.578  17.672 -24.947  0.00  0.00     0.116 A 
ATOM      9  C   UNL d   1      30.179  17.114 -24.795  0.00  0.00     0.026 A 
ATOM     10  C   UNL d   1      30.955  17.370 -24.648  0.00  0.00     0.005 A 
BRANCH   7  11
ATOM     11  O   UNL d   1      29.185  19.033 -25.096  0.00  0.00    -0.326 OA
ATOM     12  C   UNL d   1      28.392  18.815 -25.037  0.00  0.00     0.181 C 
ENDBRANCH   7  11
BRANCH   8  13
ATOM     13  O   UNL d   1      28.811  17.418 -25.092  0.00  0.00    -0.326 OA
ATOM     14  C   UNL d   1      28.639  16.616 -25.035  0.00  0.00     0.181 C 
ENDBRANCH   8  13
ENDBRANCH   3   5
ENDBRANCH   1   3
BRANCH   1  15
ATOM     15  O   UNL d   1      32.210  17.367 -24.135  0.00  0.00    -0.281 OA
BRANCH  15  16
ATOM     16  C   UNL d   1      32.552  16.732 -23.747  0.00  0.00     0.101 A 
ATOM     17  C   UNL d   1      32.606  16.731 -22.919  0.00  0.00     0.025 A 
ATOM     18  C   UNL d   1      32.947  16.099 -22.530  0.00  0.00     0.002 A 
ATOM     19  C   UNL d   1      33.238  15.460 -22.959  0.00  0.00     0.000 A 
ATOM     20  C   UNL d   1      33.188  15.453 -23.780  0.00  0.00     0.002 A 
ATOM     21  C   UNL d   1      32.842  16.096 -24.176  0.00  0.00     0.025 A 
ENDBRANCH  15  16
ENDBRANCH   1  15
BRANCH   1  22
ATOM     22  C   UNL d   1      32.445  18.906 -23.582  0.00  0.00     0.061 A 
ATOM     23  C   UNL d   1      32.757  19.480 -24.086  0.00  0.00     0.007 A 
ATOM     24  C   UNL d   1      32.876  20.257 -23.807  0.00  0.00     0.018 A 
ATOM     25  C   UNL d   1      32.684  20.452 -23.034  0.00  0.00     0.064 A 
ATOM     26  C   UNL d   1      32.371  19.872 -22.533  0.00  0.00     0.018 A 
ATOM     27  C   UNL d   1      32.251  19.094 -22.812  0.00  0.00     0.007 A 
BRANCH  25  28
ATOM     28  N   UNL d   1      32.802  21.222 -22.759  0.00  0.00    -0.301 N 
ATOM     29  C   UNL d   1      32.682  21.397 -21.963  0.00  0.00     0.100 C 
ATOM     30  C   UNL d   1      33.041  21.812 -23.282  0.00  0.00     0.100 C 
ENDBRANCH  25  28
ENDBRANCH   1  22
TORSDOF 8
ENDMDL
MODEL 3
REMARK VINA RESULT:       7.1      1.477      3.263
REMARK  8 active torsions:
REMARK  status: ('A' for Active; 'I' for Inactive)
REMARK    1  A    between atoms: C_2  and  P_1 
REMARK    2  A    between atoms: O_4  and  P_1 
REMARK    3  A    between atoms: C_5  and  P_1 
REMARK    4  A    between atoms: C_3  and  C_2 
REMARK    5  A    between atoms: C_20  and  O_4 
REMARK    6  A    between atoms: O_19  and  C_8 
REMARK    7  A    between atoms: N_11  and  C_9 
REMARK    8  A    between atoms: O_21  and  C_10 
ROOT
ATOM      1  P   UNL d   1      30.104  16.855 -24.291  0.00  0.00     0.307 P 
ATOM      2  O   UNL d   1      29.802  17.620 -24.335  0.00  0.00    -0.277 OA
ENDROOT
BRANCH   1   3
ATOM      3  C   UNL d   1      30.405  16.092 -24.247  0.00  0.00     0.253 C 
ATOM      4  O   UNL d   1      30.015  15.459 -24.620  0.00  0.00    -0.281 OA
BRANCH   3   5
ATOM      5  C   UNL d   1      31.106  15.940 -23.827  0.00  0.00     0.046 A 
ATOM      6  C   UNL d   1      31.804  15.770 -24.229  0.00  0.00     0.030 A 
ATOM      7  C   UNL d   1      32.491  15.622 -23.811  0.00  0.00     0.116 A 
ATOM      8  C   UNL d   1      32.502  15.639 -22.979  0.00  0.00     0.116 A 
ATOM      9  C   UNL d   1      31.794  15.811 -22.573  0.00  0.00     0.026 A 
ATOM     10  C   UNL d   1      31.097  15.961 -22.999  0.00  0.00     0.005 A 
BRANCH   7  11
ATOM     11  O   UNL d   1      33.186  15.452 -24.215  0.00  0.00    -0.326 OA
ATOM     12  C   UNL d   1      33.212  15.523 -25.036  0.00  0.00     0.181 C 
ENDBRANCH   7  11
BRANCH   8  13
ATOM     13  O   UNL d   1      33.190  15.490 -22.558  0.00  0.00    -0.326 OA
ATOM     14  C   UNL d   1      33.241  15.740 -21.776  0.00  0.00     0.181 C 
ENDBRANCH   8  13
ENDBRANCH   3   5
ENDBRANCH   1   3
BRANCH   1  15
ATOM     15  O   UNL d   1      30.824  17.124 -24.583  0.00  0.00    -0.281 OA
BRANCH  15  16
ATOM     16  C   UNL d   1      30.943  17.923 -24.721  0.00  0.00     0.101 A 
ATOM     17  C   UNL d   1      30.292  18.432 -24.802  0.00  0.00     0.025 A 
ATOM     18  C   UNL d   1      30.409  19.228 -24.939  0.00  0.00     0.002 A 
ATOM     19  C   UNL d   1      31.172  19.529 -24.997  0.00  0.00     0.000 A 
ATOM     20  C   UNL d   1      31.822  19.031 -24.917  0.00  0.00     0.002 A 
ATOM     21  C   UNL d   1      31.705  18.220 -24.778  0.00  0.00     0.025 A 
ENDBRANCH  15  16
ENDBRANCH   1  15
BRANCH   1  22
ATOM     22  C   UNL d   1      29.376  16.585 -23.996  0.00  0.00     0.061 A 
ATOM     23  C   UNL d   1      29.144  15.806 -24.131  0.00  0.00     0.007 A 
ATOM     24  C   UNL d   1      28.413  15.534 -23.835  0.00  0.00     0.018 A 
ATOM     25  C   UNL d   1      27.926  16.038 -23.410  0.00  0.00     0.064 A 
ATOM     26  C   UNL d   1      28.165  16.821 -23.278  0.00  0.00     0.018 A 
ATOM     27  C   UNL d   1      28.897  17.093 -23.575  0.00  0.00     0.007 A 
BRANCH  25  28
ATOM     28  N   UNL d   1      27.202  15.769 -23.117  0.00  0.00    -0.301 N 
ATOM     29  C   UNL d   1      27.157  15.454 -22.358  0.00  0.00     0.100 C 
ATOM     30  C   UNL d   1      26.526  15.817 -23.587  0.00  0.00     0.100 C 
ENDBRANCH  25  28
ENDBRANCH   1  22
TORSDOF 8
ENDMDL
