MODEL 1
REMARK VINA RESULT:      -8.6      0.000      0.000
REMARK  5 active torsions:
REMARK  status: ('A' for Active; 'I' for Inactive)
REMARK    1  A    between atoms: C_6  and  C_1 
REMARK    2  A    between atoms: C_8  and  N_3 
REMARK    3  A    between atoms: C_7  and  C_6 
REMARK    4  A    between atoms: C_9  and  C_7 
REMARK    5  A    between atoms: C_14  and  C_8 
ROOT
ATOM      1  C   UNL d   1      52.857  31.934  53.231  0.00  0.00     0.148 A 
ATOM      2  N   UNL d   1      52.265  32.357  52.679  0.00  0.00    -0.227 NA
ATOM      3  N   UNL d   1      53.244  32.586  53.740  0.00  0.00    -0.289 N 
ATOM      4  C   UNL d   1      52.897  33.406  53.508  0.00  0.00     0.083 A 
ATOM      5  C   UNL d   1      52.280  33.262  52.840  0.00  0.00     0.099 A 
ATOM      6  C   UNL d   1      53.058  34.258  53.813  0.00  0.00     0.019 A 
ATOM      7  C   UNL d   1      51.838  33.973  52.490  0.00  0.00     0.021 A 
ATOM      8  C   UNL d   1      52.603  34.952  53.447  0.00  0.00     0.002 A 
ATOM      9  C   UNL d   1      51.986  34.808  52.779  0.00  0.00     0.002 A 
ENDROOT
BRANCH   1  10
ATOM     10  C   UNL d   1      53.236  31.319  53.529  0.00  0.00     0.037 C 
BRANCH  10  11
ATOM     11  C   UNL d   1      53.120  30.552  53.287  0.00  0.00     0.003 C 
BRANCH  11  12
ATOM     12  C   UNL d   1      53.265  29.906  53.760  0.00  0.00     0.000 A 
ATOM     13  C   UNL d   1      52.718  29.647  54.304  0.00  0.00     0.000 A 
ATOM     14  C   UNL d   1      52.864  29.002  54.777  0.00  0.00     0.000 A 
ATOM     15  C   UNL d   1      53.581  28.601  54.703  0.00  0.00     0.000 A 
ATOM     16  C   UNL d   1      54.138  28.855  54.159  0.00  0.00     0.000 A 
ATOM     17  C   UNL d   1      53.982  29.505  53.687  0.00  0.00     0.000 A 
ENDBRANCH  11  12
ENDBRANCH  10  11
ENDBRANCH   1  10
BRANCH   3  18
ATOM     18  C   UNL d   1      53.624  33.101  54.220  0.00  0.00     0.082 C 
BRANCH  18  19
ATOM     19  C   UNL d   1      54.092  32.799  54.834  0.00  0.00     0.019 C 
ATOM     20  C   UNL d   1      54.672  33.274  55.172  0.00  0.00     0.002 C 
ENDBRANCH  18  19
ENDBRANCH   3  18
TORSDOF 5
ENDMDL
MODEL 2
REMARK VINA RESULT:      -8.0      1.495      4.384
REMARK  5 active torsions:
REMARK  status: ('A' for Active; 'I' for Inactive)
REMARK    1  A    between atoms: C_6  and  C_1 
REMARK    2  A    between atoms: C_8  and  N_3 
REMARK    3  A    between atoms: C_7  and  C_6 
REMARK    4  A    between atoms: C_9  and  C_7 
REMARK    5  A    between atoms: C_14  and  C_8 
ROOT
ATOM      1  C   UNL d   1      52.342  34.035  53.440  0.00  0.00     0.148 A 
ATOM      2  N   UNL d   1      52.848  34.539  54.012  0.00  0.00    -0.227 NA
ATOM      3  N   UNL d   1      52.680  33.188  53.478  0.00  0.00    -0.289 N 
ATOM      4  C   UNL d   1      53.387  33.162  54.066  0.00  0.00     0.083 A 
ATOM      5  C   UNL d   1      53.493  34.013  54.402  0.00  0.00     0.099 A 
ATOM      6  C   UNL d   1      53.945  32.485  54.338  0.00  0.00     0.019 A 
ATOM      7  C   UNL d   1      54.155  34.168  55.004  0.00  0.00     0.021 A 
ATOM      8  C   UNL d   1      54.599  32.665  54.941  0.00  0.00     0.002 A 
ATOM      9  C   UNL d   1      54.705  33.516  55.277  0.00  0.00     0.002 A 
ENDROOT
BRANCH   1  10
ATOM     10  C   UNL d   1      51.771  33.907  52.923  0.00  0.00     0.037 C 
BRANCH  10  11
ATOM     11  C   UNL d   1      51.421  34.489  52.477  0.00  0.00     0.003 C 
BRANCH  11  12
ATOM     12  C   UNL d   1      50.641  34.467  52.244  0.00  0.00     0.000 A 
ATOM     13  C   UNL d   1      50.039  34.639  52.762  0.00  0.00     0.000 A 
ATOM     14  C   UNL d   1      49.260  34.616  52.529  0.00  0.00     0.000 A 
ATOM     15  C   UNL d   1      49.078  34.414  51.750  0.00  0.00     0.000 A 
ATOM     16  C   UNL d   1      49.678  34.239  51.221  0.00  0.00     0.000 A 
ATOM     17  C   UNL d   1      50.459  34.265  51.465  0.00  0.00     0.000 A 
ENDBRANCH  11  12
ENDBRANCH  10  11
ENDBRANCH   1  10
BRANCH   3  18
ATOM     18  C   UNL d   1      52.921  32.425  53.460  0.00  0.00     0.082 C 
BRANCH  18  19
ATOM     19  C   UNL d   1      52.525  31.896  52.959  0.00  0.00     0.019 C 
ATOM     20  C   UNL d   1      52.743  31.104  52.954  0.00  0.00     0.002 C 
ENDBRANCH  18  19
ENDBRANCH   3  18
TORSDOF 5
ENDMDL
MODEL 3
REMARK VINA RESULT:      -7.9      0.892      2.071
REMARK  5 active torsions:
REMARK  status: ('A' for Active; 'I' for Inactive)
REMARK    1  A    between atoms: C_6  and  C_1 
REMARK    2  A    between atoms: C_8  and  N_3 
REMARK    3  A    between atoms: C_7  and  C_6 
REMARK    4  A    between atoms: C_9  and  C_7 
REMARK    5  A    between atoms: C_14  and  C_8 
ROOT
ATOM      1  C   UNL d   1      53.454  32.758  53.985  0.00  0.00     0.148 A 
ATOM      2  N   UNL d   1      53.919  33.229  54.616  0.00  0.00    -0.227 NA
ATOM      3  N   UNL d   1      52.871  33.347  53.604  0.00  0.00    -0.289 N 
ATOM      4  C   UNL d   1      52.970  34.176  53.991  0.00  0.00     0.083 A 
ATOM      5  C   UNL d   1      53.630  34.101  54.629  0.00  0.00     0.099 A 
ATOM      6  C   UNL d   1      52.552  34.982  53.851  0.00  0.00     0.019 A 
ATOM      7  C   UNL d   1      53.857  34.834  55.113  0.00  0.00     0.021 A 
ATOM      8  C   UNL d   1      52.797  35.700  54.348  0.00  0.00     0.002 A 
ATOM      9  C   UNL d   1      53.457  35.626  54.986  0.00  0.00     0.002 A 
ENDROOT
BRANCH   1  10
ATOM     10  C   UNL d   1      53.262  32.124  53.571  0.00  0.00     0.037 C 
BRANCH  10  11
ATOM     11  C   UNL d   1      53.719  31.453  53.525  0.00  0.00     0.003 C 
BRANCH  11  12
ATOM     12  C   UNL d   1      53.409  30.701  53.492  0.00  0.00     0.000 A 
ATOM     13  C   UNL d   1      52.999  30.441  52.841  0.00  0.00     0.000 A 
ATOM     14  C   UNL d   1      52.689  29.689  52.808  0.00  0.00     0.000 A 
ATOM     15  C   UNL d   1      52.794  29.181  53.449  0.00  0.00     0.000 A 
ATOM     16  C   UNL d   1      53.206  29.435  54.109  0.00  0.00     0.000 A 
ATOM     17  C   UNL d   1      53.514  30.193  54.133  0.00  0.00     0.000 A 
ENDBRANCH  11  12
ENDBRANCH  10  11
ENDBRANCH   1  10
BRANCH   3  18
ATOM     18  C   UNL d   1      52.335  33.805  53.224  0.00  0.00     0.082 C 
BRANCH  18  19
ATOM     19  C   UNL d   1      51.756  33.436  52.760  0.00  0.00     0.019 C 
ATOM     20  C   UNL d   1      51.361  33.870  52.185  0.00  0.00     0.002 C 
ENDBRANCH  18  19
ENDBRANCH   3  18
TORSDOF 5
ENDMDL
MODEL 4
REMARK VINA RESULT:      -7.3      1.673      4.518
REMARK  5 active torsions:
REMARK  status: ('A' for Active; 'I' for Inactive)
REMARK    1  A    between atoms: C_6  and  C_1 
REMARK    2  A    between atoms: C_8  and  N_3 
REMARK    3  A    between atoms: C_7  and  C_6 
REMARK    4  A    between atoms: C_9  and  C_7 
REMARK    5  A    between atoms: C_14  and  C_8 
ROOT
ATOM      1  C   UNL d   1      51.820  33.423  52.845  0.00  0.00     0.148 A 
ATOM      2  N   UNL d   1      52.151  32.577  52.740  0.00  0.00    -0.227 NA
ATOM      3  N   UNL d   1      52.404  33.861  53.393  0.00  0.00    -0.289 N 
ATOM      4  C   UNL d   1      53.092  33.296  53.628  0.00  0.00     0.083 A 
ATOM      5  C   UNL d   1      52.932  32.488  53.217  0.00  0.00     0.099 A 
ATOM      6  C   UNL d   1      53.835  33.407  54.157  0.00  0.00     0.019 A 
ATOM      7  C   UNL d   1      53.520  31.808  53.343  0.00  0.00     0.021 A 
ATOM      8  C   UNL d   1      54.407  32.712  54.267  0.00  0.00     0.002 A 
ATOM      9  C   UNL d   1      54.248  31.903  53.855  0.00  0.00     0.002 A 
ENDROOT
BRANCH   1  10
ATOM     10  C   UNL d   1      51.311  34.005  52.733  0.00  0.00     0.037 C 
BRANCH  10  11
ATOM     11  C   UNL d   1      50.789  34.042  52.112  0.00  0.00     0.003 C 
BRANCH  11  12
ATOM     12  C   UNL d   1      50.067  34.415  52.154  0.00  0.00     0.000 A 
ATOM     13  C   UNL d   1      49.814  34.771  52.840  0.00  0.00     0.000 A 
ATOM     14  C   UNL d   1      49.092  35.143  52.882  0.00  0.00     0.000 A 
ATOM     15  C   UNL d   1      48.607  35.160  52.215  0.00  0.00     0.000 A 
ATOM     16  C   UNL d   1      48.854  34.804  51.521  0.00  0.00     0.000 A 
ATOM     17  C   UNL d   1      49.582  34.431  51.487  0.00  0.00     0.000 A 
ENDBRANCH  11  12
ENDBRANCH  10  11
ENDBRANCH   1  10
BRANCH   3  18
ATOM     18  C   UNL d   1      52.870  34.307  53.868  0.00  0.00     0.082 C 
BRANCH  18  19
ATOM     19  C   UNL d   1      52.785  35.131  53.845  0.00  0.00     0.019 C 
ATOM     20  C   UNL d   1      52.966  35.575  54.512  0.00  0.00     0.002 C 
ENDBRANCH  18  19
ENDBRANCH   3  18
TORSDOF 5
ENDMDL
MODEL 5
REMARK VINA RESULT:      -7.0      1.049      4.204
REMARK  5 active torsions:
REMARK  status: ('A' for Active; 'I' for Inactive)
REMARK    1  A    between atoms: C_6  and  C_1 
REMARK    2  A    between atoms: C_8  and  N_3 
REMARK    3  A    between atoms: C_7  and  C_6 
REMARK    4  A    between atoms: C_9  and  C_7 
REMARK    5  A    between atoms: C_14  and  C_8 
ROOT
ATOM      1  C   UNL d   1      52.287  32.512  52.910  0.00  0.00     0.148 A 
ATOM      2  N   UNL d   1      52.138  31.681  52.559  0.00  0.00    -0.227 NA
ATOM      3  N   UNL d   1      52.965  32.417  53.514  0.00  0.00    -0.289 N 
ATOM      4  C   UNL d   1      53.236  31.538  53.540  0.00  0.00     0.083 A 
ATOM      5  C   UNL d   1      52.715  31.074  52.939  0.00  0.00     0.099 A 
ATOM      6  C   UNL d   1      53.882  31.101  54.025  0.00  0.00     0.019 A 
ATOM      7  C   UNL d   1      52.850  30.183  52.836  0.00  0.00     0.021 A 
ATOM      8  C   UNL d   1      53.998  30.209  53.905  0.00  0.00     0.002 A 
ATOM      9  C   UNL d   1      53.476  29.745  53.304  0.00  0.00     0.002 A 
ENDROOT
BRANCH   1  10
ATOM     10  C   UNL d   1      52.167  33.279  52.995  0.00  0.00     0.037 C 
BRANCH  10  11
ATOM     11  C   UNL d   1      51.820  33.751  52.431  0.00  0.00     0.003 C 
BRANCH  11  12
ATOM     12  C   UNL d   1      51.107  34.128  52.540  0.00  0.00     0.000 A 
ATOM     13  C   UNL d   1      50.928  34.503  53.239  0.00  0.00     0.000 A 
ATOM     14  C   UNL d   1      50.216  34.880  53.347  0.00  0.00     0.000 A 
ATOM     15  C   UNL d   1      49.663  34.882  52.735  0.00  0.00     0.000 A 
ATOM     16  C   UNL d   1      49.834  34.507  52.028  0.00  0.00     0.000 A 
ATOM     17  C   UNL d   1      50.554  34.130  51.928  0.00  0.00     0.000 A 
ENDBRANCH  11  12
ENDBRANCH  10  11
ENDBRANCH   1  10
BRANCH   3  18
ATOM     18  C   UNL d   1      53.554  32.410  54.056  0.00  0.00     0.082 C 
BRANCH  18  19
ATOM     19  C   UNL d   1      53.850  33.135  54.329  0.00  0.00     0.019 C 
ATOM     20  C   UNL d   1      54.243  33.165  55.050  0.00  0.00     0.002 C 
ENDBRANCH  18  19
ENDBRANCH   3  18
TORSDOF 5
ENDMDL
MODEL 6
REMARK VINA RESULT:      -5.9      1.076      4.440
REMARK  5 active torsions:
REMARK  status: ('A' for Active; 'I' for Inactive)
REMARK    1  A    between atoms: C_6  and  C_1 
REMARK    2  A    between atoms: C_8  and  N_3 
REMARK    3  A    between atoms: C_7  and  C_6 
REMARK    4  A    between atoms: C_9  and  C_7 
REMARK    5  A    between atoms: C_14  and  C_8 
ROOT
ATOM      1  C   UNL d   1      53.607  32.439  53.830  0.00  0.00     0.148 A 
ATOM      2  N   UNL d   1      54.127  31.706  53.996  0.00  0.00    -0.227 NA
ATOM      3  N   UNL d   1      52.845  32.129  53.436  0.00  0.00    -0.289 N 
ATOM      4  C   UNL d   1      52.887  31.213  53.357  0.00  0.00     0.083 A 
ATOM      5  C   UNL d   1      53.695  30.947  53.709  0.00  0.00     0.099 A 
ATOM      6  C   UNL d   1      52.305  30.591  53.014  0.00  0.00     0.019 A 
ATOM      7  C   UNL d   1      53.904  30.064  53.711  0.00  0.00     0.021 A 
ATOM      8  C   UNL d   1      52.536  29.713  53.027  0.00  0.00     0.002 A 
ATOM      9  C   UNL d   1      53.345  29.447  53.379  0.00  0.00     0.002 A 
ENDROOT
BRANCH   1  10
ATOM     10  C   UNL d   1      53.433  33.200  53.831  0.00  0.00     0.037 C 
BRANCH  10  11
ATOM     11  C   UNL d   1      53.874  33.769  54.208  0.00  0.00     0.003 C 
BRANCH  11  12
ATOM     12  C   UNL d   1      53.592  34.512  54.385  0.00  0.00     0.000 A 
ATOM     13  C   UNL d   1      53.527  35.087  53.815  0.00  0.00     0.000 A 
ATOM     14  C   UNL d   1      53.245  35.829  53.992  0.00  0.00     0.000 A 
ATOM     15  C   UNL d   1      53.019  36.001  54.766  0.00  0.00     0.000 A 
ATOM     16  C   UNL d   1      53.080  35.427  55.347  0.00  0.00     0.000 A 
ATOM     17  C   UNL d   1      53.366  34.683  55.160  0.00  0.00     0.000 A 
ENDBRANCH  11  12
ENDBRANCH  10  11
ENDBRANCH   1  10
BRANCH   3  18
ATOM     18  C   UNL d   1      52.152  31.931  53.088  0.00  0.00     0.082 C 
BRANCH  18  19
ATOM     19  C   UNL d   1      51.692  32.532  52.750  0.00  0.00     0.019 C 
ATOM     20  C   UNL d   1      50.902  32.606  52.966  0.00  0.00     0.002 C 
ENDBRANCH  18  19
ENDBRANCH   3  18
TORSDOF 5
ENDMDL
MODEL 7
REMARK VINA RESULT:      -5.7      3.598      5.606
REMARK  5 active torsions:
REMARK  status: ('A' for Active; 'I' for Inactive)
REMARK    1  A    between atoms: C_6  and  C_1 
REMARK    2  A    between atoms: C_8  and  N_3 
REMARK    3  A    between atoms: C_7  and  C_6 
REMARK    4  A    between atoms: C_9  and  C_7 
REMARK    5  A    between atoms: C_14  and  C_8 
ROOT
ATOM      1  C   UNL d   1      49.219  35.272  53.145  0.00  0.00     0.148 A 
ATOM      2  N   UNL d   1      48.753  35.817  53.713  0.00  0.00    -0.227 NA
ATOM      3  N   UNL d   1      48.702  35.179  52.398  0.00  0.00    -0.289 N 
ATOM      4  C   UNL d   1      47.924  35.660  52.498  0.00  0.00     0.083 A 
ATOM      5  C   UNL d   1      47.956  36.061  53.326  0.00  0.00     0.099 A 
ATOM      6  C   UNL d   1      47.196  35.785  51.952  0.00  0.00     0.019 A 
ATOM      7  C   UNL d   1      47.259  36.579  53.590  0.00  0.00     0.021 A 
ATOM      8  C   UNL d   1      46.512  36.308  52.238  0.00  0.00     0.002 A 
ATOM      9  C   UNL d   1      46.544  36.709  53.067  0.00  0.00     0.002 A 
ENDROOT
BRANCH   1  10
ATOM     10  C   UNL d   1      49.821  34.827  52.923  0.00  0.00     0.037 C 
BRANCH  10  11
ATOM     11  C   UNL d   1      50.363  34.504  53.435  0.00  0.00     0.003 C 
BRANCH  11  12
ATOM     12  C   UNL d   1      51.047  34.138  53.191  0.00  0.00     0.000 A 
ATOM     13  C   UNL d   1      51.661  34.561  52.866  0.00  0.00     0.000 A 
ATOM     14  C   UNL d   1      52.345  34.195  52.622  0.00  0.00     0.000 A 
ATOM     15  C   UNL d   1      52.417  33.377  52.705  0.00  0.00     0.000 A 
ATOM     16  C   UNL d   1      51.804  32.944  53.031  0.00  0.00     0.000 A 
ATOM     17  C   UNL d   1      51.120  33.321  53.274  0.00  0.00     0.000 A 
ENDBRANCH  11  12
ENDBRANCH  10  11
ENDBRANCH   1  10
BRANCH   3  18
ATOM     18  C   UNL d   1      48.306  35.053  51.715  0.00  0.00     0.082 C 
BRANCH  18  19
ATOM     19  C   UNL d   1      48.726  34.767  51.060  0.00  0.00     0.019 C 
ATOM     20  C   UNL d   1      48.461  34.092  50.672  0.00  0.00     0.002 C 
ENDBRANCH  18  19
ENDBRANCH   3  18
TORSDOF 5
ENDMDL
