MODEL 1
REMARK VINA RESULT:      -5.5      0.000      0.000
REMARK  6 active torsions:
REMARK  status: ('A' for Active; 'I' for Inactive)
REMARK    1  A    between atoms: C_9  and  N_1 
REMARK    2  A    between atoms: S_10  and  C_6 
REMARK    3  A    between atoms: C_16  and  C_9 
REMARK    4  A    between atoms: C_15  and  S_10 
REMARK    5  A    between atoms: C_12  and  C_15 
REMARK       I    between atoms: N_13  and  C_12 
REMARK    6  A    between atoms: C_19  and  N_13 
ROOT
ATOM      1  N   UNL d   1     -45.701  12.821  22.718  0.00  0.00    -0.192 N 
ATOM      2  N   UNL d   1     -45.664  13.468  22.213  0.00  0.00    -0.058 NA
ATOM      3  C   UNL d   1     -44.996  12.402  22.639  0.00  0.00     0.189 A 
ATOM      4  C   UNL d   1     -44.530  12.801  22.083  0.00  0.00     0.164 A 
ATOM      5  N   UNL d   1     -44.956  13.459  21.827  0.00  0.00    -0.125 NA
ATOM      6  C   UNL d   1     -43.790  12.518  21.884  0.00  0.00     0.135 A 
ATOM      7  N   UNL d   1     -44.722  11.721  22.997  0.00  0.00    -0.203 NA
ATOM      8  N   UNL d   1     -43.504  11.825  22.243  0.00  0.00    -0.216 NA
ATOM      9  C   UNL d   1     -43.970  11.427  22.800  0.00  0.00     0.201 A 
ENDROOT
BRANCH   6  10
ATOM     10  S   UNL d   1     -43.324  12.917  21.327  0.00  0.00    -0.061 SA
BRANCH  10  11
ATOM     11  C   UNL d   1     -42.513  12.954  21.417  0.00  0.00     0.099 C 
BRANCH  11  12
ATOM     12  C   UNL d   1     -42.065  13.434  20.913  0.00  0.00     0.286 C 
ATOM     13  N   UNL d   1     -41.527  13.978  21.240  0.00  0.00    -0.208 NA
ATOM     14  O   UNL d   1     -42.145  13.378  20.095  0.00  0.00    -0.265 OA
BRANCH  13  15
ATOM     15  C   UNL d   1     -41.075  14.462  20.743  0.00  0.00     0.085 A 
ATOM     16  C   UNL d   1     -40.544  14.287  20.118  0.00  0.00     0.019 A 
ATOM     17  C   UNL d   1     -40.266  15.000  19.837  0.00  0.00     0.002 A 
ATOM     18  C   UNL d   1     -40.607  15.586  20.264  0.00  0.00     0.002 A 
ATOM     19  C   UNL d   1     -41.105  15.281  20.824  0.00  0.00     0.019 A 
ENDBRANCH  13  15
ENDBRANCH  11  12
ENDBRANCH  10  11
ENDBRANCH   6  10
BRANCH   1  20
ATOM     20  C   UNL d   1     -46.345  12.626  23.221  0.00  0.00     0.104 C 
BRANCH  20  21
ATOM     21  C   UNL d   1     -47.125  12.853  23.019  0.00  0.00     0.019 A 
ATOM     22  C   UNL d   1     -47.633  12.308  22.658  0.00  0.00     0.004 A 
ATOM     23  C   UNL d   1     -48.396  12.525  22.459  0.00  0.00     0.030 A 
ATOM     24  C   UNL d   1     -48.660  13.295  22.620  0.00  0.00     0.140 A 
ATOM     25  C   UNL d   1     -48.152  13.848  22.984  0.00  0.00     0.030 A 
ATOM     26  F   UNL d   1     -49.447  13.508  22.410  0.00  0.00    -0.204 F 
ATOM     27  C   UNL d   1     -47.396  13.616  23.175  0.00  0.00     0.004 A 
ENDBRANCH  20  21
ENDBRANCH   1  20
TORSDOF 6
ENDMDL
MODEL 2
REMARK VINA RESULT:      -5.1      0.955      1.515
REMARK  6 active torsions:
REMARK  status: ('A' for Active; 'I' for Inactive)
REMARK    1  A    between atoms: C_9  and  N_1 
REMARK    2  A    between atoms: S_10  and  C_6 
REMARK    3  A    between atoms: C_16  and  C_9 
REMARK    4  A    between atoms: C_15  and  S_10 
REMARK    5  A    between atoms: C_12  and  C_15 
REMARK       I    between atoms: N_13  and  C_12 
REMARK    6  A    between atoms: C_19  and  N_13 
ROOT
ATOM      1  N   UNL d   1     -46.927  13.542  22.816  0.00  0.00    -0.192 N 
ATOM      2  N   UNL d   1     -46.704  14.101  22.258  0.00  0.00    -0.058 NA
ATOM      3  C   UNL d   1     -46.314  12.994  22.878  0.00  0.00     0.189 A 
ATOM      4  C   UNL d   1     -45.718  13.226  22.352  0.00  0.00     0.164 A 
ATOM      5  N   UNL d   1     -45.973  13.913  21.975  0.00  0.00    -0.125 NA
ATOM      6  C   UNL d   1     -45.031  12.789  22.286  0.00  0.00     0.135 A 
ATOM      7  N   UNL d   1     -46.224  12.325  23.337  0.00  0.00    -0.203 NA
ATOM      8  N   UNL d   1     -44.931  12.107  22.750  0.00  0.00    -0.216 NA
ATOM      9  C   UNL d   1     -45.528  11.874  23.276  0.00  0.00     0.201 A 
ENDROOT
BRANCH   6  10
ATOM     10  S   UNL d   1     -44.435  13.021  21.761  0.00  0.00    -0.061 SA
BRANCH  10  11
ATOM     11  C   UNL d   1     -43.688  12.696  21.813  0.00  0.00     0.099 C 
BRANCH  11  12
ATOM     12  C   UNL d   1     -43.077  12.988  21.335  0.00  0.00     0.286 C 
ATOM     13  N   UNL d   1     -42.507  13.494  21.667  0.00  0.00    -0.208 NA
ATOM     14  O   UNL d   1     -43.030  12.783  20.538  0.00  0.00    -0.265 OA
BRANCH  13  15
ATOM     15  C   UNL d   1     -41.893  13.790  21.196  0.00  0.00     0.085 A 
ATOM     16  C   UNL d   1     -41.292  13.412  20.751  0.00  0.00     0.019 A 
ATOM     17  C   UNL d   1     -40.849  14.000  20.402  0.00  0.00     0.002 A 
ATOM     18  C   UNL d   1     -41.159  14.707  20.619  0.00  0.00     0.002 A 
ATOM     19  C   UNL d   1     -41.797  14.603  21.104  0.00  0.00     0.019 A 
ENDBRANCH  13  15
ENDBRANCH  11  12
ENDBRANCH  10  11
ENDBRANCH   6  10
BRANCH   1  20
ATOM     20  C   UNL d   1     -47.650  13.533  23.244  0.00  0.00     0.104 C 
BRANCH  20  21
ATOM     21  C   UNL d   1     -48.341  13.872  22.915  0.00  0.00     0.019 A 
ATOM     22  C   UNL d   1     -48.523  14.665  23.066  0.00  0.00     0.004 A 
ATOM     23  C   UNL d   1     -49.197  15.002  22.747  0.00  0.00     0.030 A 
ATOM     24  C   UNL d   1     -49.699  14.544  22.271  0.00  0.00     0.140 A 
ATOM     25  C   UNL d   1     -49.520  13.744  22.116  0.00  0.00     0.030 A 
ATOM     26  F   UNL d   1     -50.390  14.901  21.948  0.00  0.00    -0.204 F 
ATOM     27  C   UNL d   1     -48.846  13.426  22.441  0.00  0.00     0.004 A 
ENDBRANCH  20  21
ENDBRANCH   1  20
TORSDOF 6
ENDMDL
MODEL 3
REMARK VINA RESULT:      -4.6      3.328      4.414
REMARK  6 active torsions:
REMARK  status: ('A' for Active; 'I' for Inactive)
REMARK    1  A    between atoms: C_9  and  N_1 
REMARK    2  A    between atoms: S_10  and  C_6 
REMARK    3  A    between atoms: C_16  and  C_9 
REMARK    4  A    between atoms: C_15  and  S_10 
REMARK    5  A    between atoms: C_12  and  C_15 
REMARK       I    between atoms: N_13  and  C_12 
REMARK    6  A    between atoms: C_19  and  N_13 
ROOT
ATOM      1  N   UNL d   1     -49.164  12.793  23.065  0.00  0.00    -0.192 N 
ATOM      2  N   UNL d   1     -48.556  13.317  22.894  0.00  0.00    -0.058 NA
ATOM      3  C   UNL d   1     -48.821  12.075  23.281  0.00  0.00     0.189 A 
ATOM      4  C   UNL d   1     -47.999  12.169  23.240  0.00  0.00     0.164 A 
ATOM      5  N   UNL d   1     -47.849  12.943  22.999  0.00  0.00    -0.125 NA
ATOM      6  C   UNL d   1     -47.502  11.548  23.424  0.00  0.00     0.135 A 
ATOM      7  N   UNL d   1     -49.145  11.360  23.507  0.00  0.00    -0.203 NA
ATOM      8  N   UNL d   1     -47.824  10.817  23.654  0.00  0.00    -0.216 NA
ATOM      9  C   UNL d   1     -48.646  10.723  23.696  0.00  0.00     0.201 A 
ENDROOT
BRANCH   6  10
ATOM     10  S   UNL d   1     -46.680  11.642  23.383  0.00  0.00    -0.061 SA
BRANCH  10  11
ATOM     11  C   UNL d   1     -46.183  11.069  23.686  0.00  0.00     0.099 C 
BRANCH  11  12
ATOM     12  C   UNL d   1     -45.371  11.102  23.525  0.00  0.00     0.286 C 
ATOM     13  N   UNL d   1     -44.919  10.406  23.569  0.00  0.00    -0.208 NA
ATOM     14  O   UNL d   1     -45.009  11.814  23.323  0.00  0.00    -0.265 OA
BRANCH  13  15
ATOM     15  C   UNL d   1     -44.106  10.430  23.410  0.00  0.00     0.085 A 
ATOM     16  C   UNL d   1     -43.621  11.009  23.049  0.00  0.00     0.019 A 
ATOM     17  C   UNL d   1     -42.860  10.715  23.049  0.00  0.00     0.002 A 
ATOM     18  C   UNL d   1     -42.873   9.992  23.393  0.00  0.00     0.002 A 
ATOM     19  C   UNL d   1     -43.624   9.796  23.621  0.00  0.00     0.019 A 
ENDBRANCH  13  15
ENDBRANCH  11  12
ENDBRANCH  10  11
ENDBRANCH   6  10
BRANCH   1  20
ATOM     20  C   UNL d   1     -49.986  12.962  23.026  0.00  0.00     0.104 C 
BRANCH  20  21
ATOM     21  C   UNL d   1     -50.254  13.694  22.722  0.00  0.00     0.019 A 
ATOM     22  C   UNL d   1     -50.176  14.382  23.176  0.00  0.00     0.004 A 
ATOM     23  C   UNL d   1     -50.436  15.101  22.884  0.00  0.00     0.030 A 
ATOM     24  C   UNL d   1     -50.779  15.138  22.129  0.00  0.00     0.140 A 
ATOM     25  C   UNL d   1     -50.859  14.448  21.668  0.00  0.00     0.030 A 
ATOM     26  F   UNL d   1     -51.043  15.883  21.839  0.00  0.00    -0.204 F 
ATOM     27  C   UNL d   1     -50.596  13.741  21.973  0.00  0.00     0.004 A 
ENDBRANCH  20  21
ENDBRANCH   1  20
TORSDOF 6
ENDMDL
MODEL 4
REMARK VINA RESULT:      -4.5      6.244      8.003
REMARK  6 active torsions:
REMARK  status: ('A' for Active; 'I' for Inactive)
REMARK    1  A    between atoms: C_9  and  N_1 
REMARK    2  A    between atoms: S_10  and  C_6 
REMARK    3  A    between atoms: C_16  and  C_9 
REMARK    4  A    between atoms: C_15  and  S_10 
REMARK    5  A    between atoms: C_12  and  C_15 
REMARK       I    between atoms: N_13  and  C_12 
REMARK    6  A    between atoms: C_19  and  N_13 
ROOT
ATOM      1  N   UNL d   1     -39.209  15.823  17.696  0.00  0.00    -0.192 N 
ATOM      2  N   UNL d   1     -38.478  15.817  18.068  0.00  0.00    -0.058 NA
ATOM      3  C   UNL d   1     -39.787  15.855  18.282  0.00  0.00     0.189 A 
ATOM      4  C   UNL d   1     -39.400  15.869  19.014  0.00  0.00     0.164 A 
ATOM      5  N   UNL d   1     -38.589  15.845  18.867  0.00  0.00    -0.125 NA
ATOM      6  C   UNL d   1     -39.828  15.902  19.708  0.00  0.00     0.135 A 
ATOM      7  N   UNL d   1     -40.603  15.874  18.245  0.00  0.00    -0.203 NA
ATOM      8  N   UNL d   1     -40.659  15.921  19.679  0.00  0.00    -0.216 NA
ATOM      9  C   UNL d   1     -41.046  15.907  18.947  0.00  0.00     0.201 A 
ENDROOT
BRANCH   6  10
ATOM     10  S   UNL d   1     -39.441  15.915  20.440  0.00  0.00    -0.061 SA
BRANCH  10  11
ATOM     11  C   UNL d   1     -39.766  15.538  21.087  0.00  0.00     0.099 C 
BRANCH  11  12
ATOM     12  C   UNL d   1     -39.271  15.209  21.664  0.00  0.00     0.286 C 
ATOM     13  N   UNL d   1     -39.379  14.416  21.890  0.00  0.00    -0.208 NA
ATOM     14  O   UNL d   1     -38.674  15.657  22.014  0.00  0.00    -0.265 OA
BRANCH  13  15
ATOM     15  C   UNL d   1     -38.889  14.079  22.465  0.00  0.00     0.085 A 
ATOM     16  C   UNL d   1     -38.732  14.286  23.262  0.00  0.00     0.019 A 
ATOM     17  C   UNL d   1     -38.196  13.742  23.548  0.00  0.00     0.002 A 
ATOM     18  C   UNL d   1     -38.028  13.225  22.959  0.00  0.00     0.002 A 
ATOM     19  C   UNL d   1     -38.440  13.412  22.288  0.00  0.00     0.019 A 
ENDBRANCH  13  15
ENDBRANCH  11  12
ENDBRANCH  10  11
ENDBRANCH   6  10
BRANCH   1  20
ATOM     20  C   UNL d   1     -39.339  15.800  16.866  0.00  0.00     0.104 C 
BRANCH  20  21
ATOM     21  C   UNL d   1     -38.984  15.204  16.398  0.00  0.00     0.019 A 
ATOM     22  C   UNL d   1     -39.259  14.425  16.442  0.00  0.00     0.004 A 
ATOM     23  C   UNL d   1     -38.915  13.839  15.986  0.00  0.00     0.030 A 
ATOM     24  C   UNL d   1     -38.287  14.029  15.478  0.00  0.00     0.140 A 
ATOM     25  C   UNL d   1     -38.006  14.813  15.429  0.00  0.00     0.030 A 
ATOM     26  F   UNL d   1     -37.941  13.418  15.014  0.00  0.00    -0.204 F 
ATOM     27  C   UNL d   1     -38.360  15.383  15.889  0.00  0.00     0.004 A 
ENDBRANCH  20  21
ENDBRANCH   1  20
TORSDOF 6
ENDMDL
MODEL 5
REMARK VINA RESULT:      -4.0      3.244      7.090
REMARK  6 active torsions:
REMARK  status: ('A' for Active; 'I' for Inactive)
REMARK    1  A    between atoms: C_9  and  N_1 
REMARK    2  A    between atoms: S_10  and  C_6 
REMARK    3  A    between atoms: C_16  and  C_9 
REMARK    4  A    between atoms: C_15  and  S_10 
REMARK    5  A    between atoms: C_12  and  C_15 
REMARK       I    between atoms: N_13  and  C_12 
REMARK    6  A    between atoms: C_19  and  N_13 
ROOT
ATOM      1  N   UNL d   1     -40.109  14.377  18.778  0.00  0.00    -0.192 N 
ATOM      2  N   UNL d   1     -40.735  14.005  18.400  0.00  0.00    -0.058 NA
ATOM      3  C   UNL d   1     -40.282  14.397  19.584  0.00  0.00     0.189 A 
ATOM      4  C   UNL d   1     -41.018  14.034  19.690  0.00  0.00     0.164 A 
ATOM      5  N   UNL d   1     -41.288  13.796  18.949  0.00  0.00    -0.125 NA
ATOM      6  C   UNL d   1     -41.343  13.967  20.437  0.00  0.00     0.135 A 
ATOM      7  N   UNL d   1     -39.871  14.695  20.224  0.00  0.00    -0.203 NA
ATOM      8  N   UNL d   1     -40.931  14.267  21.093  0.00  0.00    -0.216 NA
ATOM      9  C   UNL d   1     -40.195  14.631  20.987  0.00  0.00     0.201 A 
ENDROOT
BRANCH   6  10
ATOM     10  S   UNL d   1     -42.080  13.604  20.543  0.00  0.00    -0.061 SA
BRANCH  10  11
ATOM     11  C   UNL d   1     -42.405  13.538  21.289  0.00  0.00     0.099 C 
BRANCH  11  12
ATOM     12  C   UNL d   1     -43.154  13.198  21.383  0.00  0.00     0.286 C 
ATOM     13  N   UNL d   1     -43.726  13.592  21.841  0.00  0.00    -0.208 NA
ATOM     14  O   UNL d   1     -43.338  12.476  21.031  0.00  0.00    -0.265 OA
BRANCH  13  15
ATOM     15  C   UNL d   1     -44.477  13.259  21.940  0.00  0.00     0.085 A 
ATOM     16  C   UNL d   1     -44.758  12.473  21.867  0.00  0.00     0.019 A 
ATOM     17  C   UNL d   1     -45.556  12.489  22.035  0.00  0.00     0.002 A 
ATOM     18  C   UNL d   1     -45.759  13.246  22.203  0.00  0.00     0.002 A 
ATOM     19  C   UNL d   1     -45.116  13.734  22.151  0.00  0.00     0.019 A 
ENDBRANCH  13  15
ENDBRANCH  11  12
ENDBRANCH  10  11
ENDBRANCH   6  10
BRANCH   1  20
ATOM     20  C   UNL d   1     -39.419  14.682  18.408  0.00  0.00     0.104 C 
BRANCH  20  21
ATOM     21  C   UNL d   1     -39.159  14.369  17.677  0.00  0.00     0.019 A 
ATOM     22  C   UNL d   1     -39.333  14.767  16.972  0.00  0.00     0.004 A 
ATOM     23  C   UNL d   1     -39.081  14.466  16.254  0.00  0.00     0.030 A 
ATOM     24  C   UNL d   1     -38.648  13.758  16.235  0.00  0.00     0.140 A 
ATOM     25  C   UNL d   1     -38.470  13.353  16.942  0.00  0.00     0.030 A 
ATOM     26  F   UNL d   1     -38.394  13.457  15.492  0.00  0.00    -0.204 F 
ATOM     27  C   UNL d   1     -38.728  13.667  17.647  0.00  0.00     0.004 A 
ENDBRANCH  20  21
ENDBRANCH   1  20
TORSDOF 6
ENDMDL
MODEL 6
REMARK VINA RESULT:      -3.7      3.532      7.465
REMARK  6 active torsions:
REMARK  status: ('A' for Active; 'I' for Inactive)
REMARK    1  A    between atoms: C_9  and  N_1 
REMARK    2  A    between atoms: S_10  and  C_6 
REMARK    3  A    between atoms: C_16  and  C_9 
REMARK    4  A    between atoms: C_15  and  S_10 
REMARK    5  A    between atoms: C_12  and  C_15 
REMARK       I    between atoms: N_13  and  C_12 
REMARK    6  A    between atoms: C_19  and  N_13 
ROOT
ATOM      1  N   UNL d   1     -39.378  14.480  18.549  0.00  0.00    -0.192 N 
ATOM      2  N   UNL d   1     -40.103  14.313  18.203  0.00  0.00    -0.058 NA
ATOM      3  C   UNL d   1     -39.483  14.463  19.367  0.00  0.00     0.189 A 
ATOM      4  C   UNL d   1     -40.278  14.283  19.512  0.00  0.00     0.164 A 
ATOM      5  N   UNL d   1     -40.651  14.193  18.782  0.00  0.00    -0.125 NA
ATOM      6  C   UNL d   1     -40.556  14.226  20.278  0.00  0.00     0.135 A 
ATOM      7  N   UNL d   1     -38.966  14.585  19.987  0.00  0.00    -0.203 NA
ATOM      8  N   UNL d   1     -40.036  14.348  20.915  0.00  0.00    -0.216 NA
ATOM      9  C   UNL d   1     -39.241  14.528  20.770  0.00  0.00     0.201 A 
ENDROOT
BRANCH   6  10
ATOM     10  S   UNL d   1     -41.351  14.046  20.424  0.00  0.00    -0.061 SA
BRANCH  10  11
ATOM     11  C   UNL d   1     -41.558  13.555  21.042  0.00  0.00     0.099 C 
BRANCH  11  12
ATOM     12  C   UNL d   1     -42.349  13.505  21.282  0.00  0.00     0.286 C 
ATOM     13  N   UNL d   1     -42.692  12.757  21.403  0.00  0.00    -0.208 NA
ATOM     14  O   UNL d   1     -42.797  14.186  21.403  0.00  0.00    -0.265 OA
BRANCH  13  15
ATOM     15  C   UNL d   1     -43.482  12.698  21.643  0.00  0.00     0.085 A 
ATOM     16  C   UNL d   1     -44.171  13.118  21.417  0.00  0.00     0.019 A 
ATOM     17  C   UNL d   1     -44.790  12.809  21.849  0.00  0.00     0.002 A 
ATOM     18  C   UNL d   1     -44.499  12.228  22.318  0.00  0.00     0.002 A 
ATOM     19  C   UNL d   1     -43.703  12.142  22.209  0.00  0.00     0.019 A 
ENDBRANCH  13  15
ENDBRANCH  11  12
ENDBRANCH  10  11
ENDBRANCH   6  10
BRANCH   1  20
ATOM     20  C   UNL d   1     -38.661  14.640  18.141  0.00  0.00     0.104 C 
BRANCH  20  21
ATOM     21  C   UNL d   1     -38.546  14.358  17.362  0.00  0.00     0.019 A 
ATOM     22  C   UNL d   1     -38.716  14.848  16.716  0.00  0.00     0.004 A 
ATOM     23  C   UNL d   1     -38.605  14.577  15.952  0.00  0.00     0.030 A 
ATOM     24  C   UNL d   1     -38.321  13.808  15.826  0.00  0.00     0.140 A 
ATOM     25  C   UNL d   1     -38.149  13.310  16.473  0.00  0.00     0.030 A 
ATOM     26  F   UNL d   1     -38.211  13.540  15.036  0.00  0.00    -0.204 F 
ATOM     27  C   UNL d   1     -38.265  13.595  17.226  0.00  0.00     0.004 A 
ENDBRANCH  20  21
ENDBRANCH   1  20
TORSDOF 6
ENDMDL
MODEL 7
REMARK VINA RESULT:      -3.5      2.361      5.965
REMARK  6 active torsions:
REMARK  status: ('A' for Active; 'I' for Inactive)
REMARK    1  A    between atoms: C_9  and  N_1 
REMARK    2  A    between atoms: S_10  and  C_6 
REMARK    3  A    between atoms: C_16  and  C_9 
REMARK    4  A    between atoms: C_15  and  S_10 
REMARK    5  A    between atoms: C_12  and  C_15 
REMARK       I    between atoms: N_13  and  C_12 
REMARK    6  A    between atoms: C_19  and  N_13 
ROOT
ATOM      1  N   UNL d   1     -42.854  13.102  21.394  0.00  0.00    -0.192 N 
ATOM      2  N   UNL d   1     -43.294  13.770  21.212  0.00  0.00    -0.058 NA
ATOM      3  C   UNL d   1     -43.338  12.596  21.829  0.00  0.00     0.189 A 
ATOM      4  C   UNL d   1     -44.075  12.964  21.909  0.00  0.00     0.164 A 
ATOM      5  N   UNL d   1     -44.034  13.691  21.522  0.00  0.00    -0.125 NA
ATOM      6  C   UNL d   1     -44.680  12.597  22.317  0.00  0.00     0.135 A 
ATOM      7  N   UNL d   1     -43.205  11.861  22.158  0.00  0.00    -0.203 NA
ATOM      8  N   UNL d   1     -44.552  11.848  22.655  0.00  0.00    -0.216 NA
ATOM      9  C   UNL d   1     -43.815  11.480  22.575  0.00  0.00     0.201 A 
ENDROOT
BRANCH   6  10
ATOM     10  S   UNL d   1     -45.417  12.965  22.397  0.00  0.00    -0.061 SA
BRANCH  10  11
ATOM     11  C   UNL d   1     -46.010  12.613  22.835  0.00  0.00     0.099 C 
BRANCH  11  12
ATOM     12  C   UNL d   1     -46.732  13.005  22.941  0.00  0.00     0.286 C 
ATOM     13  N   UNL d   1     -47.437  12.630  22.706  0.00  0.00    -0.208 NA
ATOM     14  O   UNL d   1     -46.759  13.758  23.274  0.00  0.00    -0.265 OA
BRANCH  13  15
ATOM     15  C   UNL d   1     -48.163  13.015  22.809  0.00  0.00     0.085 A 
ATOM     16  C   UNL d   1     -48.452  13.753  22.535  0.00  0.00     0.019 A 
ATOM     17  C   UNL d   1     -49.213  13.829  22.819  0.00  0.00     0.002 A 
ATOM     18  C   UNL d   1     -49.386  13.173  23.246  0.00  0.00     0.002 A 
ATOM     19  C   UNL d   1     -48.759  12.662  23.254  0.00  0.00     0.019 A 
ENDBRANCH  13  15
ENDBRANCH  11  12
ENDBRANCH  10  11
ENDBRANCH   6  10
BRANCH   1  20
ATOM     20  C   UNL d   1     -42.055  12.963  21.175  0.00  0.00     0.104 C 
BRANCH  20  21
ATOM     21  C   UNL d   1     -41.567  13.596  20.929  0.00  0.00     0.019 A 
ATOM     22  C   UNL d   1     -41.516  13.791  20.126  0.00  0.00     0.004 A 
ATOM     23  C   UNL d   1     -41.040  14.409  19.880  0.00  0.00     0.030 A 
ATOM     24  C   UNL d   1     -40.607  14.842  20.440  0.00  0.00     0.140 A 
ATOM     25  C   UNL d   1     -40.655  14.651  21.251  0.00  0.00     0.030 A 
ATOM     26  F   UNL d   1     -40.121  15.477  20.177  0.00  0.00    -0.204 F 
ATOM     27  C   UNL d   1     -41.133  14.033  21.478  0.00  0.00     0.004 A 
ENDBRANCH  20  21
ENDBRANCH   1  20
TORSDOF 6
ENDMDL
MODEL 8
REMARK VINA RESULT:      -3.1      3.863      7.854
REMARK  6 active torsions:
REMARK  status: ('A' for Active; 'I' for Inactive)
REMARK    1  A    between atoms: C_9  and  N_1 
REMARK    2  A    between atoms: S_10  and  C_6 
REMARK    3  A    between atoms: C_16  and  C_9 
REMARK    4  A    between atoms: C_15  and  S_10 
REMARK    5  A    between atoms: C_12  and  C_15 
REMARK       I    between atoms: N_13  and  C_12 
REMARK    6  A    between atoms: C_19  and  N_13 
ROOT
ATOM      1  N   UNL d   1     -38.931  14.922  18.122  0.00  0.00    -0.192 N 
ATOM      2  N   UNL d   1     -39.641  14.595  17.872  0.00  0.00    -0.058 NA
ATOM      3  C   UNL d   1     -39.009  15.106  18.921  0.00  0.00     0.189 A 
ATOM      4  C   UNL d   1     -39.773  14.887  19.154  0.00  0.00     0.164 A 
ATOM      5  N   UNL d   1     -40.154  14.572  18.494  0.00  0.00    -0.125 NA
ATOM      6  C   UNL d   1     -40.020  15.002  19.924  0.00  0.00     0.135 A 
ATOM      7  N   UNL d   1     -38.492  15.438  19.459  0.00  0.00    -0.203 NA
ATOM      8  N   UNL d   1     -39.500  15.340  20.477  0.00  0.00    -0.216 NA
ATOM      9  C   UNL d   1     -38.736  15.558  20.245  0.00  0.00     0.201 A 
ENDROOT
BRANCH   6  10
ATOM     10  S   UNL d   1     -40.784  14.783  20.156  0.00  0.00    -0.061 SA
BRANCH  10  11
ATOM     11  C   UNL d   1     -40.896  14.206  20.723  0.00  0.00     0.099 C 
BRANCH  11  12
ATOM     12  C   UNL d   1     -41.661  14.022  20.979  0.00  0.00     0.286 C 
ATOM     13  N   UNL d   1     -41.896  13.225  21.023  0.00  0.00    -0.208 NA
ATOM     14  O   UNL d   1     -42.190  14.617  21.190  0.00  0.00    -0.265 OA
BRANCH  13  15
ATOM     15  C   UNL d   1     -42.659  13.033  21.279  0.00  0.00     0.085 A 
ATOM     16  C   UNL d   1     -43.409  13.369  21.114  0.00  0.00     0.019 A 
ATOM     17  C   UNL d   1     -43.960  12.936  21.531  0.00  0.00     0.002 A 
ATOM     18  C   UNL d   1     -43.572  12.361  21.933  0.00  0.00     0.002 A 
ATOM     19  C   UNL d   1     -42.777  12.401  21.794  0.00  0.00     0.019 A 
ENDBRANCH  13  15
ENDBRANCH  11  12
ENDBRANCH  10  11
ENDBRANCH   6  10
BRANCH   1  20
ATOM     20  C   UNL d   1     -38.250  15.045  17.645  0.00  0.00     0.104 C 
BRANCH  20  21
ATOM     21  C   UNL d   1     -38.173  14.655  16.908  0.00  0.00     0.019 A 
ATOM     22  C   UNL d   1     -38.023  13.842  16.885  0.00  0.00     0.004 A 
ATOM     23  C   UNL d   1     -37.947  13.456  16.168  0.00  0.00     0.030 A 
ATOM     24  C   UNL d   1     -38.020  13.885  15.461  0.00  0.00     0.140 A 
ATOM     25  C   UNL d   1     -38.171  14.705  15.479  0.00  0.00     0.030 A 
ATOM     26  F   UNL d   1     -37.940  13.478  14.729  0.00  0.00    -0.204 F 
ATOM     27  C   UNL d   1     -38.244  15.073  16.201  0.00  0.00     0.004 A 
ENDBRANCH  20  21
ENDBRANCH   1  20
TORSDOF 6
ENDMDL
MODEL 9
REMARK VINA RESULT:      -2.8      6.464      8.559
REMARK  6 active torsions:
REMARK  status: ('A' for Active; 'I' for Inactive)
REMARK    1  A    between atoms: C_9  and  N_1 
REMARK    2  A    between atoms: S_10  and  C_6 
REMARK    3  A    between atoms: C_16  and  C_9 
REMARK    4  A    between atoms: C_15  and  S_10 
REMARK    5  A    between atoms: C_12  and  C_15 
REMARK       I    between atoms: N_13  and  C_12 
REMARK    6  A    between atoms: C_19  and  N_13 
ROOT
ATOM      1  N   UNL d   1     -38.550  15.113  16.862  0.00  0.00    -0.192 N 
ATOM      2  N   UNL d   1     -37.961  14.669  17.220  0.00  0.00    -0.058 NA
ATOM      3  C   UNL d   1     -39.094  15.322  17.444  0.00  0.00     0.189 A 
ATOM      4  C   UNL d   1     -38.829  15.000  18.159  0.00  0.00     0.164 A 
ATOM      5  N   UNL d   1     -38.126  14.598  18.006  0.00  0.00    -0.125 NA
ATOM      6  C   UNL d   1     -39.255  15.112  18.847  0.00  0.00     0.135 A 
ATOM      7  N   UNL d   1     -39.786  15.756  17.416  0.00  0.00    -0.203 NA
ATOM      8  N   UNL d   1     -39.960  15.553  18.827  0.00  0.00    -0.216 NA
ATOM      9  C   UNL d   1     -40.225  15.875  18.112  0.00  0.00     0.201 A 
ENDROOT
BRANCH   6  10
ATOM     10  S   UNL d   1     -38.990  14.790  19.562  0.00  0.00    -0.061 SA
BRANCH  10  11
ATOM     11  C   UNL d   1     -39.314  15.035  20.271  0.00  0.00     0.099 C 
BRANCH  11  12
ATOM     12  C   UNL d   1     -38.980  14.781  20.986  0.00  0.00     0.286 C 
ATOM     13  N   UNL d   1     -39.472  14.664  21.646  0.00  0.00    -0.208 NA
ATOM     14  O   UNL d   1     -38.170  14.643  21.049  0.00  0.00    -0.265 OA
BRANCH  13  15
ATOM     15  C   UNL d   1     -39.147  14.411  22.364  0.00  0.00     0.085 A 
ATOM     16  C   UNL d   1     -38.943  13.650  22.652  0.00  0.00     0.019 A 
ATOM     17  C   UNL d   1     -38.644  13.754  23.403  0.00  0.00     0.002 A 
ATOM     18  C   UNL d   1     -38.662  14.536  23.573  0.00  0.00     0.002 A 
ATOM     19  C   UNL d   1     -38.966  14.957  22.953  0.00  0.00     0.019 A 
ENDBRANCH  13  15
ENDBRANCH  11  12
ENDBRANCH  10  11
ENDBRANCH   6  10
BRANCH   1  20
ATOM     20  C   UNL d   1     -38.588  15.316  16.047  0.00  0.00     0.104 C 
BRANCH  20  21
ATOM     21  C   UNL d   1     -38.426  14.743  15.460  0.00  0.00     0.019 A 
ATOM     22  C   UNL d   1     -38.157  14.980  14.714  0.00  0.00     0.004 A 
ATOM     23  C   UNL d   1     -37.997  14.423  14.136  0.00  0.00     0.030 A 
ATOM     24  C   UNL d   1     -38.107  13.617  14.301  0.00  0.00     0.140 A 
ATOM     25  C   UNL d   1     -38.378  13.373  15.051  0.00  0.00     0.030 A 
ATOM     26  F   UNL d   1     -37.940  13.053  13.699  0.00  0.00    -0.204 F 
ATOM     27  C   UNL d   1     -38.532  13.940  15.614  0.00  0.00     0.004 A 
ENDBRANCH  20  21
ENDBRANCH   1  20
TORSDOF 6
ENDMDL
