MODEL 1
REMARK VINA RESULT:      42.4      0.000      0.000
REMARK  3 active torsions:
REMARK  status: ('A' for Active; 'I' for Inactive)
REMARK    1  A    between atoms: N_6  and  C_1 
REMARK    2  A    between atoms: C_11  and  C_2 
REMARK    3  A    between atoms: C_5  and  C_8 
REMARK       I    between atoms: C_8  and  N_6 
ROOT
ATOM      1  N   UNL d   1      13.298  13.169  -4.035  0.00  0.00    -0.200 NA
ATOM      2  C   UNL d   1      13.257  12.403  -3.701  0.00  0.00     0.302 C 
ATOM      3  O   UNL d   1      12.913  11.779  -4.143  0.00  0.00    -0.263 OA
ENDROOT
BRANCH   1   4
ATOM      4  C   UNL d   1      13.622  13.758  -3.621  0.00  0.00     0.119 A 
ATOM      5  C   UNL d   1      13.704  14.488  -3.864  0.00  0.00     0.084 A 
ATOM      6  C   UNL d   1      14.052  14.888  -3.276  0.00  0.00     0.013 A 
ATOM      7  C   UNL d   1      14.268  15.654  -3.223  0.00  0.00     0.001 A 
ATOM      8  C   UNL d   1      14.176  14.402  -2.687  0.00  0.00     0.031 A 
ATOM      9  C   UNL d   1      14.612  15.904  -2.554  0.00  0.00     0.001 A 
ATOM     10  C   UNL d   1      14.734  15.402  -1.959  0.00  0.00     0.006 A 
ATOM     11  S   UNL d   1      13.914  13.697  -2.887  0.00  0.00    -0.068 SA
BRANCH   5  12
ATOM     12  C   UNL d   1      13.490  14.787  -4.556  0.00  0.00     0.299 C 
ATOM     13  O   UNL d   1      12.790  15.156  -4.619  0.00  0.00    -0.264 OA
ATOM     14  N   UNL d   1      13.954  14.730  -5.189  0.00  0.00    -0.102 N 
ENDBRANCH   5  12
ENDBRANCH   1   4
BRANCH   2  15
ATOM     15  C   UNL d   1      13.549  12.258  -2.943  0.00  0.00     0.158 A 
ATOM     16  O   UNL d   1      14.344  12.171  -2.725  0.00  0.00    -0.302 OA
ATOM     17  C   UNL d   1      14.388  12.033  -1.912  0.00  0.00     0.100 A 
ATOM     18  C   UNL d   1      15.023  11.906  -1.391  0.00  0.00     0.025 A 
ATOM     19  C   UNL d   1      13.609  12.033  -1.613  0.00  0.00     0.025 A 
ATOM     20  C   UNL d   1      14.894  11.780  -0.587  0.00  0.00     0.002 A 
ATOM     21  C   UNL d   1      14.110  11.779  -0.279  0.00  0.00     0.000 A 
ATOM     22  C   UNL d   1      13.473  11.907  -0.803  0.00  0.00     0.002 A 
ATOM     23  C   UNL d   1      13.092  12.172  -2.249  0.00  0.00     0.032 A 
ENDBRANCH   2  15
TORSDOF 3
ENDMDL
MODEL 2
REMARK VINA RESULT:      43.4      1.528      3.396
REMARK  3 active torsions:
REMARK  status: ('A' for Active; 'I' for Inactive)
REMARK    1  A    between atoms: N_6  and  C_1 
REMARK    2  A    between atoms: C_11  and  C_2 
REMARK    3  A    between atoms: C_5  and  C_8 
REMARK       I    between atoms: C_8  and  N_6 
ROOT
ATOM      1  N   UNL d   1      13.771  12.069  -2.406  0.00  0.00    -0.200 NA
ATOM      2  C   UNL d   1      13.489  12.331  -3.149  0.00  0.00     0.302 C 
ATOM      3  O   UNL d   1      13.119  11.784  -3.665  0.00  0.00    -0.263 OA
ENDROOT
BRANCH   1   4
ATOM      4  C   UNL d   1      14.120  12.583  -1.918  0.00  0.00     0.119 A 
ATOM      5  C   UNL d   1      14.083  12.569  -1.146  0.00  0.00     0.084 A 
ATOM      6  C   UNL d   1      14.510  13.181  -0.884  0.00  0.00     0.013 A 
ATOM      7  C   UNL d   1      14.662  13.431  -0.142  0.00  0.00     0.001 A 
ATOM      8  C   UNL d   1      14.800  13.558  -1.493  0.00  0.00     0.031 A 
ATOM      9  C   UNL d   1      15.116  14.073  -0.045  0.00  0.00     0.001 A 
ATOM     10  C   UNL d   1      15.408  14.451  -0.672  0.00  0.00     0.006 A 
ATOM     11  S   UNL d   1      14.566  13.198  -2.143  0.00  0.00    -0.068 SA
BRANCH   5  12
ATOM     12  C   UNL d   1      13.699  12.053  -0.697  0.00  0.00     0.299 C 
ATOM     13  O   UNL d   1      12.982  11.798  -0.923  0.00  0.00    -0.264 OA
ATOM     14  N   UNL d   1      14.010  11.783  -0.027  0.00  0.00    -0.102 N 
ENDBRANCH   5  12
ENDBRANCH   1   4
BRANCH   2  15
ATOM     15  C   UNL d   1      13.573  13.119  -3.377  0.00  0.00     0.158 A 
ATOM     16  O   UNL d   1      14.280  13.547  -3.440  0.00  0.00    -0.302 OA
ATOM     17  C   UNL d   1      14.110  14.316  -3.686  0.00  0.00     0.100 A 
ATOM     18  C   UNL d   1      14.585  14.981  -3.841  0.00  0.00     0.025 A 
ATOM     19  C   UNL d   1      13.284  14.376  -3.778  0.00  0.00     0.025 A 
ATOM     20  C   UNL d   1      14.251  15.693  -4.084  0.00  0.00     0.002 A 
ATOM     21  C   UNL d   1      13.417  15.760  -4.179  0.00  0.00     0.000 A 
ATOM     22  C   UNL d   1      12.941  15.092  -4.023  0.00  0.00     0.002 A 
ATOM     23  C   UNL d   1      12.952  13.637  -3.588  0.00  0.00     0.032 A 
ENDBRANCH   2  15
TORSDOF 3
ENDMDL
