MODEL 1
REMARK VINA RESULT:      35.4      0.000      0.000
REMARK  6 active torsions:
REMARK  status: ('A' for Active; 'I' for Inactive)
REMARK    1  A    between atoms: N_8  and  C_2 
REMARK    2  A    between atoms: N_7  and  C_3 
REMARK    3  A    between atoms: N_10  and  C_6 
REMARK    4  A    between atoms: C_9  and  N_11 
REMARK    5  A    between atoms: N_13  and  C_9 
REMARK    6  A    between atoms: N_11  and  N_10 
ROOT
ATOM      1  N   UNL d   1     -58.740 -98.756 -44.173  0.00  0.00     0.133 NA
ATOM      2  C   UNL d   1     -58.344 -98.757 -43.488  0.00  0.00     0.766 A 
ATOM      3  C   UNL d   1     -58.356 -98.756 -44.891  0.00  0.00     0.766 A 
ATOM      4  N   UNL d   1     -57.531 -98.756 -44.898  0.00  0.00     0.135 NA
ATOM      5  N   UNL d   1     -57.482 -98.757 -43.495  0.00  0.00     0.135 NA
ATOM      6  C   UNL d   1     -57.085 -98.757 -44.200  0.00  0.00     0.798 A 
ENDROOT
BRANCH   2   7
ATOM      7  N   UNL d   1     -58.729 -98.757 -42.770  0.00  0.00    -0.132 N 
ATOM      8  C   UNL d   1     -59.553 -98.758 -42.763  0.00  0.00     0.125 A 
ATOM      9  C   UNL d   1     -59.960 -98.758 -42.045  0.00  0.00     0.142 A 
ATOM     10  O   UNL d   1     -59.542 -98.757 -41.333  0.00  0.00    -0.300 OA
ATOM     11  C   UNL d   1     -58.717 -98.756 -41.340  0.00  0.00     0.142 A 
ATOM     12  C   UNL d   1     -58.310 -98.756 -42.058  0.00  0.00     0.125 A 
ENDBRANCH   2   7
BRANCH   3  13
ATOM     13  N   UNL d   1     -58.752 -98.756 -45.603  0.00  0.00    -0.132 N 
ATOM     14  C   UNL d   1     -59.564 -98.755 -45.656  0.00  0.00     0.125 A 
ATOM     15  C   UNL d   1     -59.960 -98.755 -46.367  0.00  0.00     0.142 A 
ATOM     16  O   UNL d   1     -59.519 -98.755 -47.065  0.00  0.00    -0.300 OA
ATOM     17  C   UNL d   1     -58.682 -98.755 -47.050  0.00  0.00     0.142 A 
ATOM     18  C   UNL d   1     -58.311 -98.756 -46.300  0.00  0.00     0.125 A 
ENDBRANCH   3  13
BRANCH   6  19
ATOM     19  N   UNL d   1     -56.278 -98.757 -44.207  0.00  0.00     0.050 NA
BRANCH  19  20
ATOM     20  N   UNL d   1     -55.859 -99.384 -43.907  0.00  0.00    -0.101 NA
BRANCH  20  21
ATOM     21  C   UNL d   1     -55.188 -99.669 -44.293  0.00  0.00     0.241 C 
ATOM     22  S   UNL d   1     -54.825 -99.241 -44.877  0.00  0.00    -0.035 SA
BRANCH  21  23
ATOM     23  N   UNL d   1     -54.877-100.403 -44.084  0.00  0.00    -0.213 NA
ATOM     24  C   UNL d   1     -55.091-101.083 -44.499  0.00  0.00     0.122 C 
ENDBRANCH  21  23
ENDBRANCH  20  21
ENDBRANCH  19  20
ENDBRANCH   6  19
TORSDOF 6
ENDMDL
