MODEL 1
REMARK VINA RESULT:     120.9      0.000      0.000
REMARK  10 active torsions:
REMARK  status: ('A' for Active; 'I' for Inactive)
REMARK    1  A    between atoms: C_15  and  C_3 
REMARK       I    between atoms: C_8  and  N_7 
REMARK    2  A    between atoms: O_29  and  C_8 
REMARK       I    between atoms: N_9  and  C_11 
REMARK    3  A    between atoms: S_17  and  C_10 
REMARK    4  A    between atoms: C_11  and  C_23 
REMARK       I    between atoms: C_13  and  N_26 
REMARK    5  A    between atoms: C_16  and  C_13 
REMARK    6  A    between atoms: C_30  and  C_15 
REMARK    7  A    between atoms: C_23  and  S_17 
REMARK    8  A    between atoms: N_26  and  C_30 
REMARK    9  A    between atoms: C_35  and  O_29 
REMARK   10  A    between atoms: O_34  and  C_31 
ROOT
ATOM      1  N   UNL d   1      61.532  42.806  51.781  0.00  0.00    -0.191 N 
ATOM      2  C   UNL d   1      62.283  42.716  51.434  0.00  0.00     0.187 A 
ATOM      3  C   UNL d   1      61.419  42.184  52.314  0.00  0.00     0.188 A 
ATOM      4  N   UNL d   1      61.053  43.442  51.565  0.00  0.00    -0.156 NA
ATOM      5  N   UNL d   1      62.625  42.037  51.758  0.00  0.00    -0.127 NA
ATOM      6  N   UNL d   1      62.099  41.707  52.298  0.00  0.00    -0.127 NA
ATOM      7  C   UNL d   1      61.322  43.989  51.002  0.00  0.00     0.131 A 
ATOM      8  C   UNL d   1      62.540  43.261  50.879  0.00  0.00     0.043 A 
ATOM      9  C   UNL d   1      62.065  43.899  50.659  0.00  0.00     0.031 A 
ENDROOT
BRANCH   7  10
ATOM     10  S   UNL d   1      60.835  44.628  50.788  0.00  0.00    -0.061 SA
BRANCH  10  11
ATOM     11  C   UNL d   1      61.061  45.404  50.987  0.00  0.00     0.098 C 
BRANCH  11  12
ATOM     12  C   UNL d   1      61.233  45.947  50.380  0.00  0.00     0.272 C 
ATOM     13  N   UNL d   1      61.133  46.748  50.524  0.00  0.00    -0.269 N 
ATOM     14  C   UNL d   1      60.869  46.994  51.257  0.00  0.00     0.102 A 
ATOM     15  C   UNL d   1      61.298  47.296  49.937  0.00  0.00     0.102 A 
ATOM     16  C   UNL d   1      60.770  47.810  51.395  0.00  0.00     0.104 A 
ATOM     17  N   UNL d   1      60.941  48.353  50.792  0.00  0.00    -0.249 N 
ATOM     18  C   UNL d   1      61.203  48.092  50.069  0.00  0.00     0.104 A 
ATOM     19  C   UNL d   1      60.839  49.164  50.940  0.00  0.00     0.378 C 
ATOM     20  O   UNL d   1      61.010  49.706  50.337  0.00  0.00    -0.237 OA
ATOM     21  O   UNL d   1      61.499  45.684  49.648  0.00  0.00    -0.266 OA
BRANCH  19  22
ATOM     22  O   UNL d   1      60.574  49.415  51.671  0.00  0.00    -0.257 OA
BRANCH  22  23
ATOM     23  C   UNL d   1      61.118  49.707  52.212  0.00  0.00     0.128 C 
ATOM     24  C   UNL d   1      60.972  49.636  53.018  0.00  0.00     0.029 C 
ENDBRANCH  22  23
ENDBRANCH  19  22
ENDBRANCH  11  12
ENDBRANCH  10  11
ENDBRANCH   7  10
BRANCH   3  25
ATOM     25  C   UNL d   1      60.744  42.065  52.777  0.00  0.00     0.061 C 
BRANCH  25  26
ATOM     26  C   UNL d   1      60.806  41.705  53.521  0.00  0.00     0.105 C 
BRANCH  26  27
ATOM     27  N   UNL d   1      60.268  41.117  53.735  0.00  0.00    -0.206 NA
ATOM     28  C   UNL d   1      60.081  41.000  54.538  0.00  0.00     0.279 C 
ATOM     29  O   UNL d   1      60.441  41.479  55.114  0.00  0.00    -0.265 OA
BRANCH  28  30
ATOM     30  C   UNL d   1      59.545  40.415  54.753  0.00  0.00     0.058 A 
ATOM     31  C   UNL d   1      59.462  40.211  55.548  0.00  0.00     0.007 A 
ATOM     32  C   UNL d   1      58.926  39.625  55.769  0.00  0.00     0.024 A 
ATOM     33  C   UNL d   1      58.473  39.245  55.190  0.00  0.00     0.094 A 
ATOM     34  C   UNL d   1      58.556  39.449  54.395  0.00  0.00     0.024 A 
ATOM     35  C   UNL d   1      59.096  40.039  54.179  0.00  0.00     0.007 A 
BRANCH  33  36
ATOM     36  O   UNL d   1      57.939  38.661  55.409  0.00  0.00    -0.328 OA
ATOM     37  C   UNL d   1      57.155  38.710  55.176  0.00  0.00     0.181 C 
ENDBRANCH  33  36
ENDBRANCH  28  30
ENDBRANCH  26  27
ENDBRANCH  25  26
ENDBRANCH   3  25
TORSDOF 10
ENDMDL
MODEL 2
REMARK VINA RESULT:     122.8      3.021      4.773
REMARK  10 active torsions:
REMARK  status: ('A' for Active; 'I' for Inactive)
REMARK    1  A    between atoms: C_15  and  C_3 
REMARK       I    between atoms: C_8  and  N_7 
REMARK    2  A    between atoms: O_29  and  C_8 
REMARK       I    between atoms: N_9  and  C_11 
REMARK    3  A    between atoms: S_17  and  C_10 
REMARK    4  A    between atoms: C_11  and  C_23 
REMARK       I    between atoms: C_13  and  N_26 
REMARK    5  A    between atoms: C_16  and  C_13 
REMARK    6  A    between atoms: C_30  and  C_15 
REMARK    7  A    between atoms: C_23  and  S_17 
REMARK    8  A    between atoms: N_26  and  C_30 
REMARK    9  A    between atoms: C_35  and  O_29 
REMARK   10  A    between atoms: O_34  and  C_31 
ROOT
ATOM      1  N   UNL d   1      61.842  46.855  49.395  0.00  0.00    -0.191 N 
ATOM      2  C   UNL d   1      62.592  47.206  49.322  0.00  0.00     0.187 A 
ATOM      3  C   UNL d   1      61.924  46.042  49.269  0.00  0.00     0.188 A 
ATOM      4  N   UNL d   1      61.184  47.323  49.567  0.00  0.00    -0.156 NA
ATOM      5  N   UNL d   1      63.131  46.603  49.150  0.00  0.00    -0.127 NA
ATOM      6  N   UNL d   1      62.726  45.887  49.117  0.00  0.00    -0.127 NA
ATOM      7  C   UNL d   1      61.274  48.141  49.666  0.00  0.00     0.131 A 
ATOM      8  C   UNL d   1      62.672  48.015  49.421  0.00  0.00     0.043 A 
ATOM      9  C   UNL d   1      62.017  48.487  49.593  0.00  0.00     0.031 A 
ENDROOT
BRANCH   7  10
ATOM     10  S   UNL d   1      60.608  48.608  49.839  0.00  0.00    -0.061 SA
BRANCH  10  11
ATOM     11  C   UNL d   1      60.685  49.265  50.346  0.00  0.00     0.098 C 
BRANCH  11  12
ATOM     12  C   UNL d   1      60.212  49.309  51.030  0.00  0.00     0.272 C 
ATOM     13  N   UNL d   1      59.402  49.397  50.947  0.00  0.00    -0.269 N 
ATOM     14  C   UNL d   1      59.077  49.439  50.199  0.00  0.00     0.102 A 
ATOM     15  C   UNL d   1      58.922  49.442  51.611  0.00  0.00     0.102 A 
ATOM     16  C   UNL d   1      58.252  49.529  50.124  0.00  0.00     0.104 A 
ATOM     17  N   UNL d   1      57.779  49.573  50.803  0.00  0.00    -0.249 N 
ATOM     18  C   UNL d   1      58.117  49.529  51.540  0.00  0.00     0.104 A 
ATOM     19  C   UNL d   1      56.958  49.662  50.717  0.00  0.00     0.378 C 
ATOM     20  O   UNL d   1      56.485  49.706  51.397  0.00  0.00    -0.237 OA
ATOM     21  O   UNL d   1      60.554  49.264  51.776  0.00  0.00    -0.266 OA
BRANCH  19  22
ATOM     22  O   UNL d   1      56.628  49.705  49.971  0.00  0.00    -0.257 OA
BRANCH  22  23
ATOM     23  C   UNL d   1      56.224  49.054  49.677  0.00  0.00     0.128 C 
ATOM     24  C   UNL d   1      56.556  48.304  49.739  0.00  0.00     0.029 C 
ENDBRANCH  22  23
ENDBRANCH  19  22
ENDBRANCH  11  12
ENDBRANCH  10  11
ENDBRANCH   7  10
BRANCH   3  25
ATOM     25  C   UNL d   1      61.311  45.487  49.292  0.00  0.00     0.061 C 
BRANCH  25  26
ATOM     26  C   UNL d   1      61.045  45.187  50.017  0.00  0.00     0.105 C 
BRANCH  26  27
ATOM     27  N   UNL d   1      61.430  44.541  50.357  0.00  0.00    -0.206 NA
ATOM     28  C   UNL d   1      61.109  44.178  51.034  0.00  0.00     0.279 C 
ATOM     29  O   UNL d   1      60.402  44.472  51.358  0.00  0.00    -0.265 OA
BRANCH  28  30
ATOM     30  C   UNL d   1      61.491  43.534  51.374  0.00  0.00     0.058 A 
ATOM     31  C   UNL d   1      61.239  43.252  52.107  0.00  0.00     0.007 A 
ATOM     32  C   UNL d   1      61.618  42.607  52.452  0.00  0.00     0.024 A 
ATOM     33  C   UNL d   1      62.251  42.246  52.060  0.00  0.00     0.094 A 
ATOM     34  C   UNL d   1      62.503  42.528  51.327  0.00  0.00     0.024 A 
ATOM     35  C   UNL d   1      62.118  43.177  50.984  0.00  0.00     0.007 A 
BRANCH  33  36
ATOM     36  O   UNL d   1      62.630  41.603  52.402  0.00  0.00    -0.328 OA
ATOM     37  C   UNL d   1      62.792  40.934  51.959  0.00  0.00     0.181 C 
ENDBRANCH  33  36
ENDBRANCH  28  30
ENDBRANCH  26  27
ENDBRANCH  25  26
ENDBRANCH   3  25
TORSDOF 10
ENDMDL
