MODEL 1
REMARK VINA RESULT:      -7.1      0.000      0.000
REMARK  6 active torsions:
REMARK  status: ('A' for Active; 'I' for Inactive)
REMARK    1  A    between atoms: N_5  and  C_1 
REMARK    2  A    between atoms: N_7  and  C_2 
REMARK    3  A    between atoms: C_8  and  N_3 
REMARK    4  A    between atoms: C_18  and  C_8 
REMARK    5  A    between atoms: C_14  and  N_9 
REMARK    6  A    between atoms: C_19  and  C_14 
ROOT
ATOM      1  C   UNL d   1     -47.632  11.610  23.149  0.00  0.00     0.242 A 
ATOM      2  C   UNL d   1     -47.193  12.307  23.090  0.00  0.00     0.175 A 
ATOM      3  N   UNL d   1     -46.398  12.121  23.268  0.00  0.00    -0.274 N 
ATOM      4  N   UNL d   1     -47.115  10.991  23.363  0.00  0.00    -0.203 NA
ATOM      5  C   UNL d   1     -46.358  11.319  23.434  0.00  0.00     0.151 A 
ATOM      6  C   UNL d   1     -45.673  10.906  23.638  0.00  0.00     0.041 C 
ENDROOT
BRANCH   2   7
ATOM      7  N   UNL d   1     -47.624  12.975  22.881  0.00  0.00    -0.285 N 
ATOM      8  C   UNL d   1     -47.901  13.070  22.107  0.00  0.00     0.101 A 
ATOM      9  C   UNL d   1     -48.334  13.749  21.908  0.00  0.00     0.100 A 
ATOM     10  N   UNL d   1     -48.487  14.321  22.472  0.00  0.00    -0.300 N 
ATOM     11  C   UNL d   1     -48.210  14.225  23.246  0.00  0.00     0.100 A 
ATOM     12  C   UNL d   1     -47.782  13.558  23.447  0.00  0.00     0.101 A 
BRANCH  10  13
ATOM     13  C   UNL d   1     -48.922  15.000  22.269  0.00  0.00     0.080 C 
BRANCH  13  14
ATOM     14  C   UNL d   1     -49.631  15.160  22.646  0.00  0.00     0.018 A 
ATOM     15  C   UNL d   1     -50.335  14.830  22.362  0.00  0.00     0.002 A 
ATOM     16  C   UNL d   1     -51.050  14.987  22.737  0.00  0.00     0.000 A 
ATOM     17  C   UNL d   1     -51.064  15.482  23.404  0.00  0.00     0.000 A 
ATOM     18  C   UNL d   1     -50.360  15.813  23.687  0.00  0.00     0.000 A 
ATOM     19  C   UNL d   1     -49.642  15.648  23.303  0.00  0.00     0.002 A 
ENDBRANCH  13  14
ENDBRANCH  10  13
ENDBRANCH   2   7
BRANCH   1  20
ATOM     20  N   UNL d   1     -48.448  11.527  23.019  0.00  0.00    -0.092 N 
ATOM     21  O   UNL d   1     -48.978  11.622  23.638  0.00  0.00    -0.530 OA
ATOM     22  O   UNL d   1     -48.722  11.348  22.259  0.00  0.00    -0.530 OA
ENDBRANCH   1  20
BRANCH   3  23
ATOM     23  C   UNL d   1     -45.773  12.661  23.274  0.00  0.00     0.083 C 
BRANCH  23  24
ATOM     24  C   UNL d   1     -45.177  12.622  22.706  0.00  0.00     0.018 A 
ATOM     25  C   UNL d   1     -45.138  13.205  22.117  0.00  0.00     0.002 A 
ATOM     26  C   UNL d   1     -44.540  13.171  21.543  0.00  0.00     0.000 A 
ATOM     27  C   UNL d   1     -43.992  12.560  21.562  0.00  0.00     0.000 A 
ATOM     28  C   UNL d   1     -44.031  11.982  22.144  0.00  0.00     0.000 A 
ATOM     29  C   UNL d   1     -44.628  12.016  22.718  0.00  0.00     0.002 A 
ENDBRANCH  23  24
ENDBRANCH   3  23
TORSDOF 6
ENDMDL
MODEL 2
REMARK VINA RESULT:      -7.0      1.187      4.578
REMARK  6 active torsions:
REMARK  status: ('A' for Active; 'I' for Inactive)
REMARK    1  A    between atoms: N_5  and  C_1 
REMARK    2  A    between atoms: N_7  and  C_2 
REMARK    3  A    between atoms: C_8  and  N_3 
REMARK    4  A    between atoms: C_18  and  C_8 
REMARK    5  A    between atoms: C_14  and  N_9 
REMARK    6  A    between atoms: C_19  and  C_14 
ROOT
ATOM      1  C   UNL d   1     -48.994  11.690  22.923  0.00  0.00     0.242 A 
ATOM      2  C   UNL d   1     -48.905  12.483  23.135  0.00  0.00     0.175 A 
ATOM      3  N   UNL d   1     -49.641  12.751  23.425  0.00  0.00    -0.274 N 
ATOM      4  N   UNL d   1     -49.782  11.463  23.079  0.00  0.00    -0.203 NA
ATOM      5  C   UNL d   1     -50.170  12.125  23.388  0.00  0.00     0.151 A 
ATOM      6  C   UNL d   1     -50.961  12.152  23.622  0.00  0.00     0.041 C 
ENDROOT
BRANCH   2   7
ATOM      7  N   UNL d   1     -48.155  12.796  23.014  0.00  0.00    -0.285 N 
ATOM      8  C   UNL d   1     -47.925  13.057  22.263  0.00  0.00     0.101 A 
ATOM      9  C   UNL d   1     -47.166  13.371  22.154  0.00  0.00     0.100 A 
ATOM     10  N   UNL d   1     -46.645  13.423  22.783  0.00  0.00    -0.300 N 
ATOM     11  C   UNL d   1     -46.876  13.161  23.533  0.00  0.00     0.100 A 
ATOM     12  C   UNL d   1     -47.624  12.851  23.647  0.00  0.00     0.101 A 
BRANCH  10  13
ATOM     13  C   UNL d   1     -45.885  13.738  22.670  0.00  0.00     0.080 C 
BRANCH  13  14
ATOM     14  C   UNL d   1     -45.281  13.261  22.393  0.00  0.00     0.018 A 
ATOM     15  C   UNL d   1     -44.910  13.435  21.674  0.00  0.00     0.002 A 
ATOM     16  C   UNL d   1     -44.302  12.959  21.391  0.00  0.00     0.000 A 
ATOM     17  C   UNL d   1     -44.060  12.298  21.832  0.00  0.00     0.000 A 
ATOM     18  C   UNL d   1     -44.430  12.123  22.551  0.00  0.00     0.000 A 
ATOM     19  C   UNL d   1     -45.043  12.610  22.829  0.00  0.00     0.002 A 
ENDBRANCH  13  14
ENDBRANCH  10  13
ENDBRANCH   2   7
BRANCH   1  20
ATOM     20  N   UNL d   1     -48.407  11.194  22.607  0.00  0.00    -0.092 N 
ATOM     21  O   UNL d   1     -47.931  10.748  23.102  0.00  0.00    -0.530 OA
ATOM     22  O   UNL d   1     -48.309  11.155  21.786  0.00  0.00    -0.530 OA
ENDBRANCH   1  20
BRANCH   3  23
ATOM     23  C   UNL d   1     -49.796  13.515  23.698  0.00  0.00     0.083 C 
BRANCH  23  24
ATOM     24  C   UNL d   1     -50.199  14.058  23.227  0.00  0.00     0.018 A 
ATOM     25  C   UNL d   1     -50.135  14.868  23.394  0.00  0.00     0.002 A 
ATOM     26  C   UNL d   1     -50.538  15.419  22.924  0.00  0.00     0.000 A 
ATOM     27  C   UNL d   1     -50.997  15.158  22.295  0.00  0.00     0.000 A 
ATOM     28  C   UNL d   1     -51.061  14.357  22.128  0.00  0.00     0.000 A 
ATOM     29  C   UNL d   1     -50.658  13.806  22.599  0.00  0.00     0.002 A 
ENDBRANCH  23  24
ENDBRANCH   3  23
TORSDOF 6
ENDMDL
MODEL 3
REMARK VINA RESULT:      -4.9      1.776      4.945
REMARK  6 active torsions:
REMARK  status: ('A' for Active; 'I' for Inactive)
REMARK    1  A    between atoms: N_5  and  C_1 
REMARK    2  A    between atoms: N_7  and  C_2 
REMARK    3  A    between atoms: C_8  and  N_3 
REMARK    4  A    between atoms: C_18  and  C_8 
REMARK    5  A    between atoms: C_14  and  N_9 
REMARK    6  A    between atoms: C_19  and  C_14 
ROOT
ATOM      1  C   UNL d   1     -48.215  15.216  22.566  0.00  0.00     0.242 A 
ATOM      2  C   UNL d   1     -48.281  14.481  22.936  0.00  0.00     0.175 A 
ATOM      3  N   UNL d   1     -49.051  14.426  23.255  0.00  0.00    -0.274 N 
ATOM      4  N   UNL d   1     -48.941  15.619  22.653  0.00  0.00    -0.203 NA
ATOM      5  C   UNL d   1     -49.447  15.123  23.079  0.00  0.00     0.151 A 
ATOM      6  C   UNL d   1     -50.224  15.299  23.293  0.00  0.00     0.041 C 
ENDROOT
BRANCH   2   7
ATOM      7  N   UNL d   1     -47.609  14.010  22.901  0.00  0.00    -0.285 N 
ATOM      8  C   UNL d   1     -47.075  13.993  23.533  0.00  0.00     0.101 A 
ATOM      9  C   UNL d   1     -46.400  13.514  23.487  0.00  0.00     0.100 A 
ATOM     10  N   UNL d   1     -46.261  13.059  22.821  0.00  0.00    -0.300 N 
ATOM     11  C   UNL d   1     -46.795  13.076  22.189  0.00  0.00     0.100 A 
ATOM     12  C   UNL d   1     -47.463  13.547  22.230  0.00  0.00     0.101 A 
BRANCH  10  13
ATOM     13  C   UNL d   1     -45.584  12.580  22.777  0.00  0.00     0.080 C 
BRANCH  13  14
ATOM     14  C   UNL d   1     -45.600  11.819  23.079  0.00  0.00     0.018 A 
ATOM     15  C   UNL d   1     -46.307  11.505  23.372  0.00  0.00     0.002 A 
ATOM     16  C   UNL d   1     -46.329  10.741  23.677  0.00  0.00     0.000 A 
ATOM     17  C   UNL d   1     -45.635  10.283  23.689  0.00  0.00     0.000 A 
ATOM     18  C   UNL d   1     -44.928  10.598  23.396  0.00  0.00     0.000 A 
ATOM     19  C   UNL d   1     -44.916  11.371  23.090  0.00  0.00     0.002 A 
ENDBRANCH  13  14
ENDBRANCH  10  13
ENDBRANCH   2   7
BRANCH   1  20
ATOM     20  N   UNL d   1     -47.547  15.513  22.172  0.00  0.00    -0.092 N 
ATOM     21  O   UNL d   1     -46.943  15.872  22.593  0.00  0.00    -0.530 OA
ATOM     22  O   UNL d   1     -47.497  15.442  21.349  0.00  0.00    -0.530 OA
ENDBRANCH   1  20
BRANCH   3  23
ATOM     23  C   UNL d   1     -49.349  13.779  23.673  0.00  0.00     0.083 C 
BRANCH  23  24
ATOM     24  C   UNL d   1     -49.887  13.262  23.323  0.00  0.00     0.018 A 
ATOM     25  C   UNL d   1     -50.057  12.540  23.692  0.00  0.00     0.002 A 
ATOM     26  C   UNL d   1     -50.597  12.015  23.345  0.00  0.00     0.000 A 
ATOM     27  C   UNL d   1     -50.960  12.216  22.637  0.00  0.00     0.000 A 
ATOM     28  C   UNL d   1     -50.793  12.931  22.269  0.00  0.00     0.000 A 
ATOM     29  C   UNL d   1     -50.253  13.455  22.617  0.00  0.00     0.002 A 
ENDBRANCH  23  24
ENDBRANCH   3  23
TORSDOF 6
ENDMDL
