MODEL 1
REMARK VINA RESULT:      14.5      0.000      0.000
REMARK  4 active torsions:
REMARK  status: ('A' for Active; 'I' for Inactive)
REMARK    1  A    between atoms: N_2  and  S_1 
REMARK    2  A    between atoms: C_3  and  S_1 
REMARK    3  A    between atoms: O_15  and  C_7 
REMARK    4  A    between atoms: C_18  and  O_15 
ROOT
ATOM      1  C   UNL d   1      13.544  12.385  -3.136  0.00  0.00     0.106 A 
ATOM      2  C   UNL d   1      13.292  13.142  -3.345  0.00  0.00     0.040 A 
ATOM      3  C   UNL d   1      13.035  13.292  -4.108  0.00  0.00     0.128 A 
ATOM      4  C   UNL d   1      13.028  12.687  -4.668  0.00  0.00     0.163 A 
ATOM      5  C   UNL d   1      13.537  11.780  -3.696  0.00  0.00     0.015 A 
ATOM      6  C   UNL d   1      13.281  11.930  -4.459  0.00  0.00     0.032 A 
ATOM      7  F   UNL d   1      12.769  12.838  -5.439  0.00  0.00    -0.202 F 
ENDROOT
BRANCH   1   8
ATOM      8  S   UNL d   1      13.803  12.234  -2.365  0.00  0.00     0.272 S 
ATOM      9  O   UNL d   1      13.124  11.783  -2.225  0.00  0.00    -0.200 OA
ATOM     10  O   UNL d   1      14.481  12.684  -2.504  0.00  0.00    -0.200 OA
BRANCH   8  11
ATOM     11  N   UNL d   1      14.062  12.082  -1.595  0.00  0.00    -0.225 N 
ATOM     12  C   UNL d   1      14.870  12.060  -1.427  0.00  0.00     0.118 A 
ATOM     13  C   UNL d   1      15.128  11.909  -0.657  0.00  0.00     0.142 A 
ATOM     14  O   UNL d   1      14.580  11.779  -0.054  0.00  0.00    -0.300 OA
ATOM     15  C   UNL d   1      13.773  11.801  -0.222  0.00  0.00     0.142 A 
ATOM     16  C   UNL d   1      13.514  11.953  -0.992  0.00  0.00     0.118 A 
ENDBRANCH   8  11
ENDBRANCH   1   8
BRANCH   3  17
ATOM     17  O   UNL d   1      12.781  14.058  -4.316  0.00  0.00    -0.303 OA
BRANCH  17  18
ATOM     18  C   UNL d   1      13.316  14.686  -4.318  0.00  0.00     0.123 C 
ATOM     19  C   UNL d   1      13.075  15.434  -4.578  0.00  0.00     0.029 C 
ENDBRANCH  17  18
ENDBRANCH   3  17
TORSDOF 4
ENDMDL
MODEL 2
REMARK VINA RESULT:      16.7      1.927      3.709
REMARK  4 active torsions:
REMARK  status: ('A' for Active; 'I' for Inactive)
REMARK    1  A    between atoms: N_2  and  S_1 
REMARK    2  A    between atoms: C_3  and  S_1 
REMARK    3  A    between atoms: O_15  and  C_7 
REMARK    4  A    between atoms: C_18  and  O_15 
ROOT
ATOM      1  C   UNL d   1      14.001  12.448  -2.309  0.00  0.00     0.106 A 
ATOM      2  C   UNL d   1      14.432  13.092  -2.026  0.00  0.00     0.040 A 
ATOM      3  C   UNL d   1      14.736  13.080  -1.266  0.00  0.00     0.128 A 
ATOM      4  C   UNL d   1      14.612  12.424  -0.782  0.00  0.00     0.163 A 
ATOM      5  C   UNL d   1      13.877  11.792  -1.825  0.00  0.00     0.015 A 
ATOM      6  C   UNL d   1      14.181  11.780  -1.065  0.00  0.00     0.032 A 
ATOM      7  F   UNL d   1      14.919  12.411  -0.014  0.00  0.00    -0.202 F 
ENDROOT
BRANCH   1   8
ATOM      8  S   UNL d   1      13.693  12.460  -3.077  0.00  0.00     0.272 S 
ATOM      9  O   UNL d   1      14.332  12.006  -3.340  0.00  0.00    -0.200 OA
ATOM     10  O   UNL d   1      13.055  12.914  -2.814  0.00  0.00    -0.200 OA
BRANCH   8  11
ATOM     11  N   UNL d   1      13.386  12.472  -3.843  0.00  0.00    -0.225 N 
ATOM     12  C   UNL d   1      13.094  13.176  -4.161  0.00  0.00     0.118 A 
ATOM     13  C   UNL d   1      12.787  13.188  -4.928  0.00  0.00     0.142 A 
ATOM     14  O   UNL d   1      12.772  12.497  -5.379  0.00  0.00    -0.300 OA
ATOM     15  C   UNL d   1      13.064  11.793  -5.061  0.00  0.00     0.142 A 
ATOM     16  C   UNL d   1      13.371  11.781  -4.294  0.00  0.00     0.118 A 
ENDBRANCH   8  11
ENDBRANCH   1   8
BRANCH   3  17
ATOM     17  O   UNL d   1      15.170  13.732  -0.985  0.00  0.00    -0.303 OA
BRANCH  17  18
ATOM     18  C   UNL d   1      15.007  14.050  -0.242  0.00  0.00     0.123 C 
ATOM     19  C   UNL d   1      15.336  14.778  -0.021  0.00  0.00     0.029 C 
ENDBRANCH  17  18
ENDBRANCH   3  17
TORSDOF 4
ENDMDL
