MODEL 1
REMARK VINA RESULT:      -9.3      0.000      0.000
REMARK  5 active torsions:
REMARK  status: ('A' for Active; 'I' for Inactive)
REMARK    1  A    between atoms: N_2  and  C_1 
REMARK    2  A    between atoms: N_11  and  C_6 
REMARK    3  A    between atoms: C_13  and  N_11 
REMARK    4  A    between atoms: O_20  and  C_14 
REMARK    5  A    between atoms: C_23  and  O_20 
ROOT
ATOM      1  C   UNL d   1      53.658  32.326  53.884  0.00  0.00     0.752 A 
ATOM      2  N   UNL d   1      53.142  32.666  53.333  0.00  0.00    -0.040 NA
ATOM      3  C   UNL d   1      52.679  32.187  52.850  0.00  0.00     0.182 A 
ATOM      4  N   UNL d   1      53.705  31.502  53.948  0.00  0.00    -0.059 NA
ATOM      5  C   UNL d   1      52.726  31.363  52.913  0.00  0.00     0.059 A 
ATOM      6  C   UNL d   1      53.241  31.019  53.463  0.00  0.00     0.103 A 
ATOM      7  C   UNL d   1      53.288  30.195  53.526  0.00  0.00     0.021 C 
ENDROOT
BRANCH   3   8
ATOM      8  N   UNL d   1      52.166  32.525  52.301  0.00  0.00    -0.226 NA
BRANCH   8   9
ATOM      9  C   UNL d   1      51.620  33.106  52.535  0.00  0.00     0.083 A 
ATOM     10  C   UNL d   1      51.714  33.883  52.256  0.00  0.00     0.021 A 
ATOM     11  C   UNL d   1      51.165  34.461  52.493  0.00  0.00     0.026 A 
ATOM     12  C   UNL d   1      50.541  34.266  52.994  0.00  0.00     0.100 A 
ATOM     13  C   UNL d   1      50.458  33.487  53.266  0.00  0.00     0.026 A 
ATOM     14  C   UNL d   1      50.997  32.906  53.036  0.00  0.00     0.021 A 
BRANCH  12  15
ATOM     15  O   UNL d   1      49.998  34.846  53.226  0.00  0.00    -0.305 OA
BRANCH  15  16
ATOM     16  C   UNL d   1      49.304  34.945  52.796  0.00  0.00     0.123 C 
ATOM     17  C   UNL d   1      48.777  35.540  53.012  0.00  0.00     0.029 C 
ENDBRANCH  15  16
ENDBRANCH  12  15
ENDBRANCH   8   9
ENDBRANCH   3   8
BRANCH   1  18
ATOM     18  N   UNL d   1      54.080  32.750  54.325  0.00  0.00    -0.058 N 
ATOM     19  N   UNL d   1      54.263  33.355  55.463  0.00  0.00    -0.151 NA
ATOM     20  C   UNL d   1      54.937  33.607  55.215  0.00  0.00     0.103 A 
ATOM     21  C   UNL d   1      55.365  34.034  55.658  0.00  0.00     0.022 C 
ATOM     22  C   UNL d   1      55.162  33.422  54.527  0.00  0.00     0.041 A 
ATOM     23  C   UNL d   1      54.746  32.999  54.079  0.00  0.00     0.102 A 
ATOM     24  C   UNL d   1      54.981  32.816  53.384  0.00  0.00     0.021 C 
ENDBRANCH   1  18
TORSDOF 5
ENDMDL
MODEL 2
REMARK VINA RESULT:      -8.9      1.812      4.526
REMARK  5 active torsions:
REMARK  status: ('A' for Active; 'I' for Inactive)
REMARK    1  A    between atoms: N_2  and  C_1 
REMARK    2  A    between atoms: N_11  and  C_6 
REMARK    3  A    between atoms: C_13  and  N_11 
REMARK    4  A    between atoms: O_20  and  C_14 
REMARK    5  A    between atoms: C_23  and  O_20 
ROOT
ATOM      1  C   UNL d   1      52.194  33.706  53.408  0.00  0.00     0.752 A 
ATOM      2  N   UNL d   1      52.580  33.051  53.079  0.00  0.00    -0.040 NA
ATOM      3  C   UNL d   1      53.328  32.835  53.343  0.00  0.00     0.182 A 
ATOM      4  N   UNL d   1      52.566  34.142  54.005  0.00  0.00    -0.059 NA
ATOM      5  C   UNL d   1      53.700  33.272  53.941  0.00  0.00     0.059 A 
ATOM      6  C   UNL d   1      53.318  33.927  54.273  0.00  0.00     0.103 A 
ATOM      7  C   UNL d   1      53.690  34.363  54.870  0.00  0.00     0.021 C 
ENDROOT
BRANCH   3   8
ATOM      8  N   UNL d   1      53.711  32.184  53.016  0.00  0.00    -0.226 NA
BRANCH   8   9
ATOM      9  C   UNL d   1      53.547  31.416  53.288  0.00  0.00     0.083 A 
ATOM     10  C   UNL d   1      53.036  30.933  52.844  0.00  0.00     0.021 A 
ATOM     11  C   UNL d   1      52.874  30.165  53.120  0.00  0.00     0.026 A 
ATOM     12  C   UNL d   1      53.213  29.891  53.819  0.00  0.00     0.100 A 
ATOM     13  C   UNL d   1      53.720  30.383  54.253  0.00  0.00     0.026 A 
ATOM     14  C   UNL d   1      53.888  31.146  53.988  0.00  0.00     0.021 A 
BRANCH  12  15
ATOM     15  O   UNL d   1      53.047  29.126  54.088  0.00  0.00    -0.305 OA
BRANCH  15  16
ATOM     16  C   UNL d   1      53.386  28.862  54.790  0.00  0.00     0.123 C 
ATOM     17  C   UNL d   1      53.401  28.054  54.952  0.00  0.00     0.029 C 
ENDBRANCH  15  16
ENDBRANCH  12  15
ENDBRANCH   8   9
ENDBRANCH   3   8
BRANCH   1  18
ATOM     18  N   UNL d   1      51.519  33.910  53.176  0.00  0.00    -0.058 N 
ATOM     19  N   UNL d   1      50.228  33.928  53.350  0.00  0.00    -0.151 NA
ATOM     20  C   UNL d   1      50.152  34.323  52.704  0.00  0.00     0.103 A 
ATOM     21  C   UNL d   1      49.471  34.529  52.468  0.00  0.00     0.022 C 
ATOM     22  C   UNL d   1      50.764  34.499  52.313  0.00  0.00     0.041 A 
ATOM     23  C   UNL d   1      51.444  34.300  52.537  0.00  0.00     0.102 A 
ATOM     24  C   UNL d   1      52.058  34.483  52.135  0.00  0.00     0.021 C 
ENDBRANCH   1  18
TORSDOF 5
ENDMDL
MODEL 3
REMARK VINA RESULT:      -8.7      1.062      2.431
REMARK  5 active torsions:
REMARK  status: ('A' for Active; 'I' for Inactive)
REMARK    1  A    between atoms: N_2  and  C_1 
REMARK    2  A    between atoms: N_11  and  C_6 
REMARK    3  A    between atoms: C_13  and  N_11 
REMARK    4  A    between atoms: O_20  and  C_14 
REMARK    5  A    between atoms: C_23  and  O_20 
ROOT
ATOM      1  C   UNL d   1      53.268  32.445  53.841  0.00  0.00     0.752 A 
ATOM      2  N   UNL d   1      52.948  33.030  53.350  0.00  0.00    -0.040 NA
ATOM      3  C   UNL d   1      53.048  33.825  53.535  0.00  0.00     0.182 A 
ATOM      4  N   UNL d   1      53.690  32.664  54.518  0.00  0.00    -0.059 NA
ATOM      5  C   UNL d   1      53.469  34.045  54.212  0.00  0.00     0.059 A 
ATOM      6  C   UNL d   1      53.791  33.463  54.706  0.00  0.00     0.103 A 
ATOM      7  C   UNL d   1      54.213  33.683  55.384  0.00  0.00     0.021 C 
ENDROOT
BRANCH   3   8
ATOM      8  N   UNL d   1      52.729  34.407  53.047  0.00  0.00    -0.226 NA
BRANCH   8   9
ATOM      9  C   UNL d   1      51.925  34.389  52.838  0.00  0.00     0.083 A 
ATOM     10  C   UNL d   1      51.714  34.139  52.074  0.00  0.00     0.021 A 
ATOM     11  C   UNL d   1      50.907  34.123  51.869  0.00  0.00     0.026 A 
ATOM     12  C   UNL d   1      50.332  34.350  52.413  0.00  0.00     0.100 A 
ATOM     13  C   UNL d   1      50.556  34.597  53.172  0.00  0.00     0.026 A 
ATOM     14  C   UNL d   1      51.353  34.618  53.385  0.00  0.00     0.021 A 
BRANCH  12  15
ATOM     15  O   UNL d   1      49.532  34.331  52.202  0.00  0.00    -0.305 OA
BRANCH  15  16
ATOM     16  C   UNL d   1      49.284  34.718  51.519  0.00  0.00     0.123 C 
ATOM     17  C   UNL d   1      48.482  34.732  51.332  0.00  0.00     0.029 C 
ENDBRANCH  15  16
ENDBRANCH  12  15
ENDBRANCH   8   9
ENDBRANCH   3   8
BRANCH   1  18
ATOM     18  N   UNL d   1      53.183  31.724  53.683  0.00  0.00    -0.058 N 
ATOM     19  N   UNL d   1      52.452  30.647  53.701  0.00  0.00    -0.151 NA
ATOM     20  C   UNL d   1      53.015  30.265  53.362  0.00  0.00     0.103 A 
ATOM     21  C   UNL d   1      52.932  29.537  53.202  0.00  0.00     0.022 C 
ATOM     22  C   UNL d   1      53.647  30.625  53.193  0.00  0.00     0.041 A 
ATOM     23  C   UNL d   1      53.740  31.346  53.347  0.00  0.00     0.102 A 
ATOM     24  C   UNL d   1      54.384  31.703  53.172  0.00  0.00     0.021 C 
ENDBRANCH   1  18
TORSDOF 5
ENDMDL
MODEL 4
REMARK VINA RESULT:      -8.3      1.800      3.701
REMARK  5 active torsions:
REMARK  status: ('A' for Active; 'I' for Inactive)
REMARK    1  A    between atoms: N_2  and  C_1 
REMARK    2  A    between atoms: N_11  and  C_6 
REMARK    3  A    between atoms: C_13  and  N_11 
REMARK    4  A    between atoms: O_20  and  C_14 
REMARK    5  A    between atoms: C_23  and  O_20 
ROOT
ATOM      1  C   UNL d   1      53.383  33.403  53.657  0.00  0.00     0.752 A 
ATOM      2  N   UNL d   1      53.312  32.677  53.265  0.00  0.00    -0.040 NA
ATOM      3  C   UNL d   1      52.660  32.527  52.787  0.00  0.00     0.182 A 
ATOM      4  N   UNL d   1      52.793  33.977  53.566  0.00  0.00    -0.059 NA
ATOM      5  C   UNL d   1      52.070  33.101  52.696  0.00  0.00     0.059 A 
ATOM      6  C   UNL d   1      52.137  33.828  53.087  0.00  0.00     0.103 A 
ATOM      7  C   UNL d   1      51.547  34.402  52.996  0.00  0.00     0.021 C 
ENDROOT
BRANCH   3   8
ATOM      8  N   UNL d   1      52.589  31.805  52.397  0.00  0.00    -0.226 NA
BRANCH   8   9
ATOM      9  C   UNL d   1      52.691  31.091  52.808  0.00  0.00     0.083 A 
ATOM     10  C   UNL d   1      53.434  30.718  52.788  0.00  0.00     0.021 A 
ATOM     11  C   UNL d   1      53.532  30.003  53.202  0.00  0.00     0.026 A 
ATOM     12  C   UNL d   1      52.905  29.672  53.623  0.00  0.00     0.100 A 
ATOM     13  C   UNL d   1      52.169  30.054  53.634  0.00  0.00     0.026 A 
ATOM     14  C   UNL d   1      52.061  30.764  53.227  0.00  0.00     0.021 A 
BRANCH  12  15
ATOM     15  O   UNL d   1      53.009  28.961  54.032  0.00  0.00    -0.305 OA
BRANCH  15  16
ATOM     16  C   UNL d   1      53.289  28.977  54.806  0.00  0.00     0.123 C 
ATOM     17  C   UNL d   1      53.553  28.279  55.154  0.00  0.00     0.029 C 
ENDBRANCH  15  16
ENDBRANCH  12  15
ENDBRANCH   8   9
ENDBRANCH   3   8
BRANCH   1  18
ATOM     18  N   UNL d   1      53.968  33.548  54.091  0.00  0.00    -0.058 N 
ATOM     19  N   UNL d   1      55.247  33.756  54.222  0.00  0.00    -0.151 NA
ATOM     20  C   UNL d   1      55.151  33.843  54.972  0.00  0.00     0.103 A 
ATOM     21  C   UNL d   1      55.740  33.990  55.411  0.00  0.00     0.022 C 
ATOM     22  C   UNL d   1      54.464  33.780  55.258  0.00  0.00     0.041 A 
ATOM     23  C   UNL d   1      53.873  33.634  54.832  0.00  0.00     0.102 A 
ATOM     24  C   UNL d   1      53.181  33.572  55.131  0.00  0.00     0.021 C 
ENDBRANCH   1  18
TORSDOF 5
ENDMDL
