MODEL 1
REMARK VINA RESULT:      63.1      0.000      0.000
REMARK  9 active torsions:
REMARK  status: ('A' for Active; 'I' for Inactive)
REMARK    1  A    between atoms: C_17  and  N_1 
REMARK    2  A    between atoms: S_10  and  C_2 
REMARK    3  A    between atoms: N_8  and  C_9 
REMARK    4  A    between atoms: C_19  and  S_10 
REMARK    5  A    between atoms: C_11  and  C_19 
REMARK       I    between atoms: N_13  and  C_11 
REMARK    6  A    between atoms: C_20  and  N_13 
REMARK    7  A    between atoms: C_28  and  C_17 
REMARK    8  A    between atoms: C_23  and  C_20 
REMARK    9  A    between atoms: C_29  and  C_28 
ROOT
ATOM      1  N   UNL d   1      14.601  15.838  -3.543  0.00  0.00    -0.253 N 
ATOM      2  C   UNL d   1      14.168  15.287  -3.979  0.00  0.00     0.182 A 
ATOM      3  C   UNL d   1      14.689  16.613  -3.830  0.00  0.00     0.268 A 
ATOM      4  C   UNL d   1      14.345  16.831  -4.546  0.00  0.00     0.076 A 
ATOM      5  N   UNL d   1      13.823  15.511  -4.700  0.00  0.00    -0.222 NA
ATOM      6  C   UNL d   1      13.912  16.280  -4.981  0.00  0.00     0.088 A 
ATOM      7  C   UNL d   1      14.435  17.600  -4.826  0.00  0.00     0.024 A 
ATOM      8  C   UNL d   1      14.091  17.818  -5.543  0.00  0.00     0.065 A 
ATOM      9  O   UNL d   1      15.123  17.164  -3.395  0.00  0.00    -0.267 OA
ATOM     10  C   UNL d   1      13.569  16.498  -5.696  0.00  0.00     0.021 A 
ATOM     11  C   UNL d   1      13.658  17.267  -5.978  0.00  0.00     0.019 A 
ENDROOT
BRANCH   2  12
ATOM     12  S   UNL d   1      14.077  14.514  -3.697  0.00  0.00    -0.044 SA
BRANCH  12  13
ATOM     13  C   UNL d   1      13.694  13.939  -4.165  0.00  0.00     0.101 C 
BRANCH  13  14
ATOM     14  C   UNL d   1      13.483  13.211  -3.832  0.00  0.00     0.286 C 
ATOM     15  N   UNL d   1      13.914  12.916  -3.186  0.00  0.00    -0.206 NA
ATOM     16  O   UNL d   1      12.849  12.787  -4.145  0.00  0.00    -0.265 OA
BRANCH  15  17
ATOM     17  C   UNL d   1      13.701  12.182  -2.852  0.00  0.00     0.102 C 
BRANCH  17  18
ATOM     18  C   UNL d   1      13.828  12.048  -2.042  0.00  0.00     0.019 A 
ATOM     19  C   UNL d   1      14.595  12.046  -1.740  0.00  0.00     0.002 A 
ATOM     20  C   UNL d   1      14.726  11.913  -0.937  0.00  0.00     0.000 A 
ATOM     21  C   UNL d   1      14.071  11.780  -0.427  0.00  0.00     0.000 A 
ATOM     22  C   UNL d   1      13.304  11.783  -0.731  0.00  0.00     0.000 A 
ATOM     23  C   UNL d   1      13.176  11.917  -1.540  0.00  0.00     0.002 A 
ENDBRANCH  17  18
ENDBRANCH  15  17
ENDBRANCH  13  14
ENDBRANCH  12  13
ENDBRANCH   2  12
BRANCH   1  24
ATOM     24  C   UNL d   1      14.946  15.619  -2.825  0.00  0.00     0.085 C 
BRANCH  24  25
ATOM     25  C   UNL d   1      14.732  16.008  -2.129  0.00  0.00     0.019 C 
BRANCH  25  26
ATOM     26  C   UNL d   1      14.994  15.716  -1.397  0.00  0.00     0.002 C 
ATOM     27  C   UNL d   1      14.984  16.203  -0.731  0.00  0.00     0.000 C 
ENDBRANCH  25  26
ENDBRANCH  24  25
ENDBRANCH   1  24
BRANCH   8  28
ATOM     28  N   UNL d   1      14.181  18.586  -5.823  0.00  0.00    -0.300 N 
ATOM     29  C   UNL d   1      13.516  19.052  -5.962  0.00  0.00     0.107 A 
ATOM     30  C   UNL d   1      13.601  19.832  -6.246  0.00  0.00     0.142 A 
ATOM     31  O   UNL d   1      14.362  20.139  -6.388  0.00  0.00    -0.300 OA
ATOM     32  C   UNL d   1      15.032  19.663  -6.245  0.00  0.00     0.142 A 
ATOM     33  C   UNL d   1      14.943  18.893  -5.965  0.00  0.00     0.107 A 
ENDBRANCH   8  28
TORSDOF 9
ENDMDL
