MODEL 1
REMARK VINA RESULT:      -5.3      0.000      0.000
REMARK  4 active torsions:
REMARK  status: ('A' for Active; 'I' for Inactive)
REMARK    1  A    between atoms: C_7  and  C_1 
REMARK       I    between atoms: C_6  and  N_8 
REMARK    2  A    between atoms: C_14  and  C_6 
REMARK    3  A    between atoms: N_8  and  C_15 
REMARK    4  A    between atoms: C_20  and  C_14 
ROOT
ATOM      1  C   UNL d   1      57.715   0.276  31.188  0.00  0.00     0.024 A 
ATOM      2  C   UNL d   1      58.461   0.549  31.381  0.00  0.00     0.004 A 
ATOM      3  C   UNL d   1      57.505   0.116  30.398  0.00  0.00     0.004 A 
ATOM      4  C   UNL d   1      58.827   0.515  29.994  0.00  0.00     0.085 A 
ATOM      5  C   UNL d   1      59.029   0.672  30.778  0.00  0.00     0.019 A 
ATOM      6  C   UNL d   1      58.078   0.241  29.803  0.00  0.00     0.019 A 
ENDROOT
BRANCH   1   7
ATOM      7  C   UNL d   1      57.171   0.160  31.786  0.00  0.00     0.111 A 
ATOM      8  N   UNL d   1      56.726  -0.510  31.877  0.00  0.00    -0.239 NA
ATOM      9  C   UNL d   1      56.240  -0.434  32.534  0.00  0.00     0.088 A 
ATOM     10  C   UNL d   1      55.688  -0.924  32.883  0.00  0.00     0.020 A 
ATOM     11  C   UNL d   1      56.396   0.319  32.861  0.00  0.00     0.049 A 
ATOM     12  C   UNL d   1      55.297  -0.672  33.544  0.00  0.00     0.002 A 
ATOM     13  C   UNL d   1      55.453   0.081  33.871  0.00  0.00     0.001 A 
ATOM     14  C   UNL d   1      55.996   0.574  33.535  0.00  0.00     0.008 A 
ATOM     15  C   UNL d   1      55.041   0.318  34.547  0.00  0.00     0.000 C 
ATOM     16  S   UNL d   1      56.967   0.682  32.400  0.00  0.00    -0.066 SA
ENDBRANCH   1   7
BRANCH   4  17
ATOM     17  N   UNL d   1      59.365   0.630  29.405  0.00  0.00    -0.208 NA
ATOM     18  C   UNL d   1      59.766   0.041  29.125  0.00  0.00     0.279 C 
ATOM     19  O   UNL d   1      60.349   0.157  28.490  0.00  0.00    -0.265 OA
BRANCH  18  20
ATOM     20  C   UNL d   1      59.582  -0.670  29.486  0.00  0.00     0.062 C 
BRANCH  20  21
ATOM     21  C   UNL d   1      59.957  -1.350  29.252  0.00  0.00     0.005 A 
ATOM     22  C   UNL d   1      59.519  -1.941  28.893  0.00  0.00     0.000 A 
ATOM     23  C   UNL d   1      59.887  -2.649  28.644  0.00  0.00     0.000 A 
ATOM     24  C   UNL d   1      60.699  -2.745  28.766  0.00  0.00     0.000 A 
ATOM     25  C   UNL d   1      61.133  -2.140  29.131  0.00  0.00     0.000 A 
ATOM     26  C   UNL d   1      60.774  -1.447  29.374  0.00  0.00     0.000 A 
ENDBRANCH  20  21
ENDBRANCH  18  20
ENDBRANCH   4  17
TORSDOF 4
ENDMDL
