MODEL 1
REMARK VINA RESULT:      44.5      0.000      0.000
REMARK  9 active torsions:
REMARK  status: ('A' for Active; 'I' for Inactive)
REMARK       I    between atoms: C_9  and  N_1 
REMARK       I    between atoms: N_2  and  C_10 
REMARK    1  A    between atoms: C_17  and  C_9 
REMARK    2  A    between atoms: C_10  and  C_18 
REMARK    3  A    between atoms: C_21  and  C_17 
REMARK    4  A    between atoms: C_18  and  C_22 
REMARK    5  A    between atoms: C_24  and  C_21 
REMARK    6  A    between atoms: C_22  and  C_23 
REMARK    7  A    between atoms: C_23  and  C_26 
REMARK    8  A    between atoms: C_25  and  C_24 
REMARK    9  A    between atoms: C_26  and  C_25 
ROOT
ATOM      1  C   UNL d   1     -49.968  27.554  34.165  0.00  0.00     0.000 C 
ENDROOT
BRANCH   1   2
ATOM      2  C   UNL d   1     -50.044  26.968  33.579  0.00  0.00     0.000 C 
BRANCH   2   3
ATOM      3  C   UNL d   1     -50.789  26.676  33.387  0.00  0.00     0.005 C 
BRANCH   3   4
ATOM      4  C   UNL d   1     -50.941  25.866  33.433  0.00  0.00     0.063 C 
BRANCH   4   5
ATOM      5  C   UNL d   1     -51.720  25.594  33.442  0.00  0.00     0.280 C 
ATOM      6  N   UNL d   1     -51.876  24.788  33.395  0.00  0.00    -0.195 N 
ATOM      7  N   UNL d   1     -52.652  24.513  33.404  0.00  0.00    -0.163 NA
ATOM      8  C   UNL d   1     -51.381  24.130  33.335  0.00  0.00     0.088 A 
ATOM      9  C   UNL d   1     -52.639  23.692  33.350  0.00  0.00     0.103 A 
ATOM     10  C   UNL d   1     -53.300  23.193  33.340  0.00  0.00     0.022 C 
ATOM     11  C   UNL d   1     -51.849  23.460  33.307  0.00  0.00     0.040 A 
ATOM     12  C   UNL d   1     -50.557  24.148  33.308  0.00  0.00     0.021 C 
ATOM     13  O   UNL d   1     -52.351  26.125  33.498  0.00  0.00    -0.265 OA
ENDBRANCH   4   5
ENDBRANCH   3   4
ENDBRANCH   2   3
ENDBRANCH   1   2
BRANCH   1  14
ATOM     14  C   UNL d   1     -49.355  27.504  34.715  0.00  0.00     0.000 C 
BRANCH  14  15
ATOM     15  C   UNL d   1     -48.949  28.189  34.953  0.00  0.00     0.000 C 
BRANCH  15  16
ATOM     16  C   UNL d   1     -48.130  28.232  34.888  0.00  0.00     0.005 C 
BRANCH  16  17
ATOM     17  C   UNL d   1     -47.686  28.589  35.486  0.00  0.00     0.063 C 
BRANCH  17  18
ATOM     18  C   UNL d   1     -47.936  29.294  35.823  0.00  0.00     0.280 C 
ATOM     19  N   UNL d   1     -47.594  30.009  35.597  0.00  0.00    -0.195 N 
ATOM     20  N   UNL d   1     -47.784  30.757  35.883  0.00  0.00    -0.163 NA
ATOM     21  C   UNL d   1     -46.990  30.107  35.033  0.00  0.00     0.088 A 
ATOM     22  C   UNL d   1     -47.306  31.313  35.504  0.00  0.00     0.103 A 
ATOM     23  C   UNL d   1     -47.320  32.130  35.632  0.00  0.00     0.022 C 
ATOM     24  C   UNL d   1     -46.815  30.906  34.977  0.00  0.00     0.040 A 
ATOM     25  C   UNL d   1     -46.629  29.495  34.602  0.00  0.00     0.021 C 
ATOM     26  O   UNL d   1     -48.534  29.288  36.394  0.00  0.00    -0.265 OA
ENDBRANCH  17  18
ENDBRANCH  16  17
ENDBRANCH  15  16
ENDBRANCH  14  15
ENDBRANCH   1  14
TORSDOF 9
ENDMDL
MODEL 2
REMARK VINA RESULT:      44.5      1.213      6.903
REMARK  9 active torsions:
REMARK  status: ('A' for Active; 'I' for Inactive)
REMARK       I    between atoms: C_9  and  N_1 
REMARK       I    between atoms: N_2  and  C_10 
REMARK    1  A    between atoms: C_17  and  C_9 
REMARK    2  A    between atoms: C_10  and  C_18 
REMARK    3  A    between atoms: C_21  and  C_17 
REMARK    4  A    between atoms: C_18  and  C_22 
REMARK    5  A    between atoms: C_24  and  C_21 
REMARK    6  A    between atoms: C_22  and  C_23 
REMARK    7  A    between atoms: C_23  and  C_26 
REMARK    8  A    between atoms: C_25  and  C_24 
REMARK    9  A    between atoms: C_26  and  C_25 
ROOT
ATOM      1  C   UNL d   1     -48.613  28.017  35.036  0.00  0.00     0.000 C 
ENDROOT
BRANCH   1   2
ATOM      2  C   UNL d   1     -48.622  28.829  35.219  0.00  0.00     0.000 C 
BRANCH   2   3
ATOM      3  C   UNL d   1     -47.913  29.232  35.326  0.00  0.00     0.005 C 
BRANCH   3   4
ATOM      4  C   UNL d   1     -47.734  29.887  34.857  0.00  0.00     0.063 C 
BRANCH   4   5
ATOM      5  C   UNL d   1     -47.509  30.597  35.211  0.00  0.00     0.280 C 
ATOM      6  N   UNL d   1     -47.680  31.314  34.845  0.00  0.00    -0.195 N 
ATOM      7  N   UNL d   1     -47.458  32.024  35.196  0.00  0.00    -0.163 NA
ATOM      8  C   UNL d   1     -48.062  31.496  34.136  0.00  0.00     0.088 A 
ATOM      9  C   UNL d   1     -47.699  32.642  34.710  0.00  0.00     0.103 A 
ATOM     10  C   UNL d   1     -47.586  33.450  34.854  0.00  0.00     0.022 C 
ATOM     11  C   UNL d   1     -48.073  32.310  34.054  0.00  0.00     0.040 A 
ATOM     12  C   UNL d   1     -48.377  30.950  33.604  0.00  0.00     0.021 C 
ATOM     13  O   UNL d   1     -47.111  30.600  35.936  0.00  0.00    -0.265 OA
ENDBRANCH   4   5
ENDBRANCH   3   4
ENDBRANCH   2   3
ENDBRANCH   1   2
BRANCH   1  14
ATOM     14  C   UNL d   1     -49.243  27.688  34.617  0.00  0.00     0.000 C 
BRANCH  14  15
ATOM     15  C   UNL d   1     -49.238  27.689  33.785  0.00  0.00     0.000 C 
BRANCH  15  16
ATOM     16  C   UNL d   1     -49.390  26.997  33.367  0.00  0.00     0.005 C 
BRANCH  16  17
ATOM     17  C   UNL d   1     -50.117  26.615  33.449  0.00  0.00     0.063 C 
BRANCH  17  18
ATOM     18  C   UNL d   1     -50.158  25.795  33.445  0.00  0.00     0.280 C 
ATOM     19  N   UNL d   1     -50.888  25.414  33.396  0.00  0.00    -0.195 N 
ATOM     20  N   UNL d   1     -51.017  24.601  33.386  0.00  0.00    -0.163 NA
ATOM     21  C   UNL d   1     -51.632  25.783  33.349  0.00  0.00     0.088 A 
ATOM     22  C   UNL d   1     -51.829  24.465  33.333  0.00  0.00     0.103 A 
ATOM     23  C   UNL d   1     -52.195  23.724  33.307  0.00  0.00     0.022 C 
ATOM     24  C   UNL d   1     -52.207  25.200  33.310  0.00  0.00     0.040 A 
ATOM     25  C   UNL d   1     -51.763  26.603  33.342  0.00  0.00     0.021 C 
ATOM     26  O   UNL d   1     -49.463  25.349  33.489  0.00  0.00    -0.265 OA
ENDBRANCH  17  18
ENDBRANCH  16  17
ENDBRANCH  15  16
ENDBRANCH  14  15
ENDBRANCH   1  14
TORSDOF 9
ENDMDL
MODEL 3
REMARK VINA RESULT:      44.6      1.245      1.694
REMARK  9 active torsions:
REMARK  status: ('A' for Active; 'I' for Inactive)
REMARK       I    between atoms: C_9  and  N_1 
REMARK       I    between atoms: N_2  and  C_10 
REMARK    1  A    between atoms: C_17  and  C_9 
REMARK    2  A    between atoms: C_10  and  C_18 
REMARK    3  A    between atoms: C_21  and  C_17 
REMARK    4  A    between atoms: C_18  and  C_22 
REMARK    5  A    between atoms: C_24  and  C_21 
REMARK    6  A    between atoms: C_22  and  C_23 
REMARK    7  A    between atoms: C_23  and  C_26 
REMARK    8  A    between atoms: C_25  and  C_24 
REMARK    9  A    between atoms: C_26  and  C_25 
ROOT
ATOM      1  C   UNL d   1     -49.058  27.719  35.499  0.00  0.00     0.000 C 
ENDROOT
BRANCH   1   2
ATOM      2  C   UNL d   1     -49.293  27.093  35.004  0.00  0.00     0.000 C 
BRANCH   2   3
ATOM      3  C   UNL d   1     -49.644  27.257  34.277  0.00  0.00     0.005 C 
BRANCH   3   4
ATOM      4  C   UNL d   1     -49.894  26.640  33.790  0.00  0.00     0.063 C 
BRANCH   4   5
ATOM      5  C   UNL d   1     -50.695  26.446  33.750  0.00  0.00     0.280 C 
ATOM      6  N   UNL d   1     -50.925  25.671  33.600  0.00  0.00    -0.195 N 
ATOM      7  N   UNL d   1     -51.724  25.475  33.559  0.00  0.00    -0.163 NA
ATOM      8  C   UNL d   1     -50.493  24.980  33.469  0.00  0.00     0.088 A 
ATOM      9  C   UNL d   1     -51.787  24.669  33.404  0.00  0.00     0.103 A 
ATOM     10  C   UNL d   1     -52.491  24.242  33.319  0.00  0.00     0.022 C 
ATOM     11  C   UNL d   1     -51.022  24.367  33.349  0.00  0.00     0.040 A 
ATOM     12  C   UNL d   1     -49.671  24.921  33.460  0.00  0.00     0.021 C 
ATOM     13  O   UNL d   1     -51.275  27.026  33.859  0.00  0.00    -0.265 OA
ENDBRANCH   4   5
ENDBRANCH   3   4
ENDBRANCH   2   3
ENDBRANCH   1   2
BRANCH   1  14
ATOM     14  C   UNL d   1     -48.555  28.303  35.206  0.00  0.00     0.000 C 
BRANCH  14  15
ATOM     15  C   UNL d   1     -48.435  29.006  35.636  0.00  0.00     0.000 C 
BRANCH  15  16
ATOM     16  C   UNL d   1     -47.811  29.508  35.447  0.00  0.00     0.005 C 
BRANCH  16  17
ATOM     17  C   UNL d   1     -47.955  30.209  35.036  0.00  0.00     0.063 C 
BRANCH  17  18
ATOM     18  C   UNL d   1     -47.470  30.862  35.148  0.00  0.00     0.280 C 
ATOM     19  N   UNL d   1     -47.608  31.561  34.731  0.00  0.00    -0.195 N 
ATOM     20  N   UNL d   1     -47.172  32.257  34.784  0.00  0.00    -0.163 NA
ATOM     21  C   UNL d   1     -48.216  31.690  34.179  0.00  0.00     0.088 A 
ATOM     22  C   UNL d   1     -47.504  32.813  34.272  0.00  0.00     0.103 A 
ATOM     23  C   UNL d   1     -47.233  33.586  34.156  0.00  0.00     0.022 C 
ATOM     24  C   UNL d   1     -48.151  32.458  33.899  0.00  0.00     0.040 A 
ATOM     25  C   UNL d   1     -48.789  31.133  33.954  0.00  0.00     0.021 C 
ATOM     26  O   UNL d   1     -46.839  30.819  35.681  0.00  0.00    -0.265 OA
ENDBRANCH  17  18
ENDBRANCH  16  17
ENDBRANCH  15  16
ENDBRANCH  14  15
ENDBRANCH   1  14
TORSDOF 9
ENDMDL
MODEL 4
REMARK VINA RESULT:      46.6      1.215      6.946
REMARK  9 active torsions:
REMARK  status: ('A' for Active; 'I' for Inactive)
REMARK       I    between atoms: C_9  and  N_1 
REMARK       I    between atoms: N_2  and  C_10 
REMARK    1  A    between atoms: C_17  and  C_9 
REMARK    2  A    between atoms: C_10  and  C_18 
REMARK    3  A    between atoms: C_21  and  C_17 
REMARK    4  A    between atoms: C_18  and  C_22 
REMARK    5  A    between atoms: C_24  and  C_21 
REMARK    6  A    between atoms: C_22  and  C_23 
REMARK    7  A    between atoms: C_23  and  C_26 
REMARK    8  A    between atoms: C_25  and  C_24 
REMARK    9  A    between atoms: C_26  and  C_25 
ROOT
ATOM      1  C   UNL d   1     -48.828  28.467  35.145  0.00  0.00     0.000 C 
ENDROOT
BRANCH   1   2
ATOM      2  C   UNL d   1     -48.195  28.938  34.879  0.00  0.00     0.000 C 
BRANCH   2   3
ATOM      3  C   UNL d   1     -47.973  29.605  35.308  0.00  0.00     0.005 C 
BRANCH   3   4
ATOM      4  C   UNL d   1     -47.621  30.245  34.925  0.00  0.00     0.063 C 
BRANCH   4   5
ATOM      5  C   UNL d   1     -48.089  30.794  34.526  0.00  0.00     0.280 C 
ATOM      6  N   UNL d   1     -47.805  31.553  34.383  0.00  0.00    -0.195 N 
ATOM      7  N   UNL d   1     -48.269  32.104  33.985  0.00  0.00    -0.163 NA
ATOM      8  C   UNL d   1     -47.090  31.920  34.568  0.00  0.00     0.088 A 
ATOM      9  C   UNL d   1     -47.847  32.806  33.924  0.00  0.00     0.103 A 
ATOM     10  C   UNL d   1     -48.109  33.504  33.562  0.00  0.00     0.022 C 
ATOM     11  C   UNL d   1     -47.116  32.688  34.286  0.00  0.00     0.040 A 
ATOM     12  C   UNL d   1     -46.458  31.572  34.969  0.00  0.00     0.021 C 
ATOM     13  O   UNL d   1     -48.847  30.592  34.265  0.00  0.00    -0.265 OA
ENDBRANCH   4   5
ENDBRANCH   3   4
ENDBRANCH   2   3
ENDBRANCH   1   2
BRANCH   1  14
ATOM     14  C   UNL d   1     -49.044  27.798  34.715  0.00  0.00     0.000 C 
BRANCH  14  15
ATOM     15  C   UNL d   1     -49.848  27.606  34.616  0.00  0.00     0.000 C 
BRANCH  15  16
ATOM     16  C   UNL d   1     -50.074  26.833  34.448  0.00  0.00     0.005 C 
BRANCH  16  17
ATOM     17  C   UNL d   1     -50.360  26.639  33.699  0.00  0.00     0.063 C 
BRANCH  17  18
ATOM     18  C   UNL d   1     -51.074  26.242  33.617  0.00  0.00     0.280 C 
ATOM     19  N   UNL d   1     -51.087  25.420  33.541  0.00  0.00    -0.195 N 
ATOM     20  N   UNL d   1     -51.755  24.946  33.455  0.00  0.00    -0.163 NA
ATOM     21  C   UNL d   1     -50.425  24.917  33.537  0.00  0.00     0.088 A 
ATOM     22  C   UNL d   1     -51.513  24.160  33.399  0.00  0.00     0.103 A 
ATOM     23  C   UNL d   1     -52.011  23.506  33.308  0.00  0.00     0.022 C 
ATOM     24  C   UNL d   1     -50.687  24.145  33.450  0.00  0.00     0.040 A 
ATOM     25  C   UNL d   1     -49.634  25.161  33.610  0.00  0.00     0.021 C 
ATOM     26  O   UNL d   1     -51.783  26.667  33.611  0.00  0.00    -0.265 OA
ENDBRANCH  17  18
ENDBRANCH  16  17
ENDBRANCH  15  16
ENDBRANCH  14  15
ENDBRANCH   1  14
TORSDOF 9
ENDMDL
