MODEL 1
REMARK VINA RESULT:      -8.7      0.000      0.000
REMARK  3 active torsions:
REMARK  status: ('A' for Active; 'I' for Inactive)
REMARK    1  A    between atoms: C_4  and  C_1 
REMARK    2  A    between atoms: N_7  and  C_4 
REMARK    3  A    between atoms: C_9  and  N_7 
ROOT
ATOM      1  C   UNL d   1      52.937  32.393  53.101  0.00  0.00     0.171 C 
ATOM      2  S   UNL d   1      53.523  32.609  53.641  0.00  0.00    -0.054 SA
ENDROOT
BRANCH   1   3
ATOM      3  C   UNL d   1      52.301  32.900  52.962  0.00  0.00     0.191 A 
ATOM      4  N   UNL d   1      51.748  33.143  53.526  0.00  0.00    -0.223 NA
ATOM      5  C   UNL d   1      51.209  33.647  53.151  0.00  0.00     0.101 A 
ATOM      6  C   UNL d   1      50.545  34.055  53.424  0.00  0.00     0.021 A 
ATOM      7  C   UNL d   1      51.433  33.711  52.355  0.00  0.00     0.101 A 
ATOM      8  C   UNL d   1      50.109  34.523  52.911  0.00  0.00     0.002 A 
ATOM      9  C   UNL d   1      50.334  34.587  52.116  0.00  0.00     0.002 A 
ATOM     10  C   UNL d   1      50.992  34.183  51.841  0.00  0.00     0.021 A 
ATOM     11  N   UNL d   1      52.110  33.247  52.245  0.00  0.00    -0.223 NA
ENDBRANCH   1   3
BRANCH   1  12
ATOM     12  N   UNL d   1      52.985  31.676  52.701  0.00  0.00    -0.232 NA
BRANCH  12  13
ATOM     13  C   UNL d   1      53.092  30.972  53.126  0.00  0.00     0.083 A 
ATOM     14  C   UNL d   1      52.568  30.346  53.023  0.00  0.00     0.020 A 
ATOM     15  C   UNL d   1      52.667  29.646  53.439  0.00  0.00     0.013 A 
ATOM     16  C   UNL d   1      53.305  29.575  53.969  0.00  0.00     0.058 A 
ATOM     17  C   UNL d   1      53.833  30.202  54.074  0.00  0.00     0.013 A 
ATOM     18 CL   UNL d   1      53.411  28.878  54.390  0.00  0.00    -0.082 Cl
ATOM     19  C   UNL d   1      53.719  30.899  53.648  0.00  0.00     0.020 A 
ENDBRANCH  12  13
ENDBRANCH   1  12
TORSDOF 3
ENDMDL
MODEL 2
REMARK VINA RESULT:      -8.6      2.203      4.334
REMARK  3 active torsions:
REMARK  status: ('A' for Active; 'I' for Inactive)
REMARK    1  A    between atoms: C_4  and  C_1 
REMARK    2  A    between atoms: N_7  and  C_4 
REMARK    3  A    between atoms: C_9  and  N_7 
ROOT
ATOM      1  C   UNL d   1      53.461  32.630  53.392  0.00  0.00     0.171 C 
ATOM      2  S   UNL d   1      54.229  32.932  53.356  0.00  0.00    -0.054 SA
ENDROOT
BRANCH   1   3
ATOM      3  C   UNL d   1      53.343  31.815  53.435  0.00  0.00     0.191 A 
ATOM      4  N   UNL d   1      52.869  31.369  52.926  0.00  0.00    -0.223 NA
ATOM      5  C   UNL d   1      52.909  30.579  53.169  0.00  0.00     0.101 A 
ATOM      6  C   UNL d   1      52.559  29.889  52.880  0.00  0.00     0.021 A 
ATOM      7  C   UNL d   1      53.410  30.542  53.828  0.00  0.00     0.101 A 
ATOM      8  C   UNL d   1      52.706  29.170  53.244  0.00  0.00     0.002 A 
ATOM      9  C   UNL d   1      53.206  29.133  53.903  0.00  0.00     0.002 A 
ATOM     10  C   UNL d   1      53.556  29.815  54.193  0.00  0.00     0.021 A 
ATOM     11  N   UNL d   1      53.675  31.310  53.988  0.00  0.00    -0.223 NA
ENDBRANCH   1   3
BRANCH   1  12
ATOM     12  N   UNL d   1      52.814  33.138  53.385  0.00  0.00    -0.232 NA
BRANCH  12  13
ATOM     13  C   UNL d   1      52.879  33.895  53.717  0.00  0.00     0.083 A 
ATOM     14  C   UNL d   1      52.802  34.561  53.240  0.00  0.00     0.020 A 
ATOM     15  C   UNL d   1      52.865  35.314  53.562  0.00  0.00     0.013 A 
ATOM     16  C   UNL d   1      53.007  35.397  54.378  0.00  0.00     0.058 A 
ATOM     17  C   UNL d   1      53.084  34.730  54.858  0.00  0.00     0.013 A 
ATOM     18 CL   UNL d   1      53.072  36.146  54.707  0.00  0.00    -0.082 Cl
ATOM     19  C   UNL d   1      53.019  33.980  54.520  0.00  0.00     0.020 A 
ENDBRANCH  12  13
ENDBRANCH   1  12
TORSDOF 3
ENDMDL
MODEL 3
REMARK VINA RESULT:      -8.5      2.685      4.517
REMARK  3 active torsions:
REMARK  status: ('A' for Active; 'I' for Inactive)
REMARK    1  A    between atoms: C_4  and  C_1 
REMARK    2  A    between atoms: N_7  and  C_4 
REMARK    3  A    between atoms: C_9  and  N_7 
ROOT
ATOM      1  C   UNL d   1      51.743  33.629  53.283  0.00  0.00     0.171 C 
ATOM      2  S   UNL d   1      51.220  32.990  53.281  0.00  0.00    -0.054 SA
ENDROOT
BRANCH   1   3
ATOM      3  C   UNL d   1      52.490  33.546  53.623  0.00  0.00     0.191 A 
ATOM      4  N   UNL d   1      53.131  33.147  53.287  0.00  0.00    -0.223 NA
ATOM      5  C   UNL d   1      53.767  33.199  53.814  0.00  0.00     0.101 A 
ATOM      6  C   UNL d   1      54.541  32.913  53.783  0.00  0.00     0.021 A 
ATOM      7  C   UNL d   1      53.514  33.632  54.474  0.00  0.00     0.101 A 
ATOM      8  C   UNL d   1      55.058  33.056  54.403  0.00  0.00     0.002 A 
ATOM      9  C   UNL d   1      54.804  33.488  55.063  0.00  0.00     0.002 A 
ATOM     10  C   UNL d   1      54.037  33.774  55.097  0.00  0.00     0.021 A 
ATOM     11  N   UNL d   1      52.723  33.843  54.350  0.00  0.00    -0.223 NA
ENDBRANCH   1   3
BRANCH   1  12
ATOM     12  N   UNL d   1      51.523  34.347  52.947  0.00  0.00    -0.232 NA
BRANCH  12  13
ATOM     13  C   UNL d   1      50.816  34.403  52.518  0.00  0.00     0.083 A 
ATOM     14  C   UNL d   1      50.119  34.616  52.901  0.00  0.00     0.020 A 
ATOM     15  C   UNL d   1      49.414  34.674  52.485  0.00  0.00     0.013 A 
ATOM     16  C   UNL d   1      49.411  34.515  51.668  0.00  0.00     0.058 A 
ATOM     17  C   UNL d   1      50.109  34.301  51.281  0.00  0.00     0.013 A 
ATOM     18 CL   UNL d   1      48.711  34.571  51.243  0.00  0.00    -0.082 Cl
ATOM     19  C   UNL d   1      50.809  34.247  51.714  0.00  0.00     0.020 A 
ENDBRANCH  12  13
ENDBRANCH   1  12
TORSDOF 3
ENDMDL
MODEL 4
REMARK VINA RESULT:      -7.8      2.292      2.754
REMARK  3 active torsions:
REMARK  status: ('A' for Active; 'I' for Inactive)
REMARK    1  A    between atoms: C_4  and  C_1 
REMARK    2  A    between atoms: N_7  and  C_4 
REMARK    3  A    between atoms: C_9  and  N_7 
ROOT
ATOM      1  C   UNL d   1      52.112  33.535  53.065  0.00  0.00     0.171 C 
ATOM      2  S   UNL d   1      52.168  32.735  53.263  0.00  0.00    -0.054 SA
ENDROOT
BRANCH   1   3
ATOM      3  C   UNL d   1      51.399  33.838  52.783  0.00  0.00     0.191 A 
ATOM      4  N   UNL d   1      51.155  33.840  51.994  0.00  0.00    -0.223 NA
ATOM      5  C   UNL d   1      50.408  34.195  51.960  0.00  0.00     0.101 A 
ATOM      6  C   UNL d   1      49.893  34.352  51.334  0.00  0.00     0.021 A 
ATOM      7  C   UNL d   1      50.196  34.411  52.732  0.00  0.00     0.101 A 
ATOM      8  C   UNL d   1      49.175  34.720  51.474  0.00  0.00     0.002 A 
ATOM      9  C   UNL d   1      48.962  34.935  52.245  0.00  0.00     0.002 A 
ATOM     10  C   UNL d   1      49.470  34.782  52.870  0.00  0.00     0.021 A 
ATOM     11  N   UNL d   1      50.812  34.187  53.236  0.00  0.00    -0.223 NA
ENDBRANCH   1   3
BRANCH   1  12
ATOM     12  N   UNL d   1      52.764  34.030  53.147  0.00  0.00    -0.232 NA
BRANCH  12  13
ATOM     13  C   UNL d   1      53.335  33.868  53.727  0.00  0.00     0.083 A 
ATOM     14  C   UNL d   1      53.324  34.280  54.439  0.00  0.00     0.020 A 
ATOM     15  C   UNL d   1      53.886  34.126  55.018  0.00  0.00     0.013 A 
ATOM     16  C   UNL d   1      54.468  33.548  54.877  0.00  0.00     0.058 A 
ATOM     17  C   UNL d   1      54.480  33.134  54.162  0.00  0.00     0.013 A 
ATOM     18 CL   UNL d   1      55.033  33.388  55.450  0.00  0.00    -0.082 Cl
ATOM     19  C   UNL d   1      53.909  33.300  53.590  0.00  0.00     0.020 A 
ENDBRANCH  12  13
ENDBRANCH   1  12
TORSDOF 3
ENDMDL
