MODEL 1
REMARK VINA RESULT:      77.4      0.000      0.000
REMARK  3 active torsions:
REMARK  status: ('A' for Active; 'I' for Inactive)
REMARK       I    between atoms: C_3  and  N_1 
REMARK    1  A    between atoms: C_5  and  C_3 
REMARK    2  A    between atoms: C_9  and  C_4 
REMARK    3  A    between atoms: C_14  and  C_6 
ROOT
ATOM      1  N   UNL d   1      59.087  49.544  52.119  0.00  0.00    -0.193 N 
ATOM      2  N   UNL d   1      59.289  49.583  52.927  0.00  0.00    -0.162 NA
ATOM      3  C   UNL d   1      59.642  49.538  51.513  0.00  0.00     0.303 C 
ATOM      4  C   UNL d   1      58.582  49.577  53.361  0.00  0.00     0.109 A 
ATOM      5  C   UNL d   1      58.259  49.514  52.078  0.00  0.00     0.088 A 
ATOM      6  C   UNL d   1      57.945  49.535  52.835  0.00  0.00     0.041 A 
ATOM      7  O   UNL d   1      59.403  49.497  50.705  0.00  0.00    -0.263 OA
ENDROOT
BRANCH   3   8
ATOM      8  C   UNL d   1      60.425  49.570  51.662  0.00  0.00     0.158 A 
ATOM      9  O   UNL d   1      60.777  49.611  52.418  0.00  0.00    -0.296 OA
ATOM     10  C   UNL d   1      61.593  49.635  52.319  0.00  0.00     0.134 A 
ATOM     11 BR   UNL d   1      62.165  49.678  52.947  0.00  0.00    -0.022 Br
ATOM     12  C   UNL d   1      61.745  49.610  51.526  0.00  0.00     0.034 A 
ATOM     13  C   UNL d   1      61.045  49.570  51.118  0.00  0.00     0.032 A 
ENDBRANCH   3   8
BRANCH   5  14
ATOM     14  C   UNL d   1      58.055  49.494  51.738  0.00  0.00     0.018 A 
ATOM     15  C   UNL d   1      58.385  49.269  51.016  0.00  0.00     0.002 A 
ATOM     16  C   UNL d   1      57.902  49.251  50.361  0.00  0.00     0.000 A 
ATOM     17  C   UNL d   1      57.114  49.442  50.382  0.00  0.00     0.000 A 
ATOM     18  C   UNL d   1      56.784  49.666  51.104  0.00  0.00     0.000 A 
ATOM     19  C   UNL d   1      56.633  49.423  49.727  0.00  0.00     0.000 C 
ATOM     20  C   UNL d   1      57.253  49.693  51.782  0.00  0.00     0.002 A 
ENDBRANCH   5  14
BRANCH   4  21
ATOM     21  C   UNL d   1      58.510  49.608  54.183  0.00  0.00     0.049 A 
ATOM     22  S   UNL d   1      57.795  49.651  54.564  0.00  0.00    -0.085 SA
ATOM     23  C   UNL d   1      57.974  49.671  55.387  0.00  0.00     0.035 A 
ATOM     24  C   UNL d   1      58.792  49.640  55.490  0.00  0.00     0.007 A 
ATOM     25  C   UNL d   1      59.106  49.601  54.729  0.00  0.00     0.009 A 
ENDBRANCH   4  21
TORSDOF 3
ENDMDL
