MODEL 1
REMARK VINA RESULT:       6.4      0.000      0.000
REMARK  6 active torsions:
REMARK  status: ('A' for Active; 'I' for Inactive)
REMARK    1  A    between atoms: C_8  and  C_3 
REMARK    2  A    between atoms: C_7  and  O_15 
REMARK    3  A    between atoms: S_9  and  C_8 
REMARK    4  A    between atoms: C_18  and  S_9 
REMARK    5  A    between atoms: O_15  and  C_19 
REMARK    6  A    between atoms: C_19  and  C_18 
ROOT
ATOM      1  S   UNL d   1      45.922 -16.301  44.501  0.00  0.00    -0.081 SA
ENDROOT
BRANCH   1   2
ATOM      2  C   UNL d   1      45.478 -15.643  44.284  0.00  0.00     0.074 C 
BRANCH   2   3
ATOM      3  C   UNL d   1      45.718 -14.892  44.516  0.00  0.00     0.169 A 
ATOM      4  N   UNL d   1      46.168 -14.338  44.955  0.00  0.00    -0.225 NA
ATOM      5  C   UNL d   1      45.933 -13.569  44.719  0.00  0.00     0.101 A 
ATOM      6  C   UNL d   1      45.342 -13.657  44.138  0.00  0.00     0.101 A 
ATOM      7  C   UNL d   1      46.168 -12.805  44.945  0.00  0.00     0.021 A 
ATOM      8  N   UNL d   1      45.204 -14.470  44.007  0.00  0.00    -0.225 NA
ATOM      9  C   UNL d   1      44.998 -12.980  43.794  0.00  0.00     0.021 A 
ATOM     10  C   UNL d   1      45.239 -12.236  44.027  0.00  0.00     0.002 A 
ATOM     11  C   UNL d   1      45.824 -12.149  44.602  0.00  0.00     0.002 A 
ENDBRANCH   2   3
ENDBRANCH   1   2
BRANCH   1  12
ATOM     12  C   UNL d   1      45.630 -17.058  44.359  0.00  0.00     0.062 C 
BRANCH  12  13
ATOM     13  C   UNL d   1      46.121 -17.634  44.035  0.00  0.00     0.130 C 
BRANCH  13  14
ATOM     14  O   UNL d   1      46.481 -18.186  44.532  0.00  0.00    -0.305 OA
BRANCH  14  15
ATOM     15  C   UNL d   1      46.505 -18.718  43.901  0.00  0.00     0.100 A 
ATOM     16  C   UNL d   1      46.620 -18.439  43.142  0.00  0.00     0.026 A 
ATOM     17  C   UNL d   1      46.645 -18.967  42.509  0.00  0.00     0.013 A 
ATOM     18  C   UNL d   1      46.553 -19.779  42.644  0.00  0.00     0.058 A 
ATOM     19  C   UNL d   1      46.438 -20.053  43.409  0.00  0.00     0.013 A 
ATOM     20 CL   UNL d   1      46.578 -20.310  42.013  0.00  0.00    -0.082 Cl
ATOM     21  C   UNL d   1      46.415 -19.518  44.037  0.00  0.00     0.026 A 
ENDBRANCH  14  15
ENDBRANCH  13  14
ENDBRANCH  12  13
ENDBRANCH   1  12
TORSDOF 6
ENDMDL
