MODEL 1
REMARK VINA RESULT:      -2.8      0.000      0.000
REMARK  2 active torsions:
REMARK  status: ('A' for Active; 'I' for Inactive)
REMARK    1  A    between atoms: N_6  and  C_4 
REMARK    2  A    between atoms: C_9  and  N_6 
ROOT
ATOM      1  S   UNL d   1      28.611  16.425 -23.606  0.00  0.00     0.216 S 
ATOM      2  C   UNL d   1      29.395  16.213 -23.763  0.00  0.00     0.121 A 
ATOM      3  C   UNL d   1      28.433  17.056 -24.083  0.00  0.00     0.142 A 
ATOM      4  C   UNL d   1      29.702  16.717 -24.340  0.00  0.00     0.132 A 
ATOM      5  C   UNL d   1      29.100  17.238 -24.534  0.00  0.00     0.225 A 
ATOM      6  O   UNL d   1      28.808  15.774 -23.121  0.00  0.00    -0.217 OA
ATOM      7  O   UNL d   1      27.849  16.468 -23.311  0.00  0.00    -0.217 OA
ATOM      8  O   UNL d   1      29.134  17.862 -25.097  0.00  0.00    -0.284 OA
ENDROOT
BRANCH   4   9
ATOM      9  N   UNL d   1      30.418  16.779 -24.707  0.00  0.00    -0.242 NA
BRANCH   9  10
ATOM     10  C   UNL d   1      31.116  16.592 -24.324  0.00  0.00     0.082 A 
ATOM     11  C   UNL d   1      31.424  15.851 -24.402  0.00  0.00     0.020 A 
ATOM     12  C   UNL d   1      32.145  15.663 -24.005  0.00  0.00     0.013 A 
ATOM     13  C   UNL d   1      32.517  16.229 -23.550  0.00  0.00     0.058 A 
ATOM     14  C   UNL d   1      32.213  16.982 -23.464  0.00  0.00     0.013 A 
ATOM     15 CL   UNL d   1      33.236  16.030 -23.158  0.00  0.00    -0.082 Cl
ATOM     16  C   UNL d   1      31.503  17.162 -23.857  0.00  0.00     0.020 A 
ENDBRANCH   9  10
ENDBRANCH   4   9
TORSDOF 2
ENDMDL
MODEL 2
REMARK VINA RESULT:      -2.7      1.463      1.992
REMARK  2 active torsions:
REMARK  status: ('A' for Active; 'I' for Inactive)
REMARK    1  A    between atoms: N_6  and  C_4 
REMARK    2  A    between atoms: C_9  and  N_6 
ROOT
ATOM      1  S   UNL d   1      29.228  17.051 -24.290  0.00  0.00     0.216 S 
ATOM      2  C   UNL d   1      29.981  17.313 -24.509  0.00  0.00     0.121 A 
ATOM      3  C   UNL d   1      29.321  16.341 -23.911  0.00  0.00     0.142 A 
ATOM      4  C   UNL d   1      30.542  16.761 -24.263  0.00  0.00     0.132 A 
ATOM      5  C   UNL d   1      30.126  16.160 -23.893  0.00  0.00     0.225 A 
ATOM      6  O   UNL d   1      29.146  17.784 -24.682  0.00  0.00    -0.217 OA
ATOM      7  O   UNL d   1      28.421  16.978 -24.169  0.00  0.00    -0.217 OA
ATOM      8  O   UNL d   1      30.447  15.464 -23.544  0.00  0.00    -0.284 OA
ENDROOT
BRANCH   4   9
ATOM      9  N   UNL d   1      31.346  16.715 -24.319  0.00  0.00    -0.242 NA
BRANCH   9  10
ATOM     10  C   UNL d   1      31.815  17.385 -24.327  0.00  0.00     0.082 A 
ATOM     11  C   UNL d   1      32.043  17.700 -25.033  0.00  0.00     0.020 A 
ATOM     12  C   UNL d   1      32.527  18.391 -25.037  0.00  0.00     0.013 A 
ATOM     13  C   UNL d   1      32.757  18.730 -24.331  0.00  0.00     0.058 A 
ATOM     14  C   UNL d   1      32.532  18.418 -23.610  0.00  0.00     0.013 A 
ATOM     15 CL   UNL d   1      33.241  19.419 -24.346  0.00  0.00    -0.082 Cl
ATOM     16  C   UNL d   1      32.055  17.737 -23.612  0.00  0.00     0.020 A 
ENDBRANCH   9  10
ENDBRANCH   4   9
TORSDOF 2
ENDMDL
MODEL 3
REMARK VINA RESULT:      -2.6      2.283      3.286
REMARK  2 active torsions:
REMARK  status: ('A' for Active; 'I' for Inactive)
REMARK    1  A    between atoms: N_6  and  C_4 
REMARK    2  A    between atoms: C_9  and  N_6 
ROOT
ATOM      1  S   UNL d   1      32.059  16.969 -23.664  0.00  0.00     0.216 S 
ATOM      2  C   UNL d   1      31.346  16.613 -23.883  0.00  0.00     0.121 A 
ATOM      3  C   UNL d   1      32.125  17.656 -24.089  0.00  0.00     0.142 A 
ATOM      4  C   UNL d   1      30.970  17.083 -24.447  0.00  0.00     0.132 A 
ATOM      5  C   UNL d   1      31.459  17.730 -24.571  0.00  0.00     0.225 A 
ATOM      6  O   UNL d   1      31.978  16.259 -23.232  0.00  0.00    -0.217 OA
ATOM      7  O   UNL d   1      32.779  17.147 -23.318  0.00  0.00    -0.217 OA
ATOM      8  O   UNL d   1      31.324  18.372 -25.097  0.00  0.00    -0.284 OA
ENDROOT
BRANCH   4   9
ATOM      9  N   UNL d   1      30.277  17.024 -24.856  0.00  0.00    -0.242 NA
BRANCH   9  10
ATOM     10  C   UNL d   1      29.624  16.642 -24.543  0.00  0.00     0.082 A 
ATOM     11  C   UNL d   1      29.137  17.039 -24.038  0.00  0.00     0.020 A 
ATOM     12  C   UNL d   1      28.466  16.640 -23.718  0.00  0.00     0.013 A 
ATOM     13  C   UNL d   1      28.319  15.864 -23.922  0.00  0.00     0.058 A 
ATOM     14  C   UNL d   1      28.806  15.453 -24.432  0.00  0.00     0.013 A 
ATOM     15 CL   UNL d   1      27.646  15.476 -23.596  0.00  0.00    -0.082 Cl
ATOM     16  C   UNL d   1      29.467  15.850 -24.745  0.00  0.00     0.020 A 
ENDBRANCH   9  10
ENDBRANCH   4   9
TORSDOF 2
ENDMDL
MODEL 4
REMARK VINA RESULT:      -2.6      2.918      3.698
REMARK  2 active torsions:
REMARK  status: ('A' for Active; 'I' for Inactive)
REMARK    1  A    between atoms: N_6  and  C_4 
REMARK    2  A    between atoms: C_9  and  N_6 
ROOT
ATOM      1  S   UNL d   1      33.059  19.279 -22.879  0.00  0.00     0.216 S 
ATOM      2  C   UNL d   1      32.846  18.489 -22.998  0.00  0.00     0.121 A 
ATOM      3  C   UNL d   1      33.196  19.603 -23.609  0.00  0.00     0.142 A 
ATOM      4  C   UNL d   1      32.852  18.325 -23.807  0.00  0.00     0.132 A 
ATOM      5  C   UNL d   1      33.070  19.022 -24.181  0.00  0.00     0.225 A 
ATOM      6  O   UNL d   1      32.914  18.932 -22.133  0.00  0.00    -0.217 OA
ATOM      7  O   UNL d   1      33.241  20.007 -22.552  0.00  0.00    -0.217 OA
ATOM      8  O   UNL d   1      33.158  19.145 -25.008  0.00  0.00    -0.284 OA
ENDROOT
BRANCH   4   9
ATOM      9  N   UNL d   1      32.696  17.668 -24.247  0.00  0.00    -0.242 NA
BRANCH   9  10
ATOM     10  C   UNL d   1      32.130  17.123 -24.022  0.00  0.00     0.082 A 
ATOM     11  C   UNL d   1      32.351  16.474 -23.599  0.00  0.00     0.020 A 
ATOM     12  C   UNL d   1      31.763  15.914 -23.368  0.00  0.00     0.013 A 
ATOM     13  C   UNL d   1      30.983  16.037 -23.575  0.00  0.00     0.058 A 
ATOM     14  C   UNL d   1      30.748  16.691 -24.004  0.00  0.00     0.013 A 
ATOM     15 CL   UNL d   1      30.404  15.472 -23.339  0.00  0.00    -0.082 Cl
ATOM     16  C   UNL d   1      31.332  17.239 -24.228  0.00  0.00     0.020 A 
ENDBRANCH   9  10
ENDBRANCH   4   9
TORSDOF 2
ENDMDL
MODEL 5
REMARK VINA RESULT:      -2.3      3.394      4.217
REMARK  2 active torsions:
REMARK  status: ('A' for Active; 'I' for Inactive)
REMARK    1  A    between atoms: N_6  and  C_4 
REMARK    2  A    between atoms: C_9  and  N_6 
ROOT
ATOM      1  S   UNL d   1      33.212  20.059 -22.233  0.00  0.00     0.216 S 
ATOM      2  C   UNL d   1      33.181  19.273 -22.485  0.00  0.00     0.121 A 
ATOM      3  C   UNL d   1      33.237  20.523 -22.897  0.00  0.00     0.142 A 
ATOM      4  C   UNL d   1      33.187  19.251 -23.310  0.00  0.00     0.132 A 
ATOM      5  C   UNL d   1      33.222  20.031 -23.560  0.00  0.00     0.225 A 
ATOM      6  O   UNL d   1      33.186  19.570 -21.558  0.00  0.00    -0.217 OA
ATOM      7  O   UNL d   1      33.237  20.746 -21.787  0.00  0.00    -0.217 OA
ATOM      8  O   UNL d   1      33.240  20.307 -24.355  0.00  0.00    -0.284 OA
ENDROOT
BRANCH   4   9
ATOM      9  N   UNL d   1      33.167  18.658 -23.856  0.00  0.00    -0.242 NA
BRANCH   9  10
ATOM     10  C   UNL d   1      32.704  17.992 -23.750  0.00  0.00     0.082 A 
ATOM     11  C   UNL d   1      31.950  17.983 -24.036  0.00  0.00     0.020 A 
ATOM     12  C   UNL d   1      31.477  17.294 -23.924  0.00  0.00     0.013 A 
ATOM     13  C   UNL d   1      31.785  16.649 -23.531  0.00  0.00     0.058 A 
ATOM     14  C   UNL d   1      32.548  16.647 -23.237  0.00  0.00     0.013 A 
ATOM     15 CL   UNL d   1      31.303  15.966 -23.425  0.00  0.00    -0.082 Cl
ATOM     16  C   UNL d   1      33.010  17.329 -23.350  0.00  0.00     0.020 A 
ENDBRANCH   9  10
ENDBRANCH   4   9
TORSDOF 2
ENDMDL
MODEL 6
REMARK VINA RESULT:      -2.2      7.551      8.185
REMARK  2 active torsions:
REMARK  status: ('A' for Active; 'I' for Inactive)
REMARK    1  A    between atoms: N_6  and  C_4 
REMARK    2  A    between atoms: C_9  and  N_6 
ROOT
ATOM      1  S   UNL d   1      32.240  21.514 -20.842  0.00  0.00     0.216 S 
ATOM      2  C   UNL d   1      32.521  21.949 -20.197  0.00  0.00     0.121 A 
ATOM      3  C   UNL d   1      31.983  22.046 -21.397  0.00  0.00     0.142 A 
ATOM      4  C   UNL d   1      32.437  22.754 -20.355  0.00  0.00     0.132 A 
ATOM      5  C   UNL d   1      32.102  22.808 -21.102  0.00  0.00     0.225 A 
ATOM      6  O   UNL d   1      32.509  20.977 -20.261  0.00  0.00    -0.217 OA
ATOM      7  O   UNL d   1      32.021  20.915 -21.355  0.00  0.00    -0.217 OA
ATOM      8  O   UNL d   1      31.904  23.512 -21.517  0.00  0.00    -0.284 OA
ENDROOT
BRANCH   4   9
ATOM      9  N   UNL d   1      32.608  23.427 -19.946  0.00  0.00    -0.242 NA
BRANCH   9  10
ATOM     10  C   UNL d   1      32.565  23.457 -19.130  0.00  0.00     0.082 A 
ATOM     11  C   UNL d   1      31.862  23.634 -18.777  0.00  0.00     0.020 A 
ATOM     12  C   UNL d   1      31.821  23.664 -17.935  0.00  0.00     0.013 A 
ATOM     13  C   UNL d   1      32.490  23.514 -17.491  0.00  0.00     0.058 A 
ATOM     14  C   UNL d   1      33.207  23.334 -17.838  0.00  0.00     0.013 A 
ATOM     15 CL   UNL d   1      32.438  23.547 -16.651  0.00  0.00    -0.082 Cl
ATOM     16  C   UNL d   1      33.241  23.306 -18.669  0.00  0.00     0.020 A 
ENDBRANCH   9  10
ENDBRANCH   4   9
TORSDOF 2
ENDMDL
MODEL 7
REMARK VINA RESULT:      -1.9      4.928      5.892
REMARK  2 active torsions:
REMARK  status: ('A' for Active; 'I' for Inactive)
REMARK    1  A    between atoms: N_6  and  C_4 
REMARK    2  A    between atoms: C_9  and  N_6 
ROOT
ATOM      1  S   UNL d   1      33.213  19.681 -23.802  0.00  0.00     0.216 S 
ATOM      2  C   UNL d   1      33.238  20.287 -23.240  0.00  0.00     0.121 A 
ATOM      3  C   UNL d   1      33.186  18.979 -23.397  0.00  0.00     0.142 A 
ATOM      4  C   UNL d   1      33.227  19.957 -22.484  0.00  0.00     0.132 A 
ATOM      5  C   UNL d   1      33.194  19.144 -22.589  0.00  0.00     0.225 A 
ATOM      6  O   UNL d   1      33.241  20.411 -24.206  0.00  0.00    -0.217 OA
ATOM      7  O   UNL d   1      33.194  19.249 -24.497  0.00  0.00    -0.217 OA
ATOM      8  O   UNL d   1      33.172  18.558 -21.986  0.00  0.00    -0.284 OA
ENDROOT
BRANCH   4   9
ATOM      9  N   UNL d   1      33.241  20.262 -21.737  0.00  0.00    -0.242 NA
BRANCH   9  10
ATOM     10  C   UNL d   1      32.921  20.996 -21.567  0.00  0.00     0.082 A 
ATOM     11  C   UNL d   1      32.296  21.048 -21.062  0.00  0.00     0.020 A 
ATOM     12  C   UNL d   1      31.970  21.807 -20.889  0.00  0.00     0.013 A 
ATOM     13  C   UNL d   1      32.290  22.474 -21.234  0.00  0.00     0.058 A 
ATOM     14  C   UNL d   1      32.924  22.432 -21.747  0.00  0.00     0.013 A 
ATOM     15 CL   UNL d   1      31.956  23.226 -21.054  0.00  0.00    -0.082 Cl
ATOM     16  C   UNL d   1      33.241  21.682 -21.914  0.00  0.00     0.020 A 
ENDBRANCH   9  10
ENDBRANCH   4   9
TORSDOF 2
ENDMDL
MODEL 8
REMARK VINA RESULT:      -1.8      4.790      5.480
REMARK  2 active torsions:
REMARK  status: ('A' for Active; 'I' for Inactive)
REMARK    1  A    between atoms: N_6  and  C_4 
REMARK    2  A    between atoms: C_9  and  N_6 
ROOT
ATOM      1  S   UNL d   1      32.031  21.924 -21.060  0.00  0.00     0.216 S 
ATOM      2  C   UNL d   1      32.340  21.226 -21.378  0.00  0.00     0.121 A 
ATOM      3  C   UNL d   1      32.306  22.537 -21.515  0.00  0.00     0.142 A 
ATOM      4  C   UNL d   1      32.808  21.409 -22.033  0.00  0.00     0.132 A 
ATOM      5  C   UNL d   1      32.782  22.225 -22.112  0.00  0.00     0.225 A 
ATOM      6  O   UNL d   1      31.756  21.284 -20.601  0.00  0.00    -0.217 OA
ATOM      7  O   UNL d   1      31.635  22.477 -20.605  0.00  0.00    -0.217 OA
ATOM      8  O   UNL d   1      33.170  22.687 -22.698  0.00  0.00    -0.284 OA
ENDROOT
BRANCH   4   9
ATOM      9  N   UNL d   1      33.241  20.971 -22.553  0.00  0.00    -0.242 NA
BRANCH   9  10
ATOM     10  C   UNL d   1      33.120  20.167 -22.643  0.00  0.00     0.082 A 
ATOM     11  C   UNL d   1      33.241  19.675 -22.016  0.00  0.00     0.020 A 
ATOM     12  C   UNL d   1      33.115  18.847 -22.114  0.00  0.00     0.013 A 
ATOM     13  C   UNL d   1      32.873  18.556 -22.837  0.00  0.00     0.058 A 
ATOM     14  C   UNL d   1      32.747  19.045 -23.479  0.00  0.00     0.013 A 
ATOM     15 CL   UNL d   1      32.750  17.727 -22.923  0.00  0.00    -0.082 Cl
ATOM     16  C   UNL d   1      32.873  19.861 -23.377  0.00  0.00     0.020 A 
ENDBRANCH   9  10
ENDBRANCH   4   9
TORSDOF 2
ENDMDL
