MODEL 1
REMARK VINA RESULT:      40.6      0.000      0.000
REMARK  3 active torsions:
REMARK  status: ('A' for Active; 'I' for Inactive)
REMARK    1  A    between atoms: S_3  and  N_1 
REMARK    2  A    between atoms: C_5  and  C_4 
REMARK    3  A    between atoms: C_11  and  C_6 
ROOT
ATOM      1  N   UNL d   1      14.863  13.290  -1.041  0.00  0.00    -0.155 N 
ATOM      2  N   UNL d   1      15.166  13.922  -0.625  0.00  0.00    -0.153 NA
ATOM      3  C   UNL d   1      14.426  13.577  -1.660  0.00  0.00     0.098 A 
ATOM      4  C   UNL d   1      14.910  14.604  -0.993  0.00  0.00     0.126 A 
ATOM      5  C   UNL d   1      14.452  14.400  -1.633  0.00  0.00     0.043 A 
ENDROOT
BRANCH   3   6
ATOM      6  C   UNL d   1      14.022  13.128  -2.222  0.00  0.00     0.047 A 
ATOM      7  C   UNL d   1      13.633  12.436  -1.994  0.00  0.00     0.140 A 
ATOM      8  N   UNL d   1      13.229  11.987  -2.559  0.00  0.00    -0.234 NA
ATOM      9 CL   UNL d   1      13.648  12.194  -1.207  0.00  0.00    -0.061 Cl
ATOM     10  C   UNL d   1      13.213  12.228  -3.348  0.00  0.00     0.082 A 
ATOM     11  C   UNL d   1      13.602  12.921  -3.575  0.00  0.00     0.018 A 
ATOM     12  C   UNL d   1      12.809  11.779  -3.909  0.00  0.00     0.019 A 
ATOM     13  C   UNL d   1      14.006  13.370  -3.012  0.00  0.00     0.005 A 
ATOM     14  C   UNL d   1      13.586  13.162  -4.363  0.00  0.00     0.002 A 
ATOM     15  C   UNL d   1      13.191  12.718  -4.897  0.00  0.00     0.000 A 
ATOM     16  C   UNL d   1      12.802  12.025  -4.670  0.00  0.00     0.002 A 
ATOM     17  C   UNL d   1      13.176  12.959  -5.686  0.00  0.00     0.000 C 
ENDBRANCH   3   6
BRANCH   1  18
ATOM     18  S   UNL d   1      15.212  12.742  -0.545  0.00  0.00     0.266 S 
ATOM     19  O   UNL d   1      15.914  12.903  -0.158  0.00  0.00    -0.203 OA
ATOM     20  O   UNL d   1      14.709  12.087  -0.560  0.00  0.00    -0.203 OA
ATOM     21  C   UNL d   1      15.393  12.071  -0.099  0.00  0.00     0.165 C 
ENDBRANCH   1  18
BRANCH   4  22
ATOM     22  C   UNL d   1      15.083  15.364  -0.759  0.00  0.00     0.119 A 
ATOM     23  O   UNL d   1      15.281  15.622  -0.014  0.00  0.00    -0.304 OA
ATOM     24  C   UNL d   1      15.409  16.426  -0.030  0.00  0.00     0.123 A 
ATOM     25  C   UNL d   1      15.293  16.687  -0.793  0.00  0.00     0.029 A 
ATOM     26  C   UNL d   1      15.090  16.042  -1.259  0.00  0.00     0.028 A 
ENDBRANCH   4  22
TORSDOF 3
ENDMDL
