MODEL 1
REMARK VINA RESULT:      -2.1      0.000      0.000
REMARK  5 active torsions:
REMARK  status: ('A' for Active; 'I' for Inactive)
REMARK    1  A    between atoms: C_10  and  N_3 
REMARK    2  A    between atoms: C_14  and  N_6 
REMARK    3  A    between atoms: C_9  and  C_7 
REMARK    4  A    between atoms: O_23  and  C_20 
REMARK    5  A    between atoms: C_26  and  O_23 
ROOT
ATOM      1  C   UNL d   1      57.475  -0.745  31.002  0.00  0.00     0.105 A 
ATOM      2  C   UNL d   1      57.308  -1.504  31.323  0.00  0.00     0.186 A 
ATOM      3  N   UNL d   1      56.672  -0.602  32.062  0.00  0.00    -0.240 N 
ATOM      4  C   UNL d   1      56.826  -1.393  31.956  0.00  0.00     0.292 A 
ATOM      5  C   UNL d   1      57.084  -0.191  31.456  0.00  0.00     0.271 A 
ATOM      6  N   UNL d   1      58.121  -1.659  30.250  0.00  0.00    -0.212 N 
ATOM      7  C   UNL d   1      57.966  -0.873  30.358  0.00  0.00     0.100 A 
ATOM      8  O   UNL d   1      57.701  -2.074  30.867  0.00  0.00    -0.223 OA
ATOM      9  O   UNL d   1      57.107   0.627  31.321  0.00  0.00    -0.266 OA
ATOM     10  O   UNL d   1      56.528  -1.999  32.433  0.00  0.00    -0.264 OA
ENDROOT
BRANCH   3  11
ATOM     11  C   UNL d   1      56.198  -0.280  32.657  0.00  0.00     0.070 A 
ATOM     12  C   UNL d   1      55.442  -0.576  32.773  0.00  0.00     0.020 A 
ATOM     13  C   UNL d   1      54.954  -0.263  33.367  0.00  0.00     0.026 A 
ATOM     14  C   UNL d   1      55.244   0.356  33.843  0.00  0.00     0.100 A 
ATOM     15  C   UNL d   1      55.994   0.648  33.726  0.00  0.00     0.026 A 
ATOM     16  C   UNL d   1      56.459   0.325  33.134  0.00  0.00     0.020 A 
BRANCH  14  17
ATOM     17  O   UNL d   1      54.777   0.682  34.438  0.00  0.00    -0.305 OA
BRANCH  17  18
ATOM     18  C   UNL d   1      54.976   0.540  35.227  0.00  0.00     0.123 C 
ATOM     19  C   UNL d   1      54.429   0.659  35.822  0.00  0.00     0.029 C 
ENDBRANCH  17  18
ENDBRANCH  14  17
ENDBRANCH   3  11
BRANCH   7  20
ATOM     20  C   UNL d   1      58.263  -0.268  29.881  0.00  0.00     0.048 A 
ATOM     21  S   UNL d   1      59.032   0.100  29.925  0.00  0.00    -0.085 SA
ATOM     22  C   UNL d   1      59.054   0.663  29.337  0.00  0.00     0.035 A 
ATOM     23  C   UNL d   1      58.365   0.682  28.925  0.00  0.00     0.007 A 
ATOM     24  C   UNL d   1      57.851   0.091  29.264  0.00  0.00     0.009 A 
ENDBRANCH   7  20
BRANCH   6  25
ATOM     25  C   UNL d   1      58.598  -1.979  29.650  0.00  0.00     0.088 A 
ATOM     26  C   UNL d   1      58.280  -2.486  29.088  0.00  0.00     0.020 A 
ATOM     27  C   UNL d   1      58.757  -2.811  28.482  0.00  0.00     0.002 A 
ATOM     28  C   UNL d   1      59.561  -2.612  28.456  0.00  0.00     0.000 A 
ATOM     29  C   UNL d   1      59.880  -2.099  29.026  0.00  0.00     0.002 A 
ATOM     30  C   UNL d   1      59.390  -1.787  29.619  0.00  0.00     0.020 A 
ENDBRANCH   6  25
TORSDOF 5
ENDMDL
MODEL 2
REMARK VINA RESULT:      -0.5      1.153      1.949
REMARK  5 active torsions:
REMARK  status: ('A' for Active; 'I' for Inactive)
REMARK    1  A    between atoms: C_10  and  N_3 
REMARK    2  A    between atoms: C_14  and  N_6 
REMARK    3  A    between atoms: C_9  and  C_7 
REMARK    4  A    between atoms: O_23  and  C_20 
REMARK    5  A    between atoms: C_26  and  O_23 
ROOT
ATOM      1  C   UNL d   1      58.091  -0.869  30.706  0.00  0.00     0.105 A 
ATOM      2  C   UNL d   1      58.426  -0.192  31.072  0.00  0.00     0.186 A 
ATOM      3  N   UNL d   1      57.284  -0.463  31.692  0.00  0.00    -0.240 N 
ATOM      4  C   UNL d   1      57.926   0.034  31.659  0.00  0.00     0.292 A 
ATOM      5  C   UNL d   1      57.388  -1.036  31.087  0.00  0.00     0.271 A 
ATOM      6  N   UNL d   1      59.250  -0.596  30.074  0.00  0.00    -0.212 N 
ATOM      7  C   UNL d   1      58.610  -1.087  30.110  0.00  0.00     0.100 A 
ATOM      8  O   UNL d   1      59.141  -0.014  30.690  0.00  0.00    -0.223 OA
ATOM      9  O   UNL d   1      56.886  -1.666  30.892  0.00  0.00    -0.266 OA
ATOM     10  O   UNL d   1      58.048   0.680  32.159  0.00  0.00    -0.264 OA
ENDROOT
BRANCH   3  11
ATOM     11  C   UNL d   1      56.656  -0.402  32.226  0.00  0.00     0.070 A 
ATOM     12  C   UNL d   1      56.501   0.320  32.581  0.00  0.00     0.020 A 
ATOM     13  C   UNL d   1      55.874   0.398  33.120  0.00  0.00     0.026 A 
ATOM     14  C   UNL d   1      55.406  -0.270  33.293  0.00  0.00     0.100 A 
ATOM     15  C   UNL d   1      55.562  -0.985  32.939  0.00  0.00     0.026 A 
ATOM     16  C   UNL d   1      56.186  -1.039  32.411  0.00  0.00     0.020 A 
BRANCH  14  17
ATOM     17  O   UNL d   1      54.779  -0.216  33.824  0.00  0.00    -0.305 OA
BRANCH  17  18
ATOM     18  C   UNL d   1      54.806   0.355  34.420  0.00  0.00     0.123 C 
ATOM     19  C   UNL d   1      54.149   0.508  34.882  0.00  0.00     0.029 C 
ENDBRANCH  17  18
ENDBRANCH  14  17
ENDBRANCH   3  11
BRANCH   7  20
ATOM     20  C   UNL d   1      58.488  -1.734  29.610  0.00  0.00     0.048 A 
ATOM     21  S   UNL d   1      58.561  -2.562  29.802  0.00  0.00    -0.085 SA
ATOM     22  C   UNL d   1      58.384  -2.974  29.122  0.00  0.00     0.035 A 
ATOM     23  C   UNL d   1      58.206  -2.477  28.517  0.00  0.00     0.007 A 
ATOM     24  C   UNL d   1      58.268  -1.681  28.817  0.00  0.00     0.009 A 
ENDBRANCH   7  20
BRANCH   6  25
ATOM     25  C   UNL d   1      59.878  -0.660  29.536  0.00  0.00     0.088 A 
ATOM     26  C   UNL d   1      60.365  -1.322  29.537  0.00  0.00     0.020 A 
ATOM     27  C   UNL d   1      61.000  -1.391  28.996  0.00  0.00     0.002 A 
ATOM     28  C   UNL d   1      61.133  -0.777  28.455  0.00  0.00     0.000 A 
ATOM     29  C   UNL d   1      60.640  -0.109  28.457  0.00  0.00     0.002 A 
ATOM     30  C   UNL d   1      60.015  -0.060  29.001  0.00  0.00     0.020 A 
ENDBRANCH   6  25
TORSDOF 5
ENDMDL
