MODEL 1
REMARK VINA RESULT:      -3.2      0.000      0.000
REMARK  2 active torsions:
REMARK  status: ('A' for Active; 'I' for Inactive)
REMARK    1  A    between atoms: C_5  and  N_1 
REMARK    2  A    between atoms: C_7  and  C_5 
ROOT
ATOM      1  N   UNL d   1      31.349  16.768 -24.445  0.00  0.00    -0.251 N 
ATOM      2  C   UNL d   1      31.698  16.054 -24.650  0.00  0.00     0.378 A 
ATOM      3  O   UNL d   1      32.459  16.037 -24.330  0.00  0.00    -0.258 OA
ATOM      4  C   UNL d   1      31.897  17.200 -23.995  0.00  0.00     0.092 A 
ATOM      5  C   UNL d   1      32.581  16.747 -23.925  0.00  0.00     0.121 A 
ATOM      6  O   UNL d   1      31.352  15.453 -25.097  0.00  0.00    -0.237 OA
ATOM      7  C   UNL d   1      31.848  17.944 -23.646  0.00  0.00     0.020 A 
ATOM      8  C   UNL d   1      33.226  17.044 -23.499  0.00  0.00     0.026 A 
ATOM      9  C   UNL d   1      32.493  18.239 -23.222  0.00  0.00     0.002 A 
ATOM     10  C   UNL d   1      33.180  17.790 -23.149  0.00  0.00     0.002 A 
ENDROOT
BRANCH   1  11
ATOM     11  C   UNL d   1      30.588  17.018 -24.649  0.00  0.00     0.086 C 
BRANCH  11  12
ATOM     12  C   UNL d   1      29.942  16.733 -24.235  0.00  0.00     0.028 A 
ATOM     13  C   UNL d   1      29.191  17.057 -24.362  0.00  0.00     0.059 A 
ATOM     14 CL   UNL d   1      29.131  17.671 -24.918  0.00  0.00    -0.082 Cl
ATOM     15  C   UNL d   1      28.547  16.770 -23.947  0.00  0.00     0.011 A 
ATOM     16  C   UNL d   1      28.642  16.154 -23.397  0.00  0.00     0.001 A 
ATOM     17  C   UNL d   1      29.392  15.829 -23.269  0.00  0.00     0.000 A 
ATOM     18  C   UNL d   1      30.038  16.119 -23.688  0.00  0.00     0.002 A 
ENDBRANCH  11  12
ENDBRANCH   1  11
TORSDOF 2
ENDMDL
MODEL 2
REMARK VINA RESULT:      -3.2      1.253      3.250
REMARK  2 active torsions:
REMARK  status: ('A' for Active; 'I' for Inactive)
REMARK    1  A    between atoms: C_5  and  N_1 
REMARK    2  A    between atoms: C_7  and  C_5 
ROOT
ATOM      1  N   UNL d   1      31.850  16.916 -24.103  0.00  0.00    -0.251 N 
ATOM      2  C   UNL d   1      32.148  16.255 -23.719  0.00  0.00     0.378 A 
ATOM      3  O   UNL d   1      31.511  15.785 -23.483  0.00  0.00    -0.258 OA
ATOM      4  C   UNL d   1      31.022  16.858 -24.107  0.00  0.00     0.092 A 
ATOM      5  C   UNL d   1      30.815  16.159 -23.724  0.00  0.00     0.121 A 
ATOM      6  O   UNL d   1      32.944  16.084 -23.588  0.00  0.00    -0.237 OA
ATOM      7  C   UNL d   1      30.443  17.357 -24.412  0.00  0.00     0.020 A 
ATOM      8  C   UNL d   1      30.016  15.957 -23.646  0.00  0.00     0.026 A 
ATOM      9  C   UNL d   1      29.646  17.153 -24.333  0.00  0.00     0.002 A 
ATOM     10  C   UNL d   1      29.434  16.456 -23.951  0.00  0.00     0.002 A 
ENDROOT
BRANCH   1  11
ATOM     11  C   UNL d   1      32.292  17.533 -24.429  0.00  0.00     0.086 C 
BRANCH  11  12
ATOM     12  C   UNL d   1      32.606  18.111 -23.943  0.00  0.00     0.028 A 
ATOM     13  C   UNL d   1      32.928  18.800 -24.268  0.00  0.00     0.059 A 
ATOM     14 CL   UNL d   1      32.915  18.871 -25.097  0.00  0.00    -0.082 Cl
ATOM     15  C   UNL d   1      33.240  19.376 -23.780  0.00  0.00     0.011 A 
ATOM     16  C   UNL d   1      33.237  19.274 -22.954  0.00  0.00     0.001 A 
ATOM     17  C   UNL d   1      32.916  18.586 -22.627  0.00  0.00     0.000 A 
ATOM     18  C   UNL d   1      32.602  18.008 -23.121  0.00  0.00     0.002 A 
ENDBRANCH  11  12
ENDBRANCH   1  11
TORSDOF 2
ENDMDL
MODEL 3
REMARK VINA RESULT:      -2.9      2.137      3.109
REMARK  2 active torsions:
REMARK  status: ('A' for Active; 'I' for Inactive)
REMARK    1  A    between atoms: C_5  and  N_1 
REMARK    2  A    between atoms: C_7  and  C_5 
ROOT
ATOM      1  N   UNL d   1      33.240  18.546 -23.621  0.00  0.00    -0.251 N 
ATOM      2  C   UNL d   1      33.240  18.972 -24.323  0.00  0.00     0.378 A 
ATOM      3  O   UNL d   1      33.240  19.776 -24.137  0.00  0.00    -0.258 OA
ATOM      4  C   UNL d   1      33.240  19.090 -22.993  0.00  0.00     0.092 A 
ATOM      5  C   UNL d   1      33.240  19.848 -23.314  0.00  0.00     0.121 A 
ATOM      6  O   UNL d   1      33.240  18.656 -25.085  0.00  0.00    -0.237 OA
ATOM      7  C   UNL d   1      33.240  18.979 -22.177  0.00  0.00     0.020 A 
ATOM      8  C   UNL d   1      33.240  20.505 -22.810  0.00  0.00     0.026 A 
ATOM      9  C   UNL d   1      33.240  19.635 -21.676  0.00  0.00     0.002 A 
ATOM     10  C   UNL d   1      33.240  20.396 -21.992  0.00  0.00     0.002 A 
ENDROOT
BRANCH   1  11
ATOM     11  C   UNL d   1      33.241  17.724 -23.547  0.00  0.00     0.086 C 
BRANCH  11  12
ATOM     12  C   UNL d   1      32.543  17.306 -23.641  0.00  0.00     0.028 A 
ATOM     13  C   UNL d   1      32.526  16.489 -23.513  0.00  0.00     0.059 A 
ATOM     14 CL   UNL d   1      33.239  16.125 -23.288  0.00  0.00    -0.082 Cl
ATOM     15  C   UNL d   1      31.828  16.075 -23.608  0.00  0.00     0.011 A 
ATOM     16  C   UNL d   1      31.132  16.470 -23.834  0.00  0.00     0.001 A 
ATOM     17  C   UNL d   1      31.147  17.286 -23.963  0.00  0.00     0.000 A 
ATOM     18  C   UNL d   1      31.851  17.702 -23.867  0.00  0.00     0.002 A 
ENDBRANCH  11  12
ENDBRANCH   1  11
TORSDOF 2
ENDMDL
MODEL 4
REMARK VINA RESULT:      -2.1      1.568      2.148
REMARK  2 active torsions:
REMARK  status: ('A' for Active; 'I' for Inactive)
REMARK    1  A    between atoms: C_5  and  N_1 
REMARK    2  A    between atoms: C_7  and  C_5 
ROOT
ATOM      1  N   UNL d   1      32.466  17.563 -24.071  0.00  0.00    -0.251 N 
ATOM      2  C   UNL d   1      32.563  17.494 -23.258  0.00  0.00     0.378 A 
ATOM      3  O   UNL d   1      32.860  18.209 -22.973  0.00  0.00    -0.258 OA
ATOM      4  C   UNL d   1      32.704  18.327 -24.292  0.00  0.00     0.092 A 
ATOM      5  C   UNL d   1      32.947  18.724 -23.613  0.00  0.00     0.121 A 
ATOM      6  O   UNL d   1      32.394  16.828 -22.801  0.00  0.00    -0.237 OA
ATOM      7  C   UNL d   1      32.726  18.698 -25.027  0.00  0.00     0.020 A 
ATOM      8  C   UNL d   1      33.217  19.505 -23.671  0.00  0.00     0.026 A 
ATOM      9  C   UNL d   1      32.995  19.477 -25.081  0.00  0.00     0.002 A 
ATOM     10  C   UNL d   1      33.240  19.879 -24.406  0.00  0.00     0.002 A 
ENDROOT
BRANCH   1  11
ATOM     11  C   UNL d   1      32.181  16.979 -24.581  0.00  0.00     0.086 C 
BRANCH  11  12
ATOM     12  C   UNL d   1      31.384  16.798 -24.588  0.00  0.00     0.028 A 
ATOM     13  C   UNL d   1      31.127  16.055 -24.846  0.00  0.00     0.059 A 
ATOM     14 CL   UNL d   1      31.711  15.516 -25.091  0.00  0.00    -0.082 Cl
ATOM     15  C   UNL d   1      30.330  15.876 -24.852  0.00  0.00     0.011 A 
ATOM     16  C   UNL d   1      29.771  16.438 -24.600  0.00  0.00     0.001 A 
ATOM     17  C   UNL d   1      30.025  17.182 -24.341  0.00  0.00     0.000 A 
ATOM     18  C   UNL d   1      30.829  17.359 -24.336  0.00  0.00     0.002 A 
ENDBRANCH  11  12
ENDBRANCH   1  11
TORSDOF 2
ENDMDL
MODEL 5
REMARK VINA RESULT:      -0.9      2.820      3.990
REMARK  2 active torsions:
REMARK  status: ('A' for Active; 'I' for Inactive)
REMARK    1  A    between atoms: C_5  and  N_1 
REMARK    2  A    between atoms: C_7  and  C_5 
ROOT
ATOM      1  N   UNL d   1      33.176  19.639 -22.685  0.00  0.00    -0.251 N 
ATOM      2  C   UNL d   1      33.177  19.126 -22.043  0.00  0.00     0.378 A 
ATOM      3  O   UNL d   1      33.102  19.576 -21.354  0.00  0.00    -0.258 OA
ATOM      4  C   UNL d   1      33.100  20.413 -22.393  0.00  0.00     0.092 A 
ATOM      5  C   UNL d   1      33.055  20.371 -21.572  0.00  0.00     0.121 A 
ATOM      6  O   UNL d   1      33.241  18.304 -22.075  0.00  0.00    -0.237 OA
ATOM      7  C   UNL d   1      33.069  21.139 -22.780  0.00  0.00     0.020 A 
ATOM      8  C   UNL d   1      32.976  21.068 -21.132  0.00  0.00     0.026 A 
ATOM      9  C   UNL d   1      32.990  21.832 -22.338  0.00  0.00     0.002 A 
ATOM     10  C   UNL d   1      32.944  21.797 -21.517  0.00  0.00     0.002 A 
ENDROOT
BRANCH   1  11
ATOM     11  C   UNL d   1      33.239  19.427 -23.480  0.00  0.00     0.086 C 
BRANCH  11  12
ATOM     12  C   UNL d   1      32.639  19.001 -23.837  0.00  0.00     0.028 A 
ATOM     13  C   UNL d   1      32.573  18.984 -24.662  0.00  0.00     0.059 A 
ATOM     14 CL   UNL d   1      33.136  19.414 -25.097  0.00  0.00    -0.082 Cl
ATOM     15  C   UNL d   1      31.971  18.558 -25.015  0.00  0.00     0.011 A 
ATOM     16  C   UNL d   1      31.424  18.138 -24.551  0.00  0.00     0.001 A 
ATOM     17  C   UNL d   1      31.488  18.154 -23.727  0.00  0.00     0.000 A 
ATOM     18  C   UNL d   1      32.094  18.584 -23.373  0.00  0.00     0.002 A 
ENDBRANCH  11  12
ENDBRANCH   1  11
TORSDOF 2
ENDMDL
MODEL 6
REMARK VINA RESULT:      -0.7      1.445      3.425
REMARK  2 active torsions:
REMARK  status: ('A' for Active; 'I' for Inactive)
REMARK    1  A    between atoms: C_5  and  N_1 
REMARK    2  A    between atoms: C_7  and  C_5 
ROOT
ATOM      1  N   UNL d   1      30.324  16.753 -24.424  0.00  0.00    -0.251 N 
ATOM      2  C   UNL d   1      30.073  17.498 -24.663  0.00  0.00     0.378 A 
ATOM      3  O   UNL d   1      29.301  17.608 -24.393  0.00  0.00    -0.258 OA
ATOM      4  C   UNL d   1      29.703  16.398 -24.002  0.00  0.00     0.092 A 
ATOM      5  C   UNL d   1      29.073  16.927 -23.984  0.00  0.00     0.121 A 
ATOM      6  O   UNL d   1      30.512  18.045 -25.097  0.00  0.00    -0.237 OA
ATOM      7  C   UNL d   1      29.645  15.661 -23.639  0.00  0.00     0.020 A 
ATOM      8  C   UNL d   1      28.373  16.715 -23.596  0.00  0.00     0.026 A 
ATOM      9  C   UNL d   1      28.945  15.453 -23.252  0.00  0.00     0.002 A 
ATOM     10  C   UNL d   1      28.312  15.977 -23.231  0.00  0.00     0.002 A 
ENDROOT
BRANCH   1  11
ATOM     11  C   UNL d   1      31.062  16.414 -24.574  0.00  0.00     0.086 C 
BRANCH  11  12
ATOM     12  C   UNL d   1      31.711  16.639 -24.130  0.00  0.00     0.028 A 
ATOM     13  C   UNL d   1      32.399  16.178 -24.135  0.00  0.00     0.059 A 
ATOM     14 CL   UNL d   1      32.394  15.493 -24.605  0.00  0.00    -0.082 Cl
ATOM     15  C   UNL d   1      33.046  16.405 -23.690  0.00  0.00     0.011 A 
ATOM     16  C   UNL d   1      33.019  17.097 -23.230  0.00  0.00     0.001 A 
ATOM     17  C   UNL d   1      32.332  17.559 -23.223  0.00  0.00     0.000 A 
ATOM     18  C   UNL d   1      31.682  17.329 -23.672  0.00  0.00     0.002 A 
ENDBRANCH  11  12
ENDBRANCH   1  11
TORSDOF 2
ENDMDL
MODEL 7
REMARK VINA RESULT:      -0.4      6.352      7.671
REMARK  2 active torsions:
REMARK  status: ('A' for Active; 'I' for Inactive)
REMARK    1  A    between atoms: C_5  and  N_1 
REMARK    2  A    between atoms: C_7  and  C_5 
ROOT
ATOM      1  N   UNL d   1      32.444  23.114 -19.892  0.00  0.00    -0.251 N 
ATOM      2  C   UNL d   1      31.673  23.346 -20.053  0.00  0.00     0.378 A 
ATOM      3  O   UNL d   1      31.324  23.588 -19.344  0.00  0.00    -0.258 OA
ATOM      4  C   UNL d   1      32.576  23.211 -19.078  0.00  0.00     0.092 A 
ATOM      5  C   UNL d   1      31.884  23.503 -18.742  0.00  0.00     0.121 A 
ATOM      6  O   UNL d   1      31.305  23.342 -20.791  0.00  0.00    -0.237 OA
ATOM      7  C   UNL d   1      33.240  23.067 -18.614  0.00  0.00     0.020 A 
ATOM      8  C   UNL d   1      31.857  23.654 -17.928  0.00  0.00     0.026 A 
ATOM      9  C   UNL d   1      33.211  23.218 -17.803  0.00  0.00     0.002 A 
ATOM     10  C   UNL d   1      32.522  23.511 -17.461  0.00  0.00     0.002 A 
ENDROOT
BRANCH   1  11
ATOM     11  C   UNL d   1      32.994  22.832 -20.440  0.00  0.00     0.086 C 
BRANCH  11  12
ATOM     12  C   UNL d   1      32.904  22.085 -20.760  0.00  0.00     0.028 A 
ATOM     13  C   UNL d   1      33.025  21.960 -21.569  0.00  0.00     0.059 A 
ATOM     14 CL   UNL d   1      33.239  22.620 -22.028  0.00  0.00    -0.082 Cl
ATOM     15  C   UNL d   1      32.935  21.212 -21.886  0.00  0.00     0.011 A 
ATOM     16  C   UNL d   1      32.721  20.572 -21.399  0.00  0.00     0.001 A 
ATOM     17  C   UNL d   1      32.599  20.695 -20.591  0.00  0.00     0.000 A 
ATOM     18  C   UNL d   1      32.691  21.449 -20.274  0.00  0.00     0.002 A 
ENDBRANCH  11  12
ENDBRANCH   1  11
TORSDOF 2
ENDMDL
