MODEL 1
REMARK VINA RESULT:      36.3      0.000      0.000
REMARK  4 active torsions:
REMARK  status: ('A' for Active; 'I' for Inactive)
REMARK    1  A    between atoms: C_2  and  C_1 
REMARK    2  A    between atoms: O_18  and  C_16 
REMARK    3  A    between atoms: C_17  and  C_19 
REMARK    4  A    between atoms: C_19  and  O_18 
ROOT
ATOM      1  C   UNL d   1      46.250 -18.720  43.129  0.00  0.00     0.030 A 
ATOM      2  C   UNL d   1      46.199 -18.070  43.636  0.00  0.00     0.027 A 
ATOM      3  C   UNL d   1      46.475 -19.579  44.242  0.00  0.00     0.300 A 
ATOM      4  C   UNL d   1      46.388 -19.472  43.438  0.00  0.00     0.071 A 
ATOM      5  C   UNL d   1      46.287 -18.177  44.450  0.00  0.00     0.103 A 
ATOM      6  O   UNL d   1      46.425 -18.930  44.758  0.00  0.00    -0.273 OA
ATOM      7  C   UNL d   1      46.059 -17.307  43.328  0.00  0.00     0.027 A 
ATOM      8  O   UNL d   1      46.613 -20.330  44.545  0.00  0.00    -0.259 OA
ATOM      9  C   UNL d   1      46.236 -17.528  44.955  0.00  0.00     0.027 A 
ATOM     10  C   UNL d   1      46.010 -16.674  43.837  0.00  0.00     0.100 A 
ATOM     11  C   UNL d   1      46.098 -16.776  44.652  0.00  0.00     0.027 A 
ENDROOT
BRANCH   1  12
ATOM     12  C   UNL d   1      46.159 -18.605  42.306  0.00  0.00     0.100 A 
ATOM     13  O   UNL d   1      45.579 -18.157  41.935  0.00  0.00    -0.307 OA
ATOM     14  C   UNL d   1      45.706 -18.203  41.128  0.00  0.00     0.100 A 
ATOM     15  C   UNL d   1      45.306 -17.872  40.487  0.00  0.00     0.025 A 
ATOM     16  C   UNL d   1      46.367 -18.680  40.989  0.00  0.00     0.025 A 
ATOM     17  C   UNL d   1      45.567 -18.018  39.718  0.00  0.00     0.002 A 
ATOM     18  C   UNL d   1      46.229 -18.496  39.590  0.00  0.00     0.000 A 
ATOM     19  C   UNL d   1      46.624 -18.824  40.232  0.00  0.00     0.002 A 
ATOM     20  C   UNL d   1      46.647 -18.929  41.728  0.00  0.00     0.027 A 
ENDBRANCH   1  12
BRANCH  10  21
ATOM     21  O   UNL d   1      45.871 -15.916  43.530  0.00  0.00    -0.302 OA
BRANCH  21  22
ATOM     22  C   UNL d   1      46.033 -15.259  43.984  0.00  0.00     0.165 C 
BRANCH  22  23
ATOM     23  C   UNL d   1      45.681 -14.539  43.808  0.00  0.00     0.220 C 
ATOM     24  O   UNL d   1      46.008 -14.055  43.226  0.00  0.00    -0.284 OA
ATOM     25  C   UNL d   1      45.004 -14.293  44.210  0.00  0.00     0.048 C 
ENDBRANCH  22  23
ENDBRANCH  21  22
ENDBRANCH  10  21
TORSDOF 4
ENDMDL
