MODEL 1
REMARK VINA RESULT:      40.8      0.000      0.000
REMARK  6 active torsions:
REMARK  status: ('A' for Active; 'I' for Inactive)
REMARK    1  A    between atoms: C_5  and  N_1 
REMARK    2  A    between atoms: C_10  and  C_4 
REMARK    3  A    between atoms: C_6  and  S_13 
REMARK    4  A    between atoms: C_8  and  C_11 
REMARK    5  A    between atoms: C_14  and  C_8 
REMARK    6  A    between atoms: S_13  and  C_14 
ROOT
ATOM      1  S   UNL d   1     -54.849-100.240 -43.800  0.00  0.00    -0.062 SA
ENDROOT
BRANCH   1   2
ATOM      2  C   UNL d   1     -54.830-100.605 -43.052  0.00  0.00     0.133 A 
ATOM      3  N   UNL d   1     -54.897-101.433 -42.990  0.00  0.00    -0.141 NA
ATOM      4  N   UNL d   1     -54.878-101.793 -42.246  0.00  0.00    -0.146 NA
ATOM      5  C   UNL d   1     -54.792-101.334 -41.568  0.00  0.00     0.121 A 
ATOM      6  C   UNL d   1     -54.725-100.506 -41.630  0.00  0.00     0.025 A 
ATOM      7  C   UNL d   1     -54.744-100.145 -42.369  0.00  0.00     0.029 A 
BRANCH   5   8
ATOM      8  C   UNL d   1     -54.773-101.695 -40.828  0.00  0.00     0.101 A 
ATOM      9  N   UNL d   1     -54.797-102.517 -40.769  0.00  0.00    -0.242 NA
ATOM     10  C   UNL d   1     -54.778-102.879 -40.029  0.00  0.00     0.099 A 
ATOM     11  C   UNL d   1     -54.735-102.416 -39.337  0.00  0.00     0.021 A 
ATOM     12  C   UNL d   1     -54.711-101.593 -39.396  0.00  0.00     0.003 A 
ATOM     13  C   UNL d   1     -54.730-101.233 -40.139  0.00  0.00     0.021 A 
ENDBRANCH   5   8
ENDBRANCH   1   2
BRANCH   1  14
ATOM     14  C   UNL d   1     -54.957 -99.416 -43.860  0.00  0.00     0.079 C 
BRANCH  14  15
ATOM     15  C   UNL d   1     -55.358 -99.097 -44.504  0.00  0.00     0.202 C 
ATOM     16  O   UNL d   1     -54.934 -98.823 -45.156  0.00  0.00    -0.286 OA
BRANCH  15  17
ATOM     17  C   UNL d   1     -56.186 -99.052 -44.498  0.00  0.00     0.040 A 
ATOM     18  C   UNL d   1     -56.602 -99.206 -43.804  0.00  0.00     0.005 A 
ATOM     19  C   UNL d   1     -57.426 -99.161 -43.798  0.00  0.00     0.024 A 
ATOM     20  C   UNL d   1     -57.833 -98.963 -44.486  0.00  0.00     0.127 A 
ATOM     21  C   UNL d   1     -57.418 -98.809 -45.179  0.00  0.00     0.024 A 
ATOM     22  C   UNL d   1     -56.594 -98.854 -45.185  0.00  0.00     0.005 A 
BRANCH  20  23
ATOM     23  N   UNL d   1     -58.657 -98.918 -44.479  0.00  0.00    -0.114 N 
ATOM     24  O   UNL d   1     -59.071 -99.019 -43.774  0.00  0.00    -0.532 OA
ATOM     25  O   UNL d   1     -59.068 -98.770 -45.185  0.00  0.00    -0.532 OA
ENDBRANCH  20  23
ENDBRANCH  15  17
ENDBRANCH  14  15
ENDBRANCH   1  14
TORSDOF 6
ENDMDL
