MODEL 1
REMARK VINA RESULT:      64.4      0.000      0.000
REMARK  3 active torsions:
REMARK  status: ('A' for Active; 'I' for Inactive)
REMARK    1  A    between atoms: N_3  and  S_1 
REMARK    2  A    between atoms: C_9  and  S_1 
REMARK    3  A    between atoms: C_2  and  N_3 
ROOT
ATOM      1  C   UNL d   1     -50.907  25.363  33.648  0.00  0.00     0.157 A 
ATOM      2  C   UNL d   1     -50.503  24.649  33.650  0.00  0.00     0.102 A 
ATOM      3  C   UNL d   1     -50.921  23.947  33.537  0.00  0.00     0.110 A 
ATOM      4  C   UNL d   1     -51.743  23.959  33.421  0.00  0.00     0.207 A 
ATOM      5  C   UNL d   1     -51.707  25.384  33.536  0.00  0.00     0.035 A 
ATOM      6  C   UNL d   1     -52.125  24.682  33.422  0.00  0.00     0.042 A 
ATOM      7 CL   UNL d   1     -49.690  24.620  33.763  0.00  0.00    -0.079 Cl
ATOM      8 CL   UNL d   1     -50.526  23.216  33.536  0.00  0.00    -0.078 Cl
ATOM      9  O   UNL d   1     -52.161  23.257  33.308  0.00  0.00    -0.286 OA
ATOM     10  C   UNL d   1     -52.111  26.099  33.533  0.00  0.00     0.003 A 
ATOM     11  C   UNL d   1     -52.947  24.695  33.307  0.00  0.00     0.003 A 
ATOM     12  C   UNL d   1     -53.342  25.425  33.307  0.00  0.00     0.000 A 
ATOM     13  C   UNL d   1     -52.924  26.127  33.420  0.00  0.00     0.000 A 
ENDROOT
BRANCH   1  14
ATOM     14  N   UNL d   1     -50.489  26.065  33.761  0.00  0.00    -0.316 NA
BRANCH  14  15
ATOM     15  S   UNL d   1     -50.070  26.768  33.874  0.00  0.00     0.327 S 
ATOM     16  O   UNL d   1     -49.538  26.542  33.306  0.00  0.00    -0.186 OA
ATOM     17  O   UNL d   1     -50.615  26.993  34.452  0.00  0.00    -0.186 OA
BRANCH  15  18
ATOM     18  C   UNL d   1     -49.655  27.465  33.987  0.00  0.00     0.116 A 
ATOM     19  C   UNL d   1     -49.586  28.007  33.384  0.00  0.00     0.014 A 
ATOM     20  C   UNL d   1     -49.168  28.709  33.497  0.00  0.00     0.001 A 
ATOM     21  C   UNL d   1     -48.816  28.866  34.227  0.00  0.00     0.000 A 
ATOM     22  C   UNL d   1     -48.881  28.321  34.843  0.00  0.00     0.001 A 
ATOM     23  C   UNL d   1     -48.399  29.577  34.323  0.00  0.00     0.000 C 
ATOM     24  C   UNL d   1     -49.304  27.611  34.729  0.00  0.00     0.014 A 
ENDBRANCH  15  18
ENDBRANCH  14  15
ENDBRANCH   1  14
TORSDOF 3
ENDMDL
