MODEL 1
REMARK VINA RESULT:      16.8      0.000      0.000
REMARK  4 active torsions:
REMARK  status: ('A' for Active; 'I' for Inactive)
REMARK    1  A    between atoms: C_2  and  C_1 
REMARK       I    between atoms: N_7  and  C_2 
REMARK    2  A    between atoms: N_6  and  C_5 
REMARK    3  A    between atoms: C_10  and  N_7 
REMARK    4  A    between atoms: C_8  and  C_9 
ROOT
ATOM      1  C   UNL d   1      46.042 -15.396  44.332  0.00  0.00     0.021 A 
ATOM      2  C   UNL d   1      45.341 -14.157  44.209  0.00  0.00     0.085 A 
ATOM      3  C   UNL d   1      45.402 -14.963  44.041  0.00  0.00     0.021 A 
ATOM      4  C   UNL d   1      46.619 -15.024  44.790  0.00  0.00     0.002 A 
ATOM      5  C   UNL d   1      46.553 -14.225  44.953  0.00  0.00     0.002 A 
ATOM      6  C   UNL d   1      45.914 -13.792  44.663  0.00  0.00     0.019 A 
ENDROOT
BRANCH   1   7
ATOM      7  C   UNL d   1      46.101 -16.210  44.160  0.00  0.00     0.103 A 
ATOM      8  N   UNL d   1      46.311 -16.455  43.409  0.00  0.00    -0.147 NA
ATOM      9  N   UNL d   1      46.368 -17.262  43.243  0.00  0.00    -0.130 NA
ATOM     10  C   UNL d   1      46.215 -17.816  43.835  0.00  0.00     0.169 A 
ATOM     11  C   UNL d   1      46.003 -17.561  44.594  0.00  0.00     0.041 A 
ATOM     12  C   UNL d   1      45.948 -16.764  44.752  0.00  0.00     0.024 A 
BRANCH  10  13
ATOM     13  N   UNL d   1      46.271 -18.616  43.674  0.00  0.00    -0.288 N 
ATOM     14  C   UNL d   1      46.362 -19.153  44.294  0.00  0.00     0.082 A 
ATOM     15  C   UNL d   1      46.419 -19.961  44.137  0.00  0.00     0.019 A 
ATOM     16  C   UNL d   1      46.385 -20.232  43.358  0.00  0.00     0.003 A 
ATOM     17  C   UNL d   1      46.294 -19.696  42.737  0.00  0.00     0.019 A 
ATOM     18  C   UNL d   1      46.237 -18.887  42.896  0.00  0.00     0.082 A 
ENDBRANCH  10  13
ENDBRANCH   1   7
BRANCH   2  19
ATOM     19  N   UNL d   1      44.701 -13.724  43.919  0.00  0.00    -0.205 NA
ATOM     20  C   UNL d   1      44.821 -13.130  43.369  0.00  0.00     0.351 C 
ATOM     21  O   UNL d   1      45.585 -12.965  43.105  0.00  0.00    -0.261 OA
BRANCH  20  22
ATOM     22  C   UNL d   1      44.185 -12.699  43.081  0.00  0.00     0.474 C 
ATOM     23  F   UNL d   1      43.546 -12.266  42.790  0.00  0.00    -0.162 F 
ATOM     24  F   UNL d   1      44.706 -12.194  42.688  0.00  0.00    -0.162 F 
ATOM     25  F   UNL d   1      43.665 -13.205  43.473  0.00  0.00    -0.162 F 
ENDBRANCH  20  22
ENDBRANCH   2  19
TORSDOF 4
ENDMDL
