MODEL 1
REMARK VINA RESULT:      35.9      0.000      0.000
REMARK  3 active torsions:
REMARK  status: ('A' for Active; 'I' for Inactive)
REMARK    1  A    between atoms: N_5  and  C_2 
REMARK    2  A    between atoms: C_9  and  C_3 
REMARK       I    between atoms: C_7  and  N_5 
REMARK    3  A    between atoms: C_8  and  C_7 
ROOT
ATOM      1  N   UNL d   1     -55.146-101.598 -40.988  0.00  0.00    -0.200 NA
ATOM      2  C   UNL d   1     -54.902-101.677 -41.765  0.00  0.00     0.216 A 
ATOM      3  C   UNL d   1     -55.111-102.340 -40.629  0.00  0.00     0.172 A 
ATOM      4  N   UNL d   1     -54.843-102.879 -41.193  0.00  0.00    -0.187 NA
ATOM      5  S   UNL d   1     -54.711-102.471 -41.903  0.00  0.00     0.054 SA
ENDROOT
BRANCH   2   6
ATOM      6  N   UNL d   1     -54.854-101.070 -42.321  0.00  0.00    -0.181 NA
ATOM      7  C   UNL d   1     -54.948-101.241 -43.116  0.00  0.00     0.281 C 
ATOM      8  O   UNL d   1     -55.091-102.015 -43.361  0.00  0.00    -0.265 OA
BRANCH   7   9
ATOM      9  C   UNL d   1     -54.900-100.634 -43.673  0.00  0.00     0.058 A 
ATOM     10  C   UNL d   1     -54.764 -99.860 -43.427  0.00  0.00     0.006 A 
ATOM     11  C   UNL d   1     -54.716 -99.253 -43.983  0.00  0.00     0.012 A 
ATOM     12  C   UNL d   1     -54.803 -99.420 -44.785  0.00  0.00     0.058 A 
ATOM     13  C   UNL d   1     -54.939-100.194 -45.030  0.00  0.00     0.012 A 
ATOM     14 CL   UNL d   1     -54.755 -98.812 -45.342  0.00  0.00    -0.082 Cl
ATOM     15  C   UNL d   1     -54.988-100.801 -44.473  0.00  0.00     0.006 A 
ENDBRANCH   7   9
ENDBRANCH   2   6
BRANCH   3  16
ATOM     16  C   UNL d   1     -55.305-102.515 -39.853  0.00  0.00     0.036 A 
ATOM     17  C   UNL d   1     -54.712-102.563 -39.283  0.00  0.00     0.003 A 
ATOM     18  C   UNL d   1     -54.911-102.741 -38.494  0.00  0.00     0.000 A 
ATOM     19  C   UNL d   1     -55.704-102.869 -38.282  0.00  0.00     0.000 A 
ATOM     20  C   UNL d   1     -56.294-102.819 -38.862  0.00  0.00     0.000 A 
ATOM     21  C   UNL d   1     -56.098-102.643 -39.642  0.00  0.00     0.003 A 
ENDBRANCH   3  16
TORSDOF 3
ENDMDL
