MODEL 1
REMARK VINA RESULT:      69.1      0.000      0.000
REMARK  4 active torsions:
REMARK  status: ('A' for Active; 'I' for Inactive)
REMARK    1  A    between atoms: C_7  and  N_1 
REMARK    2  A    between atoms: C_8  and  C_7 
REMARK       I    between atoms: N_9  and  C_8 
REMARK    3  A    between atoms: C_13  and  N_9 
REMARK    4  A    between atoms: O_19  and  C_14 
ROOT
ATOM      1  C   UNL d   1      61.291  48.853  50.107  0.00  0.00     0.148 C 
ENDROOT
BRANCH   1   2
ATOM      2  N   UNL d   1      60.777  49.137  50.688  0.00  0.00    -0.235 N 
ATOM      3  C   UNL d   1      61.061  49.282  51.455  0.00  0.00     0.273 A 
ATOM      4  C   UNL d   1      60.552  49.563  52.031  0.00  0.00     0.086 A 
ATOM      5  O   UNL d   1      61.858  49.139  51.635  0.00  0.00    -0.266 OA
ATOM      6  C   UNL d   1      60.838  49.708  52.801  0.00  0.00     0.012 C 
ATOM      7  S   UNL d   1      59.761  49.707  51.862  0.00  0.00    -0.077 SA
ATOM      8  C   UNL d   1      59.476  49.566  51.104  0.00  0.00     0.086 A 
ATOM      9  C   UNL d   1      59.977  49.281  50.512  0.00  0.00     0.273 A 
ATOM     10  C   UNL d   1      58.682  49.708  50.927  0.00  0.00     0.012 C 
ATOM     11  O   UNL d   1      59.694  49.138  49.751  0.00  0.00    -0.266 OA
ENDBRANCH   1   2
BRANCH   1  12
ATOM     12  C   UNL d   1      61.457  48.046  50.067  0.00  0.00     0.297 C 
ATOM     13  N   UNL d   1      61.682  47.696  49.342  0.00  0.00    -0.207 NA
ATOM     14  O   UNL d   1      61.401  47.584  50.751  0.00  0.00    -0.264 OA
BRANCH  13  15
ATOM     15  C   UNL d   1      61.846  46.889  49.317  0.00  0.00     0.085 A 
ATOM     16  C   UNL d   1      61.230  46.364  49.153  0.00  0.00     0.021 A 
ATOM     17  C   UNL d   1      61.371  45.556  49.125  0.00  0.00     0.026 A 
ATOM     18  C   UNL d   1      62.144  45.271  49.263  0.00  0.00     0.094 A 
ATOM     19  C   UNL d   1      62.746  45.809  49.425  0.00  0.00     0.026 A 
ATOM     20  C   UNL d   1      62.598  46.607  49.452  0.00  0.00     0.021 A 
BRANCH  18  21
ATOM     21  O   UNL d   1      62.290  44.461  49.235  0.00  0.00    -0.328 OA
ATOM     22  C   UNL d   1      61.901  43.964  49.761  0.00  0.00     0.181 C 
ENDBRANCH  18  21
ENDBRANCH  13  15
ENDBRANCH   1  12
TORSDOF 4
ENDMDL
