MODEL 1
REMARK VINA RESULT:      -5.3      0.000      0.000
REMARK  3 active torsions:
REMARK  status: ('A' for Active; 'I' for Inactive)
REMARK    1  A    between atoms: S_11  and  C_1 
REMARK    2  A    between atoms: C_7  and  C_13 
REMARK    3  A    between atoms: C_13  and  S_11 
ROOT
ATOM      1  C   UNL d   1      57.224   0.127  31.373  0.00  0.00     0.141 A 
ATOM      2  N   UNL d   1      56.992  -0.646  31.540  0.00  0.00    -0.232 NA
ATOM      3  S   UNL d   1      56.852   0.627  31.900  0.00  0.00    -0.060 SA
ATOM      4  C   UNL d   1      56.469  -0.626  32.176  0.00  0.00     0.088 A 
ATOM      5  C   UNL d   1      56.379   0.174  32.405  0.00  0.00     0.049 A 
ATOM      6  C   UNL d   1      56.060  -1.215  32.584  0.00  0.00     0.020 A 
ATOM      7  C   UNL d   1      55.886   0.368  33.032  0.00  0.00     0.008 A 
ATOM      8  C   UNL d   1      55.474  -0.221  33.443  0.00  0.00     0.001 A 
ATOM      9  C   UNL d   1      55.562  -1.017  33.217  0.00  0.00     0.002 A 
ENDROOT
BRANCH   1  10
ATOM     10  S   UNL d   1      57.747   0.352  30.773  0.00  0.00    -0.057 SA
BRANCH  10  11
ATOM     11  C   UNL d   1      58.074  -0.221  30.279  0.00  0.00     0.084 C 
BRANCH  11  12
ATOM     12  C   UNL d   1      58.544   0.004  29.647  0.00  0.00     0.212 A 
ATOM     13  O   UNL d   1      59.366  -0.039  29.611  0.00  0.00    -0.259 OA
ATOM     14  C   UNL d   1      59.607   0.244  28.876  0.00  0.00     0.262 A 
ATOM     15  S   UNL d   1      60.382   0.296  28.613  0.00  0.00    -0.029 SA
ATOM     16  N   UNL d   1      58.935   0.463  28.455  0.00  0.00    -0.109 NA
ATOM     17  N   UNL d   1      58.276   0.316  28.929  0.00  0.00    -0.119 NA
ENDBRANCH  11  12
ENDBRANCH  10  11
ENDBRANCH   1  10
TORSDOF 3
ENDMDL
MODEL 2
REMARK VINA RESULT:      -4.3      1.540      4.455
REMARK  3 active torsions:
REMARK  status: ('A' for Active; 'I' for Inactive)
REMARK    1  A    between atoms: S_11  and  C_1 
REMARK    2  A    between atoms: C_7  and  C_13 
REMARK    3  A    between atoms: C_13  and  S_11 
ROOT
ATOM      1  C   UNL d   1      57.907   0.297  30.785  0.00  0.00     0.141 A 
ATOM      2  N   UNL d   1      57.762   0.014  30.024  0.00  0.00    -0.232 NA
ATOM      3  S   UNL d   1      58.669   0.587  30.810  0.00  0.00    -0.060 SA
ATOM      4  C   UNL d   1      58.442   0.130  29.573  0.00  0.00     0.088 A 
ATOM      5  C   UNL d   1      59.014   0.491  30.065  0.00  0.00     0.049 A 
ATOM      6  C   UNL d   1      58.627  -0.038  28.787  0.00  0.00     0.020 A 
ATOM      7  C   UNL d   1      59.755   0.676  29.765  0.00  0.00     0.008 A 
ATOM      8  C   UNL d   1      59.944   0.508  28.976  0.00  0.00     0.001 A 
ATOM      9  C   UNL d   1      59.377   0.149  28.485  0.00  0.00     0.002 A 
ENDROOT
BRANCH   1  10
ATOM     10  S   UNL d   1      57.368   0.285  31.412  0.00  0.00    -0.057 SA
BRANCH  10  11
ATOM     11  C   UNL d   1      56.929  -0.396  31.562  0.00  0.00     0.084 C 
BRANCH  11  12
ATOM     12  C   UNL d   1      56.433  -0.428  32.212  0.00  0.00     0.212 A 
ATOM     13  O   UNL d   1      55.998   0.197  32.525  0.00  0.00    -0.259 OA
ATOM     14  C   UNL d   1      55.577  -0.082  33.177  0.00  0.00     0.262 A 
ATOM     15  S   UNL d   1      55.074   0.362  33.648  0.00  0.00    -0.029 SA
ATOM     16  N   UNL d   1      55.750  -0.881  33.268  0.00  0.00    -0.109 NA
ATOM     17  N   UNL d   1      56.279  -1.099  32.673  0.00  0.00    -0.119 NA
ENDBRANCH  11  12
ENDBRANCH  10  11
ENDBRANCH   1  10
TORSDOF 3
ENDMDL
MODEL 3
REMARK VINA RESULT:      -4.3      1.150      1.475
REMARK  3 active torsions:
REMARK  status: ('A' for Active; 'I' for Inactive)
REMARK    1  A    between atoms: S_11  and  C_1 
REMARK    2  A    between atoms: C_7  and  C_13 
REMARK    3  A    between atoms: C_13  and  S_11 
ROOT
ATOM      1  C   UNL d   1      56.741   0.680  32.213  0.00  0.00     0.141 A 
ATOM      2  N   UNL d   1      55.921   0.681  32.297  0.00  0.00    -0.232 NA
ATOM      3  S   UNL d   1      57.076   0.681  32.958  0.00  0.00    -0.060 SA
ATOM      4  C   UNL d   1      55.745   0.681  33.102  0.00  0.00     0.088 A 
ATOM      5  C   UNL d   1      56.470   0.681  33.520  0.00  0.00     0.049 A 
ATOM      6  C   UNL d   1      55.034   0.681  33.520  0.00  0.00     0.020 A 
ATOM      7  C   UNL d   1      56.470   0.682  34.340  0.00  0.00     0.008 A 
ATOM      8  C   UNL d   1      55.758   0.682  34.763  0.00  0.00     0.001 A 
ATOM      9  C   UNL d   1      55.036   0.682  34.349  0.00  0.00     0.002 A 
ENDROOT
BRANCH   1  10
ATOM     10  S   UNL d   1      57.149   0.680  31.494  0.00  0.00    -0.057 SA
BRANCH  10  11
ATOM     11  C   UNL d   1      57.413  -0.033  31.173  0.00  0.00     0.084 C 
BRANCH  11  12
ATOM     12  C   UNL d   1      57.779  -0.041  30.441  0.00  0.00     0.212 A 
ATOM     13  O   UNL d   1      58.410  -0.521  30.217  0.00  0.00    -0.259 OA
ATOM     14  C   UNL d   1      58.602  -0.345  29.435  0.00  0.00     0.262 A 
ATOM     15  S   UNL d   1      59.199  -0.699  28.997  0.00  0.00    -0.029 SA
ATOM     16  N   UNL d   1      58.091   0.244  29.174  0.00  0.00    -0.109 NA
ATOM     17  N   UNL d   1      57.581   0.435  29.793  0.00  0.00    -0.119 NA
ENDBRANCH  11  12
ENDBRANCH  10  11
ENDBRANCH   1  10
TORSDOF 3
ENDMDL
