MODEL 1
REMARK VINA RESULT:      48.8      0.000      0.000
REMARK  6 active torsions:
REMARK  status: ('A' for Active; 'I' for Inactive)
REMARK    1  A    between atoms: C_11  and  N_4 
REMARK    2  A    between atoms: C_19  and  C_7 
REMARK    3  A    between atoms: C_17  and  C_11 
REMARK    4  A    between atoms: O_21  and  C_16 
REMARK    5  A    between atoms: C_20  and  C_17 
REMARK    6  A    between atoms: C_25  and  C_19 
ROOT
ATOM      1  C   UNL d   1      13.888  14.057  -3.697  0.00  0.00     0.137 A 
ATOM      2  C   UNL d   1      13.672  13.955  -4.489  0.00  0.00     0.192 A 
ATOM      3  C   UNL d   1      13.821  13.432  -3.164  0.00  0.00     0.272 A 
ATOM      4  N   UNL d   1      13.537  12.704  -3.422  0.00  0.00    -0.258 N 
ATOM      5  N   UNL d   1      13.389  13.231  -4.747  0.00  0.00    -0.204 NA
ATOM      6  C   UNL d   1      14.173  14.789  -3.441  0.00  0.00     0.205 A 
ATOM      7  C   UNL d   1      13.319  12.598  -4.213  0.00  0.00     0.152 A 
ATOM      8  C   UNL d   1      14.241  15.407  -3.966  0.00  0.00     0.062 A 
ATOM      9  O   UNL d   1      13.741  14.581  -5.015  0.00  0.00    -0.289 OA
ATOM     10  C   UNL d   1      14.026  15.310  -4.753  0.00  0.00     0.107 A 
ATOM     11  C   UNL d   1      14.095  15.943  -5.289  0.00  0.00     0.049 A 
ATOM     12  C   UNL d   1      14.527  16.139  -3.704  0.00  0.00     0.007 A 
ATOM     13  O   UNL d   1      14.038  13.537  -2.377  0.00  0.00    -0.266 OA
ATOM     14  O   UNL d   1      14.388  14.887  -2.653  0.00  0.00    -0.286 OA
ATOM     15  C   UNL d   1      14.380  16.667  -5.026  0.00  0.00     0.096 A 
ATOM     16  C   UNL d   1      14.594  16.765  -4.239  0.00  0.00     0.024 A 
ENDROOT
BRANCH   4  17
ATOM     17  C   UNL d   1      13.470  12.079  -2.888  0.00  0.00     0.084 C 
BRANCH  17  18
ATOM     18  C   UNL d   1      14.147  11.780  -2.501  0.00  0.00     0.019 C 
BRANCH  18  19
ATOM     19  C   UNL d   1      14.184  11.782  -1.675  0.00  0.00     0.002 A 
ATOM     20  C   UNL d   1      13.477  11.780  -1.237  0.00  0.00     0.000 A 
ATOM     21  C   UNL d   1      13.508  11.782  -0.403  0.00  0.00     0.000 A 
ATOM     22  C   UNL d   1      14.241  11.785  -0.014  0.00  0.00     0.000 A 
ATOM     23  C   UNL d   1      14.946  11.788  -0.462  0.00  0.00     0.000 A 
ATOM     24  C   UNL d   1      14.911  11.786  -1.288  0.00  0.00     0.000 A 
ENDBRANCH  18  19
ENDBRANCH  17  18
ENDBRANCH   4  17
BRANCH   7  25
ATOM     25  C   UNL d   1      13.034  11.870  -4.474  0.00  0.00     0.038 C 
BRANCH  25  26
ATOM     26  C   UNL d   1      12.769  11.779  -5.246  0.00  0.00     0.003 C 
ATOM     27  C   UNL d   1      13.304  11.796  -5.864  0.00  0.00     0.000 C 
ENDBRANCH  25  26
ENDBRANCH   7  25
BRANCH  15  28
ATOM     28  O   UNL d   1      14.451  17.295  -5.544  0.00  0.00    -0.328 OA
ATOM     29  C   UNL d   1      14.019  17.295  -6.244  0.00  0.00     0.181 C 
ENDBRANCH  15  28
TORSDOF 6
ENDMDL
