MODEL 1
REMARK VINA RESULT:      69.4      0.000      0.000
REMARK  6 active torsions:
REMARK  status: ('A' for Active; 'I' for Inactive)
REMARK    1  A    between atoms: C_8  and  C_1 
REMARK    2  A    between atoms: C_2  and  N_3 
REMARK       I    between atoms: N_3  and  C_8 
REMARK    3  A    between atoms: S_4  and  C_14 
REMARK    4  A    between atoms: C_23  and  N_7 
REMARK    5  A    between atoms: C_27  and  C_23 
REMARK    6  A    between atoms: O_26  and  C_27 
ROOT
ATOM      1  C   UNL d   1      45.630 -16.905  38.867  0.00  0.00     0.182 A 
ATOM      2  N   UNL d   1      45.027 -16.824  38.318  0.00  0.00    -0.283 N 
ATOM      3  S   UNL d   1      46.151 -16.276  38.768  0.00  0.00    -0.048 SA
ATOM      4  C   UNL d   1      45.867 -15.803  38.152  0.00  0.00     0.049 A 
ATOM      5  C   UNL d   1      45.170 -16.143  37.872  0.00  0.00     0.072 A 
ATOM      6  C   UNL d   1      45.742 -14.758  37.192  0.00  0.00     0.107 A 
ATOM      7  C   UNL d   1      46.153 -15.110  37.811  0.00  0.00     0.021 A 
ATOM      8  C   UNL d   1      44.758 -15.790  37.252  0.00  0.00     0.019 A 
ATOM      9  C   UNL d   1      45.044 -15.098  36.912  0.00  0.00     0.015 A 
ENDROOT
BRANCH   1  10
ATOM     10  N   UNL d   1      45.695 -17.514  39.420  0.00  0.00    -0.183 NA
ATOM     11  C   UNL d   1      46.201 -17.425  40.064  0.00  0.00     0.288 C 
ATOM     12  O   UNL d   1      46.637 -16.731  40.149  0.00  0.00    -0.265 OA
BRANCH  11  13
ATOM     13  C   UNL d   1      46.272 -18.030  40.621  0.00  0.00     0.098 A 
ATOM     14  S   UNL d   1      46.160 -18.827  40.480  0.00  0.00    -0.081 SA
ATOM     15  C   UNL d   1      46.284 -19.235  41.182  0.00  0.00     0.030 A 
ATOM     16  C   UNL d   1      46.247 -20.043  41.365  0.00  0.00     0.006 A 
ATOM     17  C   UNL d   1      46.477 -18.691  41.772  0.00  0.00     0.017 A 
ATOM     18  C   UNL d   1      46.403 -20.307  42.138  0.00  0.00     0.001 A 
ATOM     19  C   UNL d   1      46.596 -19.743  42.725  0.00  0.00     0.000 A 
ATOM     20  C   UNL d   1      46.632 -18.952  42.542  0.00  0.00     0.001 A 
ATOM     21  C   UNL d   1      46.469 -17.934  41.420  0.00  0.00     0.069 A 
ATOM     22 CL   UNL d   1      46.630 -17.226  41.805  0.00  0.00    -0.082 Cl
ENDBRANCH  11  13
ENDBRANCH   1  10
BRANCH   2  23
ATOM     23  C   UNL d   1      44.383 -17.332  38.219  0.00  0.00     0.108 C 
BRANCH  23  24
ATOM     24  C   UNL d   1      44.078 -17.479  37.469  0.00  0.00     0.135 C 
BRANCH  24  25
ATOM     25  O   UNL d   1      43.280 -17.365  37.317  0.00  0.00    -0.325 OA
ATOM     26  C   UNL d   1      43.033 -16.927  36.659  0.00  0.00     0.182 C 
ENDBRANCH  24  25
ENDBRANCH  23  24
ENDBRANCH   2  23
BRANCH   6  27
ATOM     27  S   UNL d   1      46.030 -14.054  36.844  0.00  0.00     0.302 S 
ATOM     28  O   UNL d   1      45.409 -13.607  37.163  0.00  0.00    -0.197 OA
ATOM     29  O   UNL d   1      46.645 -14.500  36.529  0.00  0.00    -0.197 OA
ATOM     30  N   UNL d   1      46.336 -13.376  36.491  0.00  0.00    -0.043 N 
ENDBRANCH   6  27
TORSDOF 6
ENDMDL
