MODEL 1
REMARK VINA RESULT:       7.0      0.000      0.000
REMARK  3 active torsions:
REMARK  status: ('A' for Active; 'I' for Inactive)
REMARK    1  A    between atoms: N_2  and  S_1 
REMARK    2  A    between atoms: C_5  and  S_1 
REMARK    3  A    between atoms: S_9  and  C_3 
ROOT
ATOM      1  S   UNL d   1      24.233  12.380  -0.831  0.00  0.00     0.273 S 
ATOM      2  O   UNL d   1      24.768  11.788  -0.616  0.00  0.00    -0.200 OA
ATOM      3  O   UNL d   1      24.214  12.361  -0.015  0.00  0.00    -0.200 OA
ENDROOT
BRANCH   1   4
ATOM      4  N   UNL d   1      23.672  12.986  -0.794  0.00  0.00    -0.208 N 
ATOM      5  C   UNL d   1      23.787  13.732  -0.450  0.00  0.00     0.185 A 
ATOM      6  N   UNL d   1      23.090  14.164  -0.535  0.00  0.00    -0.219 NA
ATOM      7  C   UNL d   1      22.545  13.685  -0.932  0.00  0.00     0.121 A 
ATOM      8  C   UNL d   1      22.899  12.960  -1.093  0.00  0.00     0.114 A 
BRANCH   5   9
ATOM      9  S   UNL d   1      24.483  13.996  -0.084  0.00  0.00    -0.075 SA
ATOM     10  C   UNL d   1      24.632  14.803  -0.024  0.00  0.00     0.077 C 
ENDBRANCH   5   9
ENDBRANCH   1   4
BRANCH   1  11
ATOM     11  C   UNL d   1      24.265  12.383  -1.653  0.00  0.00     0.104 A 
ATOM     12  C   UNL d   1      24.719  12.950  -2.034  0.00  0.00     0.013 A 
ATOM     13  C   UNL d   1      24.749  12.950  -2.859  0.00  0.00     0.001 A 
ATOM     14  C   UNL d   1      24.329  12.387  -3.293  0.00  0.00     0.000 A 
ATOM     15  C   UNL d   1      23.875  11.821  -2.899  0.00  0.00     0.001 A 
ATOM     16  C   UNL d   1      24.361  12.390  -4.116  0.00  0.00     0.000 C 
ATOM     17  C   UNL d   1      23.845  11.821  -2.075  0.00  0.00     0.013 A 
ENDBRANCH   1  11
TORSDOF 3
ENDMDL
