MODEL 1
REMARK VINA RESULT:      -8.1      0.000      0.000
REMARK  2 active torsions:
REMARK  status: ('A' for Active; 'I' for Inactive)
REMARK    1  A    between atoms: C_3  and  C_1 
REMARK       I    between atoms: N_6  and  C_3 
REMARK    2  A    between atoms: C_11  and  N_6 
ROOT
ATOM      1  C   UNL d   1     -48.799  13.658  22.955  0.00  0.00     0.121 A 
ATOM      2  C   UNL d   1     -49.454  13.153  23.102  0.00  0.00     0.305 A 
ATOM      3  C   UNL d   1     -48.887  14.475  23.034  0.00  0.00     0.012 A 
ATOM      4  O   UNL d   1     -50.191  13.470  23.327  0.00  0.00    -0.273 OA
ATOM      5  C   UNL d   1     -49.620  14.786  23.257  0.00  0.00     0.023 A 
ATOM      6  C   UNL d   1     -50.263  14.290  23.401  0.00  0.00     0.103 A 
ATOM      7  O   UNL d   1     -49.407  12.308  23.032  0.00  0.00    -0.259 OA
ATOM      8  C   UNL d   1     -49.686  15.597  23.330  0.00  0.00     0.002 A 
ATOM      9  C   UNL d   1     -50.990  14.592  23.622  0.00  0.00     0.025 A 
ATOM     10  C   UNL d   1     -51.064  15.415  23.698  0.00  0.00     0.002 A 
ATOM     11  C   UNL d   1     -50.409  15.920  23.551  0.00  0.00     0.000 A 
ENDROOT
BRANCH   1  12
ATOM     12  C   UNL d   1     -48.048  13.355  22.727  0.00  0.00     0.284 C 
ATOM     13  N   UNL d   1     -47.386  13.463  23.208  0.00  0.00    -0.208 NA
ATOM     14  O   UNL d   1     -48.000  12.944  22.002  0.00  0.00    -0.265 OA
BRANCH  13  15
ATOM     15  C   UNL d   1     -46.651  13.159  22.970  0.00  0.00     0.085 A 
ATOM     16  C   UNL d   1     -46.395  12.422  23.236  0.00  0.00     0.019 A 
ATOM     17  C   UNL d   1     -45.682  12.135  23.000  0.00  0.00     0.002 A 
ATOM     18  C   UNL d   1     -45.426  11.402  23.266  0.00  0.00     0.000 C 
ATOM     19  C   UNL d   1     -45.204  12.568  22.495  0.00  0.00     0.000 A 
ATOM     20  C   UNL d   1     -45.468  13.326  22.221  0.00  0.00     0.002 A 
ATOM     21  C   UNL d   1     -44.462  12.254  22.259  0.00  0.00     0.000 C 
ATOM     22  C   UNL d   1     -46.196  13.610  22.467  0.00  0.00     0.019 A 
ENDBRANCH  13  15
ENDBRANCH   1  12
TORSDOF 2
ENDMDL
MODEL 2
REMARK VINA RESULT:      -7.5      0.879      1.294
REMARK  2 active torsions:
REMARK  status: ('A' for Active; 'I' for Inactive)
REMARK    1  A    between atoms: C_3  and  C_1 
REMARK       I    between atoms: N_6  and  C_3 
REMARK    2  A    between atoms: C_11  and  N_6 
ROOT
ATOM      1  C   UNL d   1     -48.414  14.228  22.758  0.00  0.00     0.121 A 
ATOM      2  C   UNL d   1     -48.380  15.028  22.505  0.00  0.00     0.305 A 
ATOM      3  C   UNL d   1     -49.101  13.942  23.118  0.00  0.00     0.012 A 
ATOM      4  O   UNL d   1     -49.033  15.536  22.615  0.00  0.00    -0.273 OA
ATOM      5  C   UNL d   1     -49.746  14.448  23.226  0.00  0.00     0.023 A 
ATOM      6  C   UNL d   1     -49.712  15.234  22.978  0.00  0.00     0.103 A 
ATOM      7  O   UNL d   1     -47.696  15.363  22.131  0.00  0.00    -0.259 OA
ATOM      8  C   UNL d   1     -50.415  14.145  23.584  0.00  0.00     0.002 A 
ATOM      9  C   UNL d   1     -50.347  15.739  23.081  0.00  0.00     0.025 A 
ATOM     10  C   UNL d   1     -51.030  15.437  23.445  0.00  0.00     0.002 A 
ATOM     11  C   UNL d   1     -51.064  14.637  23.698  0.00  0.00     0.000 A 
ENDROOT
BRANCH   1  12
ATOM     12  C   UNL d   1     -47.767  13.703  22.655  0.00  0.00     0.284 C 
ATOM     13  N   UNL d   1     -47.205  13.603  23.251  0.00  0.00    -0.208 NA
ATOM     14  O   UNL d   1     -47.714  13.290  21.931  0.00  0.00    -0.265 OA
BRANCH  13  15
ATOM     15  C   UNL d   1     -46.570  13.080  23.135  0.00  0.00     0.085 A 
ATOM     16  C   UNL d   1     -46.602  12.308  23.422  0.00  0.00     0.019 A 
ATOM     17  C   UNL d   1     -45.983  11.810  23.305  0.00  0.00     0.002 A 
ATOM     18  C   UNL d   1     -46.014  11.041  23.591  0.00  0.00     0.000 C 
ATOM     19  C   UNL d   1     -45.316  12.060  22.900  0.00  0.00     0.000 A 
ATOM     20  C   UNL d   1     -45.283  12.854  22.604  0.00  0.00     0.002 A 
ATOM     21  C   UNL d   1     -44.678  11.527  22.786  0.00  0.00     0.000 C 
ATOM     22  C   UNL d   1     -45.919  13.355  22.729  0.00  0.00     0.019 A 
ENDBRANCH  13  15
ENDBRANCH   1  12
TORSDOF 2
ENDMDL
MODEL 3
REMARK VINA RESULT:      -6.4      0.968      1.542
REMARK  2 active torsions:
REMARK  status: ('A' for Active; 'I' for Inactive)
REMARK    1  A    between atoms: C_3  and  C_1 
REMARK       I    between atoms: N_6  and  C_3 
REMARK    2  A    between atoms: C_11  and  N_6 
ROOT
ATOM      1  C   UNL d   1     -48.135  12.837  22.858  0.00  0.00     0.121 A 
ATOM      2  C   UNL d   1     -48.919  12.566  22.992  0.00  0.00     0.305 A 
ATOM      3  C   UNL d   1     -47.998  13.640  22.723  0.00  0.00     0.012 A 
ATOM      4  O   UNL d   1     -49.559  13.101  22.988  0.00  0.00    -0.273 OA
ATOM      5  C   UNL d   1     -48.634  14.168  22.720  0.00  0.00     0.023 A 
ATOM      6  C   UNL d   1     -49.404  13.902  22.850  0.00  0.00     0.103 A 
ATOM      7  O   UNL d   1     -49.105  11.751  23.135  0.00  0.00    -0.259 OA
ATOM      8  C   UNL d   1     -48.477  14.958  22.583  0.00  0.00     0.002 A 
ATOM      9  C   UNL d   1     -50.037  14.419  22.849  0.00  0.00     0.025 A 
ATOM     10  C   UNL d   1     -49.884  15.224  22.711  0.00  0.00     0.002 A 
ATOM     11  C   UNL d   1     -49.100  15.494  22.577  0.00  0.00     0.000 A 
ENDROOT
BRANCH   1  12
ATOM     12  C   UNL d   1     -47.479  12.312  22.859  0.00  0.00     0.284 C 
ATOM     13  N   UNL d   1     -46.827  12.451  23.345  0.00  0.00    -0.208 NA
ATOM     14  O   UNL d   1     -47.512  11.650  22.352  0.00  0.00    -0.265 OA
BRANCH  13  15
ATOM     15  C   UNL d   1     -46.186  11.923  23.334  0.00  0.00     0.085 A 
ATOM     16  C   UNL d   1     -45.477  12.129  22.966  0.00  0.00     0.019 A 
ATOM     17  C   UNL d   1     -44.863  11.611  22.961  0.00  0.00     0.002 A 
ATOM     18  C   UNL d   1     -44.158  11.816  22.594  0.00  0.00     0.000 C 
ATOM     19  C   UNL d   1     -44.931  10.878  23.319  0.00  0.00     0.000 A 
ATOM     20  C   UNL d   1     -45.660  10.667  23.697  0.00  0.00     0.002 A 
ATOM     21  C   UNL d   1     -44.279  10.349  23.304  0.00  0.00     0.000 C 
ATOM     22  C   UNL d   1     -46.281  11.200  23.698  0.00  0.00     0.019 A 
ENDBRANCH  13  15
ENDBRANCH   1  12
TORSDOF 2
ENDMDL
MODEL 4
REMARK VINA RESULT:      -6.2      8.297      9.645
REMARK  2 active torsions:
REMARK  status: ('A' for Active; 'I' for Inactive)
REMARK    1  A    between atoms: C_3  and  C_1 
REMARK       I    between atoms: N_6  and  C_3 
REMARK    2  A    between atoms: C_11  and  N_6 
ROOT
ATOM      1  C   UNL d   1     -39.973  14.368  20.400  0.00  0.00     0.121 A 
ATOM      2  C   UNL d   1     -40.397  14.582  21.093  0.00  0.00     0.305 A 
ATOM      3  C   UNL d   1     -39.253  13.968  20.470  0.00  0.00     0.012 A 
ATOM      4  O   UNL d   1     -40.098  14.394  21.848  0.00  0.00    -0.273 OA
ATOM      5  C   UNL d   1     -38.959  13.784  21.220  0.00  0.00     0.023 A 
ATOM      6  C   UNL d   1     -39.376  13.994  21.900  0.00  0.00     0.103 A 
ATOM      7  O   UNL d   1     -41.139  14.993  21.067  0.00  0.00    -0.259 OA
ATOM      8  C   UNL d   1     -38.246  13.388  21.266  0.00  0.00     0.002 A 
ATOM      9  C   UNL d   1     -39.091  13.814  22.645  0.00  0.00     0.025 A 
ATOM     10  C   UNL d   1     -38.366  13.412  22.699  0.00  0.00     0.002 A 
ATOM     11  C   UNL d   1     -37.942  13.198  22.006  0.00  0.00     0.000 A 
ENDROOT
BRANCH   1  12
ATOM     12  C   UNL d   1     -40.259  14.549  19.631  0.00  0.00     0.284 C 
ATOM     13  N   UNL d   1     -39.967  15.198  19.214  0.00  0.00    -0.208 NA
ATOM     14  O   UNL d   1     -40.846  14.050  19.309  0.00  0.00    -0.265 OA
BRANCH  13  15
ATOM     15  C   UNL d   1     -40.260  15.364  18.455  0.00  0.00     0.085 A 
ATOM     16  C   UNL d   1     -39.836  15.143  17.782  0.00  0.00     0.019 A 
ATOM     17  C   UNL d   1     -40.128  15.309  17.052  0.00  0.00     0.002 A 
ATOM     18  C   UNL d   1     -39.706  15.090  16.383  0.00  0.00     0.000 C 
ATOM     19  C   UNL d   1     -40.845  15.695  16.966  0.00  0.00     0.000 A 
ATOM     20  C   UNL d   1     -41.280  15.922  17.657  0.00  0.00     0.002 A 
ATOM     21  C   UNL d   1     -41.135  15.860  16.195  0.00  0.00     0.000 C 
ATOM     22  C   UNL d   1     -40.975  15.749  18.397  0.00  0.00     0.019 A 
ENDBRANCH  13  15
ENDBRANCH   1  12
TORSDOF 2
ENDMDL
MODEL 5
REMARK VINA RESULT:      -6.1      8.641     10.260
REMARK  2 active torsions:
REMARK  status: ('A' for Active; 'I' for Inactive)
REMARK    1  A    between atoms: C_3  and  C_1 
REMARK       I    between atoms: N_6  and  C_3 
REMARK    2  A    between atoms: C_11  and  N_6 
ROOT
ATOM      1  C   UNL d   1     -39.790  14.971  19.052  0.00  0.00     0.121 A 
ATOM      2  C   UNL d   1     -40.377  15.568  19.117  0.00  0.00     0.305 A 
ATOM      3  C   UNL d   1     -39.431  14.676  19.735  0.00  0.00     0.012 A 
ATOM      4  O   UNL d   1     -40.600  15.864  19.864  0.00  0.00    -0.273 OA
ATOM      5  C   UNL d   1     -39.653  14.972  20.474  0.00  0.00     0.023 A 
ATOM      6  C   UNL d   1     -40.230  15.558  20.538  0.00  0.00     0.103 A 
ATOM      7  O   UNL d   1     -40.772  15.899  18.443  0.00  0.00    -0.259 OA
ATOM      8  C   UNL d   1     -39.285  14.667  21.136  0.00  0.00     0.002 A 
ATOM      9  C   UNL d   1     -40.454  15.855  21.266  0.00  0.00     0.025 A 
ATOM     10  C   UNL d   1     -40.084  15.549  21.943  0.00  0.00     0.002 A 
ATOM     11  C   UNL d   1     -39.497  14.952  21.878  0.00  0.00     0.000 A 
ENDROOT
BRANCH   1  12
ATOM     12  C   UNL d   1     -39.554  14.661  18.308  0.00  0.00     0.284 C 
ATOM     13  N   UNL d   1     -38.810  14.834  17.995  0.00  0.00    -0.208 NA
ATOM     14  O   UNL d   1     -40.097  14.174  17.901  0.00  0.00    -0.265 OA
BRANCH  13  15
ATOM     15  C   UNL d   1     -38.591  14.521  17.258  0.00  0.00     0.085 A 
ATOM     16  C   UNL d   1     -38.371  15.017  16.637  0.00  0.00     0.019 A 
ATOM     17  C   UNL d   1     -38.161  14.704  15.928  0.00  0.00     0.002 A 
ATOM     18  C   UNL d   1     -37.941  15.198  15.310  0.00  0.00     0.000 C 
ATOM     19  C   UNL d   1     -38.162  13.893  15.812  0.00  0.00     0.000 A 
ATOM     20  C   UNL d   1     -38.389  13.383  16.450  0.00  0.00     0.002 A 
ATOM     21  C   UNL d   1     -37.940  13.583  15.064  0.00  0.00     0.000 C 
ATOM     22  C   UNL d   1     -38.602  13.710  17.169  0.00  0.00     0.019 A 
ENDBRANCH  13  15
ENDBRANCH   1  12
TORSDOF 2
ENDMDL
MODEL 6
REMARK VINA RESULT:      -6.0      8.301     11.053
REMARK  2 active torsions:
REMARK  status: ('A' for Active; 'I' for Inactive)
REMARK    1  A    between atoms: C_3  and  C_1 
REMARK       I    between atoms: N_6  and  C_3 
REMARK    2  A    between atoms: C_11  and  N_6 
ROOT
ATOM      1  C   UNL d   1     -38.679  14.058  17.656  0.00  0.00     0.121 A 
ATOM      2  C   UNL d   1     -38.649  13.239  17.473  0.00  0.00     0.305 A 
ATOM      3  C   UNL d   1     -38.515  14.614  17.068  0.00  0.00     0.012 A 
ATOM      4  O   UNL d   1     -38.456  12.984  16.703  0.00  0.00    -0.273 OA
ATOM      5  C   UNL d   1     -38.324  14.358  16.306  0.00  0.00     0.023 A 
ATOM      6  C   UNL d   1     -38.295  13.554  16.126  0.00  0.00     0.103 A 
ATOM      7  O   UNL d   1     -38.810  12.634  18.046  0.00  0.00    -0.259 OA
ATOM      8  C   UNL d   1     -38.165  14.925  15.739  0.00  0.00     0.002 A 
ATOM      9  C   UNL d   1     -38.106  13.294  15.373  0.00  0.00     0.025 A 
ATOM     10  C   UNL d   1     -37.944  13.865  14.793  0.00  0.00     0.002 A 
ATOM     11  C   UNL d   1     -37.973  14.684  14.976  0.00  0.00     0.000 A 
ENDROOT
BRANCH   1  12
ATOM     12  C   UNL d   1     -38.871  14.332  18.427  0.00  0.00     0.284 C 
ATOM     13  N   UNL d   1     -39.544  14.793  18.555  0.00  0.00    -0.208 NA
ATOM     14  O   UNL d   1     -38.360  14.123  19.052  0.00  0.00    -0.265 OA
BRANCH  13  15
ATOM     15  C   UNL d   1     -39.721  15.057  19.322  0.00  0.00     0.085 A 
ATOM     16  C   UNL d   1     -40.382  14.770  19.724  0.00  0.00     0.019 A 
ATOM     17  C   UNL d   1     -40.545  15.032  20.466  0.00  0.00     0.002 A 
ATOM     18  C   UNL d   1     -41.203  14.746  20.866  0.00  0.00     0.000 C 
ATOM     19  C   UNL d   1     -40.062  15.582  20.831  0.00  0.00     0.000 A 
ATOM     20  C   UNL d   1     -39.382  15.877  20.418  0.00  0.00     0.002 A 
ATOM     21  C   UNL d   1     -40.247  15.845  21.606  0.00  0.00     0.000 C 
ATOM     22  C   UNL d   1     -39.223  15.605  19.662  0.00  0.00     0.019 A 
ENDBRANCH  13  15
ENDBRANCH   1  12
TORSDOF 2
ENDMDL
MODEL 7
REMARK VINA RESULT:      -5.6      1.400      5.088
REMARK  2 active torsions:
REMARK  status: ('A' for Active; 'I' for Inactive)
REMARK    1  A    between atoms: C_3  and  C_1 
REMARK       I    between atoms: N_6  and  C_3 
REMARK    2  A    between atoms: C_11  and  N_6 
ROOT
ATOM      1  C   UNL d   1     -46.495  11.813  23.103  0.00  0.00     0.121 A 
ATOM      2  C   UNL d   1     -45.898  12.402  23.049  0.00  0.00     0.305 A 
ATOM      3  C   UNL d   1     -46.285  11.034  23.278  0.00  0.00     0.012 A 
ATOM      4  O   UNL d   1     -45.097  12.205  23.169  0.00  0.00    -0.273 OA
ATOM      5  C   UNL d   1     -45.490  10.842  23.397  0.00  0.00     0.023 A 
ATOM      6  C   UNL d   1     -44.903  11.420  23.343  0.00  0.00     0.103 A 
ATOM      7  O   UNL d   1     -46.069  13.214  22.872  0.00  0.00    -0.259 OA
ATOM      8  C   UNL d   1     -45.303  10.066  23.568  0.00  0.00     0.002 A 
ATOM      9  C   UNL d   1     -44.115  11.237  23.460  0.00  0.00     0.025 A 
ATOM     10  C   UNL d   1     -43.919  10.449  23.635  0.00  0.00     0.002 A 
ATOM     11  C   UNL d   1     -44.516   9.861  23.689  0.00  0.00     0.000 A 
ENDROOT
BRANCH   1  12
ATOM     12  C   UNL d   1     -47.307  11.993  22.984  0.00  0.00     0.284 C 
ATOM     13  N   UNL d   1     -47.771  12.278  23.604  0.00  0.00    -0.208 NA
ATOM     14  O   UNL d   1     -47.623  11.874  22.221  0.00  0.00    -0.265 OA
BRANCH  13  15
ATOM     15  C   UNL d   1     -48.572  12.452  23.471  0.00  0.00     0.085 A 
ATOM     16  C   UNL d   1     -48.801  13.188  23.177  0.00  0.00     0.019 A 
ATOM     17  C   UNL d   1     -49.578  13.346  23.052  0.00  0.00     0.002 A 
ATOM     18  C   UNL d   1     -49.805  14.079  22.758  0.00  0.00     0.000 C 
ATOM     19  C   UNL d   1     -50.151  12.784  23.214  0.00  0.00     0.000 A 
ATOM     20  C   UNL d   1     -49.916  12.027  23.517  0.00  0.00     0.002 A 
ATOM     21  C   UNL d   1     -50.959  12.966  23.077  0.00  0.00     0.000 C 
ATOM     22  C   UNL d   1     -49.122  11.874  23.641  0.00  0.00     0.019 A 
ENDBRANCH  13  15
ENDBRANCH   1  12
TORSDOF 2
ENDMDL
