MODEL 1
REMARK VINA RESULT:      -8.0      0.000      0.000
REMARK  4 active torsions:
REMARK  status: ('A' for Active; 'I' for Inactive)
REMARK    1  A    between atoms: N_14  and  C_6 
REMARK    2  A    between atoms: C_19  and  N_14 
REMARK    3  A    between atoms: O_17  and  C_20 
REMARK    4  A    between atoms: C_20  and  C_19 
ROOT
ATOM      1  N   UNL d   1     -47.305  12.155  23.361  0.00  0.00    -0.183 N 
ATOM      2  C   UNL d   1     -47.850  12.766  23.222  0.00  0.00     0.169 A 
ATOM      3  C   UNL d   1     -48.654  12.632  23.293  0.00  0.00     0.073 A 
ATOM      4  C   UNL d   1     -48.910  11.885  23.503  0.00  0.00     0.185 A 
ATOM      5  N   UNL d   1     -48.366  11.274  23.642  0.00  0.00    -0.142 NA
ATOM      6  C   UNL d   1     -46.506  12.308  23.285  0.00  0.00     0.218 A 
ATOM      7  N   UNL d   1     -47.580  13.513  23.011  0.00  0.00    -0.226 NA
ATOM      8  C   UNL d   1     -49.192  13.236  23.156  0.00  0.00     0.007 A 
ATOM      9  N   UNL d   1     -49.721  11.734  23.579  0.00  0.00    -0.225 NA
ATOM     10  C   UNL d   1     -46.234  13.045  23.077  0.00  0.00     0.071 A 
ATOM     11  C   UNL d   1     -49.996  13.103  23.227  0.00  0.00     0.019 A 
ATOM     12  C   UNL d   1     -46.779  13.656  22.938  0.00  0.00     0.087 A 
ATOM     13  C   UNL d   1     -50.266  12.345  23.441  0.00  0.00     0.083 A 
ATOM     14  C   UNL d   1     -48.920  13.986  22.944  0.00  0.00     0.000 C 
ATOM     15  C   UNL d   1     -46.495  14.431  22.719  0.00  0.00     0.021 C 
ATOM     16  C   UNL d   1     -51.064  12.205  23.513  0.00  0.00     0.021 C 
ENDROOT
BRANCH   6  17
ATOM     17  N   UNL d   1     -45.952  11.672  23.430  0.00  0.00    -0.378 NA
BRANCH  17  18
ATOM     18  C   UNL d   1     -45.546  10.943  23.571  0.00  0.00     0.189 C 
BRANCH  18  19
ATOM     19  C   UNL d   1     -44.739  10.852  23.328  0.00  0.00     0.151 C 
BRANCH  19  20
ATOM     20  O   UNL d   1     -44.256  10.263  23.685  0.00  0.00    -0.323 OA
ATOM     21  C   UNL d   1     -43.405  10.296  23.630  0.00  0.00     0.182 C 
ENDBRANCH  19  20
ENDBRANCH  18  19
ENDBRANCH  17  18
ENDBRANCH   6  17
TORSDOF 4
ENDMDL
MODEL 2
REMARK VINA RESULT:      -7.4      1.587      2.461
REMARK  4 active torsions:
REMARK  status: ('A' for Active; 'I' for Inactive)
REMARK    1  A    between atoms: N_14  and  C_6 
REMARK    2  A    between atoms: C_19  and  N_14 
REMARK    3  A    between atoms: O_17  and  C_20 
REMARK    4  A    between atoms: C_20  and  C_19 
ROOT
ATOM      1  N   UNL d   1     -47.542  13.580  22.888  0.00  0.00    -0.183 N 
ATOM      2  C   UNL d   1     -48.314  13.398  23.133  0.00  0.00     0.169 A 
ATOM      3  C   UNL d   1     -48.903  13.966  23.112  0.00  0.00     0.073 A 
ATOM      4  C   UNL d   1     -48.716  14.716  22.846  0.00  0.00     0.185 A 
ATOM      5  N   UNL d   1     -47.944  14.898  22.601  0.00  0.00    -0.142 NA
ATOM      6  C   UNL d   1     -46.967  13.000  22.915  0.00  0.00     0.218 A 
ATOM      7  N   UNL d   1     -48.490  12.641  23.398  0.00  0.00    -0.226 NA
ATOM      8  C   UNL d   1     -49.666  13.786  23.354  0.00  0.00     0.007 A 
ATOM      9  N   UNL d   1     -49.301  15.301  22.819  0.00  0.00    -0.225 NA
ATOM     10  C   UNL d   1     -47.136  12.250  23.177  0.00  0.00     0.071 A 
ATOM     11  C   UNL d   1     -50.255  14.353  23.334  0.00  0.00     0.019 A 
ATOM     12  C   UNL d   1     -47.908  12.067  23.422  0.00  0.00     0.087 A 
ATOM     13  C   UNL d   1     -50.073  15.119  23.064  0.00  0.00     0.083 A 
ATOM     14  C   UNL d   1     -49.842  13.025  23.621  0.00  0.00     0.000 C 
ATOM     15  C   UNL d   1     -48.087  11.279  23.698  0.00  0.00     0.021 C 
ATOM     16  C   UNL d   1     -50.654  15.689  23.041  0.00  0.00     0.021 C 
ENDROOT
BRANCH   6  17
ATOM     17  N   UNL d   1     -46.174  13.196  22.661  0.00  0.00    -0.378 NA
BRANCH  17  18
ATOM     18  C   UNL d   1     -45.347  13.355  22.575  0.00  0.00     0.189 C 
BRANCH  18  19
ATOM     19  C   UNL d   1     -44.928  13.066  21.897  0.00  0.00     0.151 C 
BRANCH  19  20
ATOM     20  O   UNL d   1     -44.108  13.230  21.809  0.00  0.00    -0.323 OA
ATOM     21  C   UNL d   1     -43.584  12.674  21.427  0.00  0.00     0.182 C 
ENDBRANCH  19  20
ENDBRANCH  18  19
ENDBRANCH  17  18
ENDBRANCH   6  17
TORSDOF 4
ENDMDL
MODEL 3
REMARK VINA RESULT:      -5.3      2.019      4.144
REMARK  4 active torsions:
REMARK  status: ('A' for Active; 'I' for Inactive)
REMARK    1  A    between atoms: N_14  and  C_6 
REMARK    2  A    between atoms: C_19  and  N_14 
REMARK    3  A    between atoms: O_17  and  C_20 
REMARK    4  A    between atoms: C_20  and  C_19 
ROOT
ATOM      1  N   UNL d   1     -47.882  13.076  23.267  0.00  0.00    -0.183 N 
ATOM      2  C   UNL d   1     -47.066  13.061  23.121  0.00  0.00     0.169 A 
ATOM      3  C   UNL d   1     -46.629  12.384  23.262  0.00  0.00     0.073 A 
ATOM      4  C   UNL d   1     -47.013  11.722  23.549  0.00  0.00     0.185 A 
ATOM      5  N   UNL d   1     -47.830  11.736  23.695  0.00  0.00    -0.142 NA
ATOM      6  C   UNL d   1     -48.302  13.761  23.120  0.00  0.00     0.218 A 
ATOM      7  N   UNL d   1     -46.691  13.733  22.833  0.00  0.00    -0.226 NA
ATOM      8  C   UNL d   1     -45.821  12.369  23.118  0.00  0.00     0.007 A 
ATOM      9  N   UNL d   1     -46.585  11.028  23.696  0.00  0.00    -0.225 NA
ATOM     10  C   UNL d   1     -47.935  14.428  22.835  0.00  0.00     0.071 A 
ATOM     11  C   UNL d   1     -45.384  11.693  23.258  0.00  0.00     0.019 A 
ATOM     12  C   UNL d   1     -47.119  14.414  22.689  0.00  0.00     0.087 A 
ATOM     13  C   UNL d   1     -45.768  11.014  23.550  0.00  0.00     0.083 A 
ATOM     14  C   UNL d   1     -45.445  13.045  22.828  0.00  0.00     0.000 C 
ATOM     15  C   UNL d   1     -46.732  15.114  22.389  0.00  0.00     0.021 C 
ATOM     16  C   UNL d   1     -45.339  10.336  23.692  0.00  0.00     0.021 C 
ENDROOT
BRANCH   6  17
ATOM     17  N   UNL d   1     -49.144  13.768  23.274  0.00  0.00    -0.378 NA
BRANCH  17  18
ATOM     18  C   UNL d   1     -49.979  13.900  23.304  0.00  0.00     0.189 C 
BRANCH  18  19
ATOM     19  C   UNL d   1     -50.495  13.482  22.777  0.00  0.00     0.151 C 
BRANCH  19  20
ATOM     20  O   UNL d   1     -51.062  13.905  22.322  0.00  0.00    -0.323 OA
ATOM     21  C   UNL d   1     -51.053  13.878  21.469  0.00  0.00     0.182 C 
ENDBRANCH  19  20
ENDBRANCH  18  19
ENDBRANCH  17  18
ENDBRANCH   6  17
TORSDOF 4
ENDMDL
MODEL 4
REMARK VINA RESULT:      -5.3      8.729     10.147
REMARK  4 active torsions:
REMARK  status: ('A' for Active; 'I' for Inactive)
REMARK    1  A    between atoms: N_14  and  C_6 
REMARK    2  A    between atoms: C_19  and  N_14 
REMARK    3  A    between atoms: O_17  and  C_20 
REMARK    4  A    between atoms: C_20  and  C_19 
ROOT
ATOM      1  N   UNL d   1     -39.331  14.651  18.008  0.00  0.00    -0.183 N 
ATOM      2  C   UNL d   1     -39.908  14.868  18.564  0.00  0.00     0.169 A 
ATOM      3  C   UNL d   1     -39.822  14.670  19.353  0.00  0.00     0.073 A 
ATOM      4  C   UNL d   1     -39.156  14.254  19.583  0.00  0.00     0.185 A 
ATOM      5  N   UNL d   1     -38.580  14.037  19.026  0.00  0.00    -0.142 NA
ATOM      6  C   UNL d   1     -39.435  14.858  17.224  0.00  0.00     0.218 A 
ATOM      7  N   UNL d   1     -40.572  15.285  18.321  0.00  0.00    -0.226 NA
ATOM      8  C   UNL d   1     -40.392  14.884  19.903  0.00  0.00     0.007 A 
ATOM      9  N   UNL d   1     -39.055  14.046  20.378  0.00  0.00    -0.225 NA
ATOM     10  C   UNL d   1     -40.090  15.271  16.979  0.00  0.00     0.071 A 
ATOM     11  C   UNL d   1     -40.306  14.686  20.691  0.00  0.00     0.019 A 
ATOM     12  C   UNL d   1     -40.667  15.488  17.535  0.00  0.00     0.087 A 
ATOM     13  C   UNL d   1     -39.631  14.263  20.934  0.00  0.00     0.083 A 
ATOM     14  C   UNL d   1     -41.059  15.304  19.658  0.00  0.00     0.000 C 
ATOM     15  C   UNL d   1     -41.356  15.922  17.279  0.00  0.00     0.021 C 
ATOM     16  C   UNL d   1     -39.540  14.062  21.718  0.00  0.00     0.021 C 
ENDROOT
BRANCH   6  17
ATOM     17  N   UNL d   1     -38.835  14.630  16.657  0.00  0.00    -0.378 NA
BRANCH  17  18
ATOM     18  C   UNL d   1     -38.271  14.564  16.031  0.00  0.00     0.189 C 
BRANCH  18  19
ATOM     19  C   UNL d   1     -38.286  13.892  15.514  0.00  0.00     0.151 C 
BRANCH  19  20
ATOM     20  O   UNL d   1     -37.942  13.942  14.748  0.00  0.00    -0.323 OA
ATOM     21  C   UNL d   1     -38.057  13.326  14.170  0.00  0.00     0.182 C 
ENDBRANCH  19  20
ENDBRANCH  18  19
ENDBRANCH  17  18
ENDBRANCH   6  17
TORSDOF 4
ENDMDL
MODEL 5
REMARK VINA RESULT:      -5.3      7.093      8.992
REMARK  4 active torsions:
REMARK  status: ('A' for Active; 'I' for Inactive)
REMARK    1  A    between atoms: N_14  and  C_6 
REMARK    2  A    between atoms: C_19  and  N_14 
REMARK    3  A    between atoms: O_17  and  C_20 
REMARK    4  A    between atoms: C_20  and  C_19 
ROOT
ATOM      1  N   UNL d   1     -40.717  14.394  19.714  0.00  0.00    -0.183 N 
ATOM      2  C   UNL d   1     -40.116  14.905  19.455  0.00  0.00     0.169 A 
ATOM      3  C   UNL d   1     -39.934  14.965  18.660  0.00  0.00     0.073 A 
ATOM      4  C   UNL d   1     -40.355  14.512  18.125  0.00  0.00     0.185 A 
ATOM      5  N   UNL d   1     -40.956  14.001  18.385  0.00  0.00    -0.142 NA
ATOM      6  C   UNL d   1     -40.884  14.348  20.513  0.00  0.00     0.218 A 
ATOM      7  N   UNL d   1     -39.699  15.355  20.001  0.00  0.00    -0.226 NA
ATOM      8  C   UNL d   1     -39.340  15.470  18.403  0.00  0.00     0.007 A 
ATOM      9  N   UNL d   1     -40.183  14.561  17.317  0.00  0.00    -0.225 NA
ATOM     10  C   UNL d   1     -40.475  14.791  21.057  0.00  0.00     0.071 A 
ATOM     11  C   UNL d   1     -39.158  15.530  17.609  0.00  0.00     0.019 A 
ATOM     12  C   UNL d   1     -39.874  15.302  20.798  0.00  0.00     0.087 A 
ATOM     13  C   UNL d   1     -39.582  15.072  17.058  0.00  0.00     0.083 A 
ATOM     14  C   UNL d   1     -38.922  15.922  18.953  0.00  0.00     0.000 C 
ATOM     15  C   UNL d   1     -39.443  15.768  21.368  0.00  0.00     0.021 C 
ATOM     16  C   UNL d   1     -39.406  15.127  16.265  0.00  0.00     0.021 C 
ENDROOT
BRANCH   6  17
ATOM     17  N   UNL d   1     -41.505  13.818  20.771  0.00  0.00    -0.378 NA
BRANCH  17  18
ATOM     18  C   UNL d   1     -41.994  13.228  21.129  0.00  0.00     0.189 C 
BRANCH  18  19
ATOM     19  C   UNL d   1     -42.833  13.343  21.178  0.00  0.00     0.151 C 
BRANCH  19  20
ATOM     20  O   UNL d   1     -43.320  12.749  21.520  0.00  0.00    -0.323 OA
ATOM     21  C   UNL d   1     -44.152  12.881  21.652  0.00  0.00     0.182 C 
ENDBRANCH  19  20
ENDBRANCH  18  19
ENDBRANCH  17  18
ENDBRANCH   6  17
TORSDOF 4
ENDMDL
MODEL 6
REMARK VINA RESULT:      -5.2      9.292     10.123
REMARK  4 active torsions:
REMARK  status: ('A' for Active; 'I' for Inactive)
REMARK    1  A    between atoms: N_14  and  C_6 
REMARK    2  A    between atoms: C_19  and  N_14 
REMARK    3  A    between atoms: O_17  and  C_20 
REMARK    4  A    between atoms: C_20  and  C_19 
ROOT
ATOM      1  N   UNL d   1     -39.641  14.860  18.820  0.00  0.00    -0.183 N 
ATOM      2  C   UNL d   1     -39.163  14.447  19.359  0.00  0.00     0.169 A 
ATOM      3  C   UNL d   1     -39.119  14.681  20.142  0.00  0.00     0.073 A 
ATOM      4  C   UNL d   1     -39.557  15.328  20.383  0.00  0.00     0.185 A 
ATOM      5  N   UNL d   1     -40.035  15.740  19.845  0.00  0.00    -0.142 NA
ATOM      6  C   UNL d   1     -39.672  14.612  18.042  0.00  0.00     0.218 A 
ATOM      7  N   UNL d   1     -38.728  13.798  19.104  0.00  0.00    -0.226 NA
ATOM      8  C   UNL d   1     -38.646  14.273  20.674  0.00  0.00     0.007 A 
ATOM      9  N   UNL d   1     -39.523  15.576  21.173  0.00  0.00    -0.225 NA
ATOM     10  C   UNL d   1     -39.244  13.971  17.786  0.00  0.00     0.071 A 
ATOM     11  C   UNL d   1     -38.602  14.505  21.456  0.00  0.00     0.019 A 
ATOM     12  C   UNL d   1     -38.765  13.558  18.324  0.00  0.00     0.087 A 
ATOM     13  C   UNL d   1     -39.044  15.164  21.711  0.00  0.00     0.083 A 
ATOM     14  C   UNL d   1     -38.210  13.621  20.417  0.00  0.00     0.000 C 
ATOM     15  C   UNL d   1     -38.315  12.884  18.056  0.00  0.00     0.021 C 
ATOM     16  C   UNL d   1     -39.006  15.401  22.489  0.00  0.00     0.021 C 
ENDROOT
BRANCH   6  17
ATOM     17  N   UNL d   1     -40.168  15.043  17.494  0.00  0.00    -0.378 NA
BRANCH  17  18
ATOM     18  C   UNL d   1     -40.508  15.542  16.902  0.00  0.00     0.189 C 
BRANCH  18  19
ATOM     19  C   UNL d   1     -41.349  15.564  16.796  0.00  0.00     0.151 C 
BRANCH  19  20
ATOM     20  O   UNL d   1     -41.674  15.739  16.041  0.00  0.00    -0.323 OA
ATOM     21  C   UNL d   1     -42.502  15.922  15.947  0.00  0.00     0.182 C 
ENDBRANCH  19  20
ENDBRANCH  18  19
ENDBRANCH  17  18
ENDBRANCH   6  17
TORSDOF 4
ENDMDL
