MODEL 1
REMARK VINA RESULT:      47.2      0.000      0.000
REMARK  3 active torsions:
REMARK  status: ('A' for Active; 'I' for Inactive)
REMARK       I    between atoms: N_2  and  C_1 
REMARK    1  A    between atoms: C_8  and  C_1 
REMARK    2  A    between atoms: C_6  and  N_2 
REMARK    3  A    between atoms: N_4  and  C_8 
ROOT
ATOM      1  N   UNL d   1     -50.111  23.188  33.623  0.00  0.00    -0.191 NA
ATOM      2  C   UNL d   1     -50.845  23.500  33.601  0.00  0.00     0.102 C 
ATOM      3  C   UNL d   1     -51.697  24.630  33.430  0.00  0.00     0.094 A 
ATOM      4  C   UNL d   1     -51.599  23.816  33.579  0.00  0.00     0.086 A 
ATOM      5  C   UNL d   1     -52.268  23.341  33.704  0.00  0.00     0.012 A 
ATOM      6  C   UNL d   1     -52.449  24.950  33.407  0.00  0.00     0.020 A 
ATOM      7  C   UNL d   1     -53.028  23.673  33.679  0.00  0.00     0.001 A 
ATOM      8  C   UNL d   1     -53.115  24.473  33.532  0.00  0.00     0.002 A 
ENDROOT
BRANCH   3   9
ATOM      9  N   UNL d   1     -51.036  25.104  33.306  0.00  0.00    -0.206 NA
ATOM     10  C   UNL d   1     -51.045  25.856  33.615  0.00  0.00     0.297 C 
ATOM     11  O   UNL d   1     -51.703  26.129  34.040  0.00  0.00    -0.264 OA
BRANCH  10  12
ATOM     12  C   UNL d   1     -50.398  26.375  33.517  0.00  0.00     0.144 C 
BRANCH  12  13
ATOM     13  N   UNL d   1     -50.097  26.810  34.133  0.00  0.00    -0.299 N 
ATOM     14  C   UNL d   1     -50.541  26.952  34.799  0.00  0.00     0.080 A 
ATOM     15  C   UNL d   1     -50.231  27.395  35.422  0.00  0.00     0.019 A 
ATOM     16  C   UNL d   1     -49.474  27.692  35.368  0.00  0.00     0.003 A 
ATOM     17  C   UNL d   1     -49.034  27.546  34.695  0.00  0.00     0.019 A 
ATOM     18  C   UNL d   1     -49.124  28.160  36.007  0.00  0.00     0.000 C 
ATOM     19  C   UNL d   1     -49.347  27.101  34.072  0.00  0.00     0.080 A 
ENDBRANCH  12  13
ENDBRANCH  10  12
ENDBRANCH   3   9
TORSDOF 3
ENDMDL
MODEL 2
REMARK VINA RESULT:      47.4      1.054      1.805
REMARK  3 active torsions:
REMARK  status: ('A' for Active; 'I' for Inactive)
REMARK       I    between atoms: N_2  and  C_1 
REMARK    1  A    between atoms: C_8  and  C_1 
REMARK    2  A    between atoms: C_6  and  N_2 
REMARK    3  A    between atoms: N_4  and  C_8 
ROOT
ATOM      1  N   UNL d   1     -53.931  25.827  33.383  0.00  0.00    -0.191 NA
ATOM      2  C   UNL d   1     -53.378  25.253  33.386  0.00  0.00     0.102 C 
ATOM      3  C   UNL d   1     -52.009  24.864  33.477  0.00  0.00     0.094 A 
ATOM      4  C   UNL d   1     -52.812  24.662  33.389  0.00  0.00     0.086 A 
ATOM      5  C   UNL d   1     -53.024  23.864  33.307  0.00  0.00     0.012 A 
ATOM      6  C   UNL d   1     -51.441  24.277  33.481  0.00  0.00     0.020 A 
ATOM      7  C   UNL d   1     -52.443  23.273  33.311  0.00  0.00     0.001 A 
ATOM      8  C   UNL d   1     -51.656  23.481  33.398  0.00  0.00     0.002 A 
ENDROOT
BRANCH   3   9
ATOM      9  N   UNL d   1     -51.795  25.655  33.559  0.00  0.00    -0.206 NA
ATOM     10  C   UNL d   1     -51.008  25.845  33.478  0.00  0.00     0.297 C 
ATOM     11  O   UNL d   1     -50.447  25.256  33.318  0.00  0.00    -0.264 OA
BRANCH  10  12
ATOM     12  C   UNL d   1     -50.742  26.633  33.553  0.00  0.00     0.144 C 
BRANCH  12  13
ATOM     13  N   UNL d   1     -49.980  26.811  33.771  0.00  0.00    -0.299 N 
ATOM     14  C   UNL d   1     -49.352  26.383  33.481  0.00  0.00     0.080 A 
ATOM     15  C   UNL d   1     -48.581  26.568  33.706  0.00  0.00     0.019 A 
ATOM     16  C   UNL d   1     -48.447  27.184  34.221  0.00  0.00     0.003 A 
ATOM     17  C   UNL d   1     -49.083  27.610  34.508  0.00  0.00     0.019 A 
ATOM     18  C   UNL d   1     -47.647  27.400  34.474  0.00  0.00     0.000 C 
ATOM     19  C   UNL d   1     -49.856  27.423  34.282  0.00  0.00     0.080 A 
ENDBRANCH  12  13
ENDBRANCH  10  12
ENDBRANCH   3   9
TORSDOF 3
ENDMDL
