MODEL 1
REMARK VINA RESULT:      11.3      0.000      0.000
REMARK  4 active torsions:
REMARK  status: ('A' for Active; 'I' for Inactive)
REMARK    1  A    between atoms: C_7  and  C_1 
REMARK    2  A    between atoms: C_6  and  C_3 
REMARK    3  A    between atoms: O_15  and  C_8 
REMARK    4  A    between atoms: O_16  and  C_12 
ROOT
ATOM      1  C   UNL d   1      46.271 -18.237  43.419  0.00  0.00     0.042 A 
ATOM      2  C   UNL d   1      46.320 -18.977  43.775  0.00  0.00     0.098 A 
ATOM      3  C   UNL d   1      46.444 -19.646  43.316  0.00  0.00     0.048 A 
ATOM      4  C   UNL d   1      46.345 -18.163  42.605  0.00  0.00     0.005 A 
ATOM      5  C   UNL d   1      46.519 -19.577  42.495  0.00  0.00     0.096 A 
ATOM      6  C   UNL d   1      46.469 -18.831  42.139  0.00  0.00     0.024 A 
ENDROOT
BRANCH   1   7
ATOM      7  C   UNL d   1      46.146 -17.567  43.886  0.00  0.00     0.107 A 
ATOM      8  C   UNL d   1      45.550 -16.291  43.667  0.00  0.00     0.048 A 
ATOM      9  C   UNL d   1      45.718 -16.085  44.448  0.00  0.00     0.169 A 
ATOM     10  N   UNL d   1      46.098 -16.611  44.955  0.00  0.00    -0.142 NA
ATOM     11  N   UNL d   1      46.312 -17.356  44.666  0.00  0.00    -0.148 NA
BRANCH   9  12
ATOM     12  C   UNL d   1      45.501 -15.337  44.727  0.00  0.00     0.231 C 
ATOM     13  O   UNL d   1      46.077 -14.758  44.843  0.00  0.00    -0.643 OA
ATOM     14  O   UNL d   1      44.711 -15.171  44.890  0.00  0.00    -0.643 OA
ENDBRANCH   9  12
ENDBRANCH   1   7
BRANCH   2  15
ATOM     15  O   UNL d   1      46.244 -19.046  44.597  0.00  0.00    -0.328 OA
ATOM     16  C   UNL d   1      46.296 -19.791  44.953  0.00  0.00     0.181 C 
ENDBRANCH   2  15
BRANCH   5  17
ATOM     17  O   UNL d   1      46.643 -20.249  42.033  0.00  0.00    -0.328 OA
ATOM     18  C   UNL d   1      46.599 -20.201  41.208  0.00  0.00     0.181 C 
ENDBRANCH   5  17
TORSDOF 4
ENDMDL
