MODEL 1
REMARK VINA RESULT:      39.9      0.000      0.000
REMARK  6 active torsions:
REMARK  status: ('A' for Active; 'I' for Inactive)
REMARK    1  A    between atoms: N_4  and  S_1 
REMARK    2  A    between atoms: C_12  and  S_1 
REMARK    3  A    between atoms: N_3  and  C_2 
REMARK    4  A    between atoms: C_7  and  N_4 
REMARK    5  A    between atoms: C_6  and  C_8 
REMARK       I    between atoms: C_8  and  N_13 
REMARK    6  A    between atoms: N_13  and  C_22 
ROOT
ATOM      1  C   UNL d   1      46.384 -18.949  41.335  0.00  0.00     0.106 A 
ATOM      2  C   UNL d   1      46.000 -18.241  41.477  0.00  0.00     0.015 A 
ATOM      3  C   UNL d   1      46.646 -19.145  40.577  0.00  0.00     0.015 A 
ATOM      4  C   UNL d   1      46.131 -17.904  40.093  0.00  0.00     0.085 A 
ATOM      5  C   UNL d   1      46.518 -18.619  39.953  0.00  0.00     0.020 A 
ATOM      6  C   UNL d   1      45.872 -17.715  40.854  0.00  0.00     0.020 A 
ENDROOT
BRANCH   1   7
ATOM      7  S   UNL d   1      46.512 -19.475  41.958  0.00  0.00     0.300 S 
ATOM      8  O   UNL d   1      46.546 -18.847  42.492  0.00  0.00    -0.198 OA
ATOM      9  O   UNL d   1      46.480 -20.115  41.433  0.00  0.00    -0.198 OA
BRANCH   7  10
ATOM     10  N   UNL d   1      46.641 -20.008  42.583  0.00  0.00     0.034 NA
BRANCH  10  11
ATOM     11  C   UNL d   1      46.378 -19.827  43.344  0.00  0.00     0.760 A 
ATOM     12  N   UNL d   1      46.643 -19.127  43.724  0.00  0.00    -0.059 NA
ATOM     13  C   UNL d   1      46.381 -18.945  44.485  0.00  0.00     0.102 A 
ATOM     14  C   UNL d   1      46.642 -18.256  44.860  0.00  0.00     0.021 C 
ATOM     15  C   UNL d   1      45.857 -19.454  44.871  0.00  0.00     0.041 A 
ATOM     16  C   UNL d   1      45.592 -20.153  44.491  0.00  0.00     0.120 A 
ATOM     17  N   UNL d   1      45.857 -20.327  43.734  0.00  0.00    -0.057 NA
ENDBRANCH  10  11
ENDBRANCH   7  10
ENDBRANCH   1   7
BRANCH   4  18
ATOM     18  N   UNL d   1      46.003 -17.373  39.459  0.00  0.00    -0.208 NA
ATOM     19  C   UNL d   1      45.253 -17.305  39.118  0.00  0.00     0.285 C 
ATOM     20  O   UNL d   1      44.631 -17.767  39.410  0.00  0.00    -0.265 OA
BRANCH  19  21
ATOM     21  C   UNL d   1      45.130 -16.780  38.493  0.00  0.00     0.089 A 
ATOM     22  S   UNL d   1      44.392 -16.533  38.198  0.00  0.00    -0.059 SA
ATOM     23  C   UNL d   1      44.547 -16.010  37.575  0.00  0.00     0.156 A 
ATOM     24  C   UNL d   1      45.370 -15.940  37.494  0.00  0.00     0.031 A 
ATOM     25  C   UNL d   1      45.713 -16.414  38.058  0.00  0.00     0.014 A 
BRANCH  23  26
ATOM     26  N   UNL d   1      43.962 -15.625  37.116  0.00  0.00    -0.107 N 
ATOM     27  O   UNL d   1      43.198 -15.512  37.414  0.00  0.00    -0.531 OA
ATOM     28  O   UNL d   1      44.157 -15.358  36.356  0.00  0.00    -0.531 OA
ENDBRANCH  23  26
ENDBRANCH  19  21
ENDBRANCH   4  18
TORSDOF 6
ENDMDL
