MODEL 1
REMARK VINA RESULT:       5.5      0.000      0.000
REMARK  3 active torsions:
REMARK  status: ('A' for Active; 'I' for Inactive)
REMARK    1  A    between atoms: C_12  and  C_9 
REMARK    2  A    between atoms: O_26  and  C_19 
REMARK    3  A    between atoms: O_27  and  C_22 
ROOT
ATOM      1  C   UNL d   1      30.133  17.356 -24.209  0.00  0.00     0.156 A 
ATOM      2  C   UNL d   1      30.578  18.042 -24.310  0.00  0.00     0.091 A 
ATOM      3  N   UNL d   1      29.335  17.347 -24.403  0.00  0.00    -0.241 N 
ATOM      4  N   UNL d   1      29.423  18.711 -24.799  0.00  0.00    -0.224 N 
ATOM      5  C   UNL d   1      28.981  18.024 -24.698  0.00  0.00     0.343 A 
ATOM      6  C   UNL d   1      30.218  18.721 -24.607  0.00  0.00     0.271 A 
ATOM      7  C   UNL d   1      31.732  17.372 -23.820  0.00  0.00     0.056 A 
ATOM      8  N   UNL d   1      30.489  16.678 -23.913  0.00  0.00    -0.228 NA
ATOM      9  C   UNL d   1      31.373  18.052 -24.117  0.00  0.00     0.012 A 
ATOM     10  C   UNL d   1      31.282  16.680 -23.719  0.00  0.00     0.082 A 
ATOM     11  C   UNL d   1      32.530  17.380 -23.626  0.00  0.00     0.193 A 
ATOM     12  C   UNL d   1      31.639  16.002 -23.423  0.00  0.00    -0.003 A 
ATOM     13  C   UNL d   1      32.438  16.005 -23.227  0.00  0.00     0.042 A 
ATOM     14  O   UNL d   1      28.180  18.017 -24.893  0.00  0.00    -0.245 OA
ATOM     15  C   UNL d   1      32.882  16.695 -23.329  0.00  0.00     0.019 A 
ATOM     16  O   UNL d   1      30.538  19.256 -24.691  0.00  0.00    -0.266 OA
ATOM     17  O   UNL d   1      32.915  17.986 -23.716  0.00  0.00    -0.287 OA
ATOM     18  C   UNL d   1      28.893  16.660 -24.302  0.00  0.00     0.105 C 
ATOM     19  C   UNL d   1      29.063  19.391 -25.096  0.00  0.00     0.107 C 
ATOM     20  C   UNL d   1      32.083  15.453 -23.145  0.00  0.00     0.009 C 
ATOM     21  C   UNL d   1      33.239  16.017 -23.033  0.00  0.00     0.009 C 
ENDROOT
BRANCH   9  22
ATOM     22  C   UNL d   1      31.841  18.780 -24.224  0.00  0.00     0.003 A 
ATOM     23  C   UNL d   1      32.057  19.350 -23.478  0.00  0.00     0.026 A 
ATOM     24  C   UNL d   1      32.529  20.069 -23.639  0.00  0.00     0.116 A 
ATOM     25  C   UNL d   1      32.780  20.241 -24.441  0.00  0.00     0.116 A 
ATOM     26  C   UNL d   1      32.569  19.707 -25.094  0.00  0.00     0.026 A 
ATOM     27  C   UNL d   1      32.105  18.999 -24.939  0.00  0.00     0.002 A 
BRANCH  24  28
ATOM     28  O   UNL d   1      32.733  20.592 -22.987  0.00  0.00    -0.326 OA
ATOM     29  C   UNL d   1      32.511  20.388 -22.175  0.00  0.00     0.181 C 
ENDBRANCH  24  28
BRANCH  25  30
ATOM     30  O   UNL d   1      33.240  20.945 -24.586  0.00  0.00    -0.326 OA
ATOM     31  C   UNL d   1      32.924  21.594 -25.070  0.00  0.00     0.181 C 
ENDBRANCH  25  30
ENDBRANCH   9  22
TORSDOF 3
ENDMDL
