MODEL 1
REMARK VINA RESULT:      -2.7      0.000      0.000
REMARK  2 active torsions:
REMARK  status: ('A' for Active; 'I' for Inactive)
REMARK    1  A    between atoms: C_7  and  C_5 
REMARK    2  A    between atoms: C_8  and  C_7 
ROOT
ATOM      1  C   UNL d   1      30.877  16.224 -24.319  0.00  0.00     0.046 C 
ENDROOT
BRANCH   1   2
ATOM      2  C   UNL d   1      31.343  16.871 -24.162  0.00  0.00     0.205 A 
ATOM      3  N   UNL d   1      31.336  17.524 -24.636  0.00  0.00    -0.120 NA
ATOM      4  N   UNL d   1      31.871  18.070 -24.317  0.00  0.00    -0.109 NA
ATOM      5  C   UNL d   1      32.188  17.722 -23.648  0.00  0.00     0.262 A 
ATOM      6  O   UNL d   1      31.884  17.015 -23.547  0.00  0.00    -0.260 OA
ATOM      7  S   UNL d   1      32.762  18.073 -23.137  0.00  0.00    -0.029 SA
ENDBRANCH   1   2
BRANCH   1   8
ATOM      8  C   UNL d   1      30.153  16.111 -23.886  0.00  0.00     0.004 A 
ATOM      9  C   UNL d   1      29.457  16.510 -24.079  0.00  0.00     0.000 A 
ATOM     10  C   UNL d   1      28.762  16.392 -23.651  0.00  0.00     0.000 A 
ATOM     11  C   UNL d   1      28.782  15.860 -23.020  0.00  0.00     0.000 A 
ATOM     12  C   UNL d   1      29.465  15.453 -22.812  0.00  0.00     0.000 A 
ATOM     13  C   UNL d   1      30.177  15.593 -23.273  0.00  0.00     0.000 A 
ENDBRANCH   1   8
TORSDOF 2
ENDMDL
MODEL 2
REMARK VINA RESULT:      -2.7      1.929      3.181
REMARK  2 active torsions:
REMARK  status: ('A' for Active; 'I' for Inactive)
REMARK    1  A    between atoms: C_7  and  C_5 
REMARK    2  A    between atoms: C_8  and  C_7 
ROOT
ATOM      1  C   UNL d   1      31.259  16.085 -24.137  0.00  0.00     0.046 C 
ENDROOT
BRANCH   1   2
ATOM      2  C   UNL d   1      30.534  15.978 -23.786  0.00  0.00     0.205 A 
ATOM      3  N   UNL d   1      30.453  15.558 -23.102  0.00  0.00    -0.120 NA
ATOM      4  N   UNL d   1      29.649  15.558 -22.902  0.00  0.00    -0.109 NA
ATOM      5  C   UNL d   1      29.265  15.987 -23.484  0.00  0.00     0.262 A 
ATOM      6  O   UNL d   1      29.777  16.239 -24.010  0.00  0.00    -0.260 OA
ATOM      7  S   UNL d   1      28.434  16.138 -23.515  0.00  0.00    -0.029 SA
ENDBRANCH   1   2
BRANCH   1   8
ATOM      8  C   UNL d   1      31.663  16.829 -24.050  0.00  0.00     0.004 A 
ATOM      9  C   UNL d   1      32.115  17.009 -23.383  0.00  0.00     0.000 A 
ATOM     10  C   UNL d   1      32.502  17.733 -23.311  0.00  0.00     0.000 A 
ATOM     11  C   UNL d   1      32.425  18.278 -23.927  0.00  0.00     0.000 A 
ATOM     12  C   UNL d   1      31.979  18.118 -24.599  0.00  0.00     0.000 A 
ATOM     13  C   UNL d   1      31.585  17.355 -24.651  0.00  0.00     0.000 A 
ENDBRANCH   1   8
TORSDOF 2
ENDMDL
MODEL 3
REMARK VINA RESULT:      -2.4      1.832      2.560
REMARK  2 active torsions:
REMARK  status: ('A' for Active; 'I' for Inactive)
REMARK    1  A    between atoms: C_7  and  C_5 
REMARK    2  A    between atoms: C_8  and  C_7 
ROOT
ATOM      1  C   UNL d   1      32.826  17.791 -23.894  0.00  0.00     0.046 C 
ENDROOT
BRANCH   1   2
ATOM      2  C   UNL d   1      32.937  18.319 -23.287  0.00  0.00     0.205 A 
ATOM      3  N   UNL d   1      33.187  18.080 -22.559  0.00  0.00    -0.120 NA
ATOM      4  N   UNL d   1      33.241  18.753 -22.079  0.00  0.00    -0.109 NA
ATOM      5  C   UNL d   1      33.016  19.388 -22.544  0.00  0.00     0.262 A 
ATOM      6  O   UNL d   1      32.835  19.143 -23.258  0.00  0.00    -0.260 OA
ATOM      7  S   UNL d   1      32.984  20.194 -22.292  0.00  0.00    -0.029 SA
ENDBRANCH   1   2
BRANCH   1   8
ATOM      8  C   UNL d   1      32.041  17.514 -24.074  0.00  0.00     0.004 A 
ATOM      9  C   UNL d   1      31.691  16.887 -23.666  0.00  0.00     0.000 A 
ATOM     10  C   UNL d   1      30.930  16.628 -23.850  0.00  0.00     0.000 A 
ATOM     11  C   UNL d   1      30.525  17.015 -24.456  0.00  0.00     0.000 A 
ATOM     12  C   UNL d   1      30.856  17.642 -24.874  0.00  0.00     0.000 A 
ATOM     13  C   UNL d   1      31.651  17.893 -24.664  0.00  0.00     0.000 A 
ENDBRANCH   1   8
TORSDOF 2
ENDMDL
MODEL 4
REMARK VINA RESULT:      -2.4      7.389      8.403
REMARK  2 active torsions:
REMARK  status: ('A' for Active; 'I' for Inactive)
REMARK    1  A    between atoms: C_7  and  C_5 
REMARK    2  A    between atoms: C_8  and  C_7 
ROOT
ATOM      1  C   UNL d   1      32.875  23.701 -19.224  0.00  0.00     0.046 C 
ENDROOT
BRANCH   1   2
ATOM      2  C   UNL d   1      32.750  23.519 -18.442  0.00  0.00     0.205 A 
ATOM      3  N   UNL d   1      32.059  23.702 -18.069  0.00  0.00    -0.120 NA
ATOM      4  N   UNL d   1      32.120  23.440 -17.286  0.00  0.00    -0.109 NA
ATOM      5  C   UNL d   1      32.861  23.101 -17.212  0.00  0.00     0.262 A 
ATOM      6  O   UNL d   1      33.241  23.142 -17.887  0.00  0.00    -0.260 OA
ATOM      7  S   UNL d   1      33.174  22.755 -16.507  0.00  0.00    -0.029 SA
ENDBRANCH   1   2
BRANCH   1   8
ATOM      8  C   UNL d   1      32.709  23.121 -19.824  0.00  0.00     0.004 A 
ATOM      9  C   UNL d   1      33.111  22.401 -19.864  0.00  0.00     0.000 A 
ATOM     10  C   UNL d   1      32.941  21.847 -20.450  0.00  0.00     0.000 A 
ATOM     11  C   UNL d   1      32.353  22.033 -21.000  0.00  0.00     0.000 A 
ATOM     12  C   UNL d   1      31.941  22.744 -20.977  0.00  0.00     0.000 A 
ATOM     13  C   UNL d   1      32.137  23.305 -20.356  0.00  0.00     0.000 A 
ENDBRANCH   1   8
TORSDOF 2
ENDMDL
