MODEL 1
REMARK VINA RESULT:      58.0      0.000      0.000
REMARK  7 active torsions:
REMARK  status: ('A' for Active; 'I' for Inactive)
REMARK    1  A    between atoms: N_4  and  C_1 
REMARK    2  A    between atoms: C_9  and  C_2 
REMARK    3  A    between atoms: C_7  and  N_4 
REMARK    4  A    between atoms: N_8  and  C_7 
REMARK       I    between atoms: C_10  and  N_8 
REMARK    5  A    between atoms: C_15  and  C_10 
REMARK    6  A    between atoms: C_18  and  C_15 
REMARK    7  A    between atoms: C_19  and  C_18 
ROOT
ATOM      1  C   UNL d   1     -48.485  28.344  34.585  0.00  0.00     0.224 C 
ATOM      2  S   UNL d   1     -47.818  27.874  34.718  0.00  0.00    -0.037 SA
ENDROOT
BRANCH   1   3
ATOM      3  N   UNL d   1     -48.426  29.147  34.564  0.00  0.00    -0.211 NA
BRANCH   3   4
ATOM      4  C   UNL d   1     -47.994  29.538  35.136  0.00  0.00     0.118 A 
ATOM      5  C   UNL d   1     -47.828  30.347  35.154  0.00  0.00     0.084 A 
ATOM      6  C   UNL d   1     -47.392  30.493  35.807  0.00  0.00     0.013 A 
ATOM      7  C   UNL d   1     -47.104  31.241  36.041  0.00  0.00     0.001 C 
ATOM      8  C   UNL d   1     -47.274  29.823  36.199  0.00  0.00     0.031 A 
ATOM      9  S   UNL d   1     -47.639  29.222  35.799  0.00  0.00    -0.068 SA
ATOM     10  C   UNL d   1     -46.843  29.766  36.906  0.00  0.00     0.007 C 
BRANCH   5  11
ATOM     11  C   UNL d   1     -48.076  30.906  34.588  0.00  0.00     0.299 C 
ATOM     12  O   UNL d   1     -48.880  31.005  34.426  0.00  0.00    -0.264 OA
ATOM     13  N   UNL d   1     -47.517  31.372  34.177  0.00  0.00    -0.102 N 
ENDBRANCH   5  11
ENDBRANCH   3   4
ENDBRANCH   1   3
BRANCH   1  14
ATOM     14  N   UNL d   1     -49.221  27.994  34.471  0.00  0.00    -0.179 NA
ATOM     15  C   UNL d   1     -49.350  27.475  33.871  0.00  0.00     0.281 C 
ATOM     16  O   UNL d   1     -48.749  27.284  33.361  0.00  0.00    -0.265 OA
BRANCH  15  17
ATOM     17  C   UNL d   1     -50.098  27.119  33.754  0.00  0.00     0.063 C 
BRANCH  17  18
ATOM     18  C   UNL d   1     -50.163  26.447  33.313  0.00  0.00     0.005 C 
BRANCH  18  19
ATOM     19  C   UNL d   1     -50.882  26.044  33.312  0.00  0.00     0.000 A 
ATOM     20  C   UNL d   1     -50.910  25.213  33.306  0.00  0.00     0.000 A 
ATOM     21  C   UNL d   1     -51.625  24.828  33.306  0.00  0.00     0.000 A 
ATOM     22  C   UNL d   1     -52.340  25.262  33.310  0.00  0.00     0.000 A 
ATOM     23  C   UNL d   1     -52.307  26.081  33.315  0.00  0.00     0.000 A 
ATOM     24  C   UNL d   1     -51.569  26.464  33.316  0.00  0.00     0.000 A 
ENDBRANCH  18  19
ENDBRANCH  17  18
ENDBRANCH  15  17
ENDBRANCH   1  14
TORSDOF 7
ENDMDL
MODEL 2
REMARK VINA RESULT:      59.7      1.427      5.497
REMARK  7 active torsions:
REMARK  status: ('A' for Active; 'I' for Inactive)
REMARK    1  A    between atoms: N_4  and  C_1 
REMARK    2  A    between atoms: C_9  and  C_2 
REMARK    3  A    between atoms: C_7  and  N_4 
REMARK    4  A    between atoms: N_8  and  C_7 
REMARK       I    between atoms: C_10  and  N_8 
REMARK    5  A    between atoms: C_15  and  C_10 
REMARK    6  A    between atoms: C_18  and  C_15 
REMARK    7  A    between atoms: C_19  and  C_18 
ROOT
ATOM      1  C   UNL d   1     -49.476  27.546  34.580  0.00  0.00     0.224 C 
ATOM      2  S   UNL d   1     -49.500  27.175  35.318  0.00  0.00    -0.037 SA
ENDROOT
BRANCH   1   3
ATOM      3  N   UNL d   1     -50.021  27.369  34.012  0.00  0.00    -0.211 NA
BRANCH   3   4
ATOM      4  C   UNL d   1     -50.171  26.590  33.821  0.00  0.00     0.118 A 
ATOM      5  C   UNL d   1     -50.912  26.259  33.666  0.00  0.00     0.084 A 
ATOM      6  C   UNL d   1     -50.805  25.485  33.503  0.00  0.00     0.013 A 
ATOM      7  C   UNL d   1     -51.410  24.940  33.315  0.00  0.00     0.001 C 
ATOM      8  C   UNL d   1     -50.040  25.310  33.547  0.00  0.00     0.031 A 
ATOM      9  S   UNL d   1     -49.634  25.981  33.742  0.00  0.00    -0.068 SA
ATOM     10  C   UNL d   1     -49.726  24.554  33.411  0.00  0.00     0.007 C 
BRANCH   5  11
ATOM     11  C   UNL d   1     -51.638  26.668  33.679  0.00  0.00     0.299 C 
ATOM     12  O   UNL d   1     -52.348  26.252  33.752  0.00  0.00    -0.264 OA
ATOM     13  N   UNL d   1     -51.657  27.501  33.618  0.00  0.00    -0.102 N 
ENDBRANCH   5  11
ENDBRANCH   3   4
ENDBRANCH   1   3
BRANCH   1  14
ATOM     14  N   UNL d   1     -48.894  28.102  34.414  0.00  0.00    -0.179 NA
ATOM     15  C   UNL d   1     -48.615  28.599  34.983  0.00  0.00     0.281 C 
ATOM     16  O   UNL d   1     -48.909  28.559  35.738  0.00  0.00    -0.265 OA
BRANCH  15  17
ATOM     17  C   UNL d   1     -48.022  29.165  34.815  0.00  0.00     0.063 C 
BRANCH  17  18
ATOM     18  C   UNL d   1     -47.653  29.555  35.418  0.00  0.00     0.005 C 
BRANCH  18  19
ATOM     19  C   UNL d   1     -47.510  30.362  35.335  0.00  0.00     0.000 A 
ATOM     20  C   UNL d   1     -46.869  30.727  35.720  0.00  0.00     0.000 A 
ATOM     21  C   UNL d   1     -46.739  31.524  35.630  0.00  0.00     0.000 A 
ATOM     22  C   UNL d   1     -47.247  31.985  35.152  0.00  0.00     0.000 A 
ATOM     23  C   UNL d   1     -47.877  31.621  34.775  0.00  0.00     0.000 A 
ATOM     24  C   UNL d   1     -48.000  30.805  34.875  0.00  0.00     0.000 A 
ENDBRANCH  18  19
ENDBRANCH  17  18
ENDBRANCH  15  17
ENDBRANCH   1  14
TORSDOF 7
ENDMDL
MODEL 3
REMARK VINA RESULT:      60.3      1.078      1.595
REMARK  7 active torsions:
REMARK  status: ('A' for Active; 'I' for Inactive)
REMARK    1  A    between atoms: N_4  and  C_1 
REMARK    2  A    between atoms: C_9  and  C_2 
REMARK    3  A    between atoms: C_7  and  N_4 
REMARK    4  A    between atoms: N_8  and  C_7 
REMARK       I    between atoms: C_10  and  N_8 
REMARK    5  A    between atoms: C_15  and  C_10 
REMARK    6  A    between atoms: C_18  and  C_15 
REMARK    7  A    between atoms: C_19  and  C_18 
ROOT
ATOM      1  C   UNL d   1     -48.443  28.761  34.803  0.00  0.00     0.224 C 
ATOM      2  S   UNL d   1     -47.705  28.406  34.689  0.00  0.00    -0.037 SA
ENDROOT
BRANCH   1   3
ATOM      3  N   UNL d   1     -48.530  29.371  35.323  0.00  0.00    -0.211 NA
BRANCH   3   4
ATOM      4  C   UNL d   1     -48.174  30.089  35.171  0.00  0.00     0.118 A 
ATOM      5  C   UNL d   1     -47.590  30.451  35.629  0.00  0.00     0.084 A 
ATOM      6  C   UNL d   1     -47.400  31.144  35.281  0.00  0.00     0.013 A 
ATOM      7  C   UNL d   1     -46.831  31.688  35.561  0.00  0.00     0.001 C 
ATOM      8  C   UNL d   1     -47.831  31.239  34.631  0.00  0.00     0.031 A 
ATOM      9  S   UNL d   1     -48.315  30.596  34.548  0.00  0.00    -0.068 SA
ATOM     10  C   UNL d   1     -47.780  31.898  34.129  0.00  0.00     0.007 C 
BRANCH   5  11
ATOM     11  C   UNL d   1     -47.261  30.141  36.329  0.00  0.00     0.299 C 
ATOM     12  O   UNL d   1     -46.458  30.243  36.492  0.00  0.00    -0.264 OA
ATOM     13  N   UNL d   1     -47.738  29.725  36.875  0.00  0.00    -0.102 N 
ENDBRANCH   5  11
ENDBRANCH   3   4
ENDBRANCH   1   3
BRANCH   1  14
ATOM     14  N   UNL d   1     -49.099  28.496  34.385  0.00  0.00    -0.179 NA
ATOM     15  C   UNL d   1     -49.177  27.723  34.173  0.00  0.00     0.281 C 
ATOM     16  O   UNL d   1     -48.602  27.187  34.371  0.00  0.00    -0.265 OA
BRANCH  15  17
ATOM     17  C   UNL d   1     -49.845  27.452  33.748  0.00  0.00     0.063 C 
BRANCH  17  18
ATOM     18  C   UNL d   1     -49.819  26.745  33.360  0.00  0.00     0.005 C 
BRANCH  18  19
ATOM     19  C   UNL d   1     -50.499  26.280  33.343  0.00  0.00     0.000 A 
ATOM     20  C   UNL d   1     -51.256  26.624  33.347  0.00  0.00     0.000 A 
ATOM     21  C   UNL d   1     -51.918  26.154  33.330  0.00  0.00     0.000 A 
ATOM     22  C   UNL d   1     -51.846  25.321  33.309  0.00  0.00     0.000 A 
ATOM     23  C   UNL d   1     -51.098  24.987  33.306  0.00  0.00     0.000 A 
ATOM     24  C   UNL d   1     -50.428  25.478  33.323  0.00  0.00     0.000 A 
ENDBRANCH  18  19
ENDBRANCH  17  18
ENDBRANCH  15  17
ENDBRANCH   1  14
TORSDOF 7
ENDMDL
