MODEL 1
REMARK VINA RESULT:      14.7      0.000      0.000
REMARK  1 active torsions:
REMARK  status: ('A' for Active; 'I' for Inactive)
REMARK    1  A    between atoms: C_6  and  N_1 
ROOT
ATOM      1  C   UNL d   1     -58.900 -98.756 -44.633  0.00  0.00     0.086 A 
ATOM      2  C   UNL d   1     -58.097 -98.756 -44.471  0.00  0.00     0.023 A 
ATOM      3  C   UNL d   1     -59.447 -98.757 -44.015  0.00  0.00     0.023 A 
ATOM      4  C   UNL d   1     -58.372 -98.756 -43.074  0.00  0.00     0.196 A 
ATOM      5  C   UNL d   1     -59.183 -98.757 -43.233  0.00  0.00     0.044 A 
ATOM      6  C   UNL d   1     -57.832 -98.756 -43.690  0.00  0.00     0.044 A 
ATOM      7  O   UNL d   1     -58.109 -98.756 -42.297  0.00  0.00    -0.287 OA
ENDROOT
BRANCH   1   8
ATOM      8  N   UNL d   1     -59.158 -98.756 -45.408  0.00  0.00    -0.189 N 
ATOM      9  N   UNL d   1     -58.680 -98.757 -46.081  0.00  0.00    -0.038 NA
ATOM     10  N   UNL d   1     -59.175 -98.757 -46.742  0.00  0.00    -0.022 NA
ATOM     11  N   UNL d   1     -59.945 -98.755 -46.481  0.00  0.00    -0.104 NA
ATOM     12  C   UNL d   1     -59.941 -98.755 -45.655  0.00  0.00     0.226 A 
ENDBRANCH   1   8
TORSDOF 1
ENDMDL
