MODEL 1
REMARK VINA RESULT:      18.6      0.000      0.000
REMARK  4 active torsions:
REMARK  status: ('A' for Active; 'I' for Inactive)
REMARK    1  A    between atoms: C_2  and  S_1 
REMARK    2  A    between atoms: N_3  and  S_1 
REMARK    3  A    between atoms: C_16  and  C_7 
REMARK    4  A    between atoms: O_17  and  C_8 
ROOT
ATOM      1  C   UNL d   1      46.321 -18.783  43.072  0.00  0.00     0.126 A 
ATOM      2  C   UNL d   1      46.385 -18.807  42.252  0.00  0.00     0.015 A 
ATOM      3  C   UNL d   1      46.548 -19.517  41.881  0.00  0.00     0.001 A 
ATOM      4  C   UNL d   1      46.418 -19.460  43.522  0.00  0.00     0.106 A 
ATOM      5  C   UNL d   1      46.647 -20.206  42.325  0.00  0.00     0.002 A 
ATOM      6  C   UNL d   1      46.581 -20.175  43.148  0.00  0.00     0.025 A 
ENDROOT
BRANCH   1   7
ATOM      7  S   UNL d   1      46.157 -18.066  43.451  0.00  0.00     0.273 S 
ATOM      8  O   UNL d   1      46.566 -17.659  42.858  0.00  0.00    -0.200 OA
ATOM      9  O   UNL d   1      45.749 -18.473  44.044  0.00  0.00    -0.200 OA
BRANCH   7  10
ATOM     10  N   UNL d   1      45.993 -17.349  43.829  0.00  0.00    -0.226 N 
ATOM     11  C   UNL d   1      45.509 -16.790  43.464  0.00  0.00     0.111 A 
ATOM     12  C   UNL d   1      45.344 -16.079  43.836  0.00  0.00     0.100 A 
ATOM     13  N   UNL d   1      45.663 -15.916  44.583  0.00  0.00    -0.299 N 
ATOM     14  C   UNL d   1      46.149 -16.476  44.952  0.00  0.00     0.100 A 
ATOM     15  C   UNL d   1      45.494 -15.196  44.955  0.00  0.00     0.100 C 
ATOM     16  C   UNL d   1      46.313 -17.192  44.573  0.00  0.00     0.111 A 
ENDBRANCH   7  10
ENDBRANCH   1   7
BRANCH   4  17
ATOM     17  O   UNL d   1      46.350 -19.421  44.349  0.00  0.00    -0.327 OA
ATOM     18  C   UNL d   1      46.478 -20.100  44.796  0.00  0.00     0.181 C 
ENDBRANCH   4  17
BRANCH   3  19
ATOM     19  C   UNL d   1      46.613 -19.545  41.059  0.00  0.00     0.000 C 
ATOM     20  C   UNL d   1      46.645 -20.266  40.669  0.00  0.00     0.000 C 
ATOM     21  C   UNL d   1      46.645 -18.838  40.630  0.00  0.00     0.000 C 
ENDBRANCH   3  19
TORSDOF 4
ENDMDL
MODEL 2
REMARK VINA RESULT:      19.0      1.163      2.251
REMARK  4 active torsions:
REMARK  status: ('A' for Active; 'I' for Inactive)
REMARK    1  A    between atoms: C_2  and  S_1 
REMARK    2  A    between atoms: N_3  and  S_1 
REMARK    3  A    between atoms: C_16  and  C_7 
REMARK    4  A    between atoms: O_17  and  C_8 
ROOT
ATOM      1  C   UNL d   1      46.072 -18.035  43.685  0.00  0.00     0.126 A 
ATOM      2  C   UNL d   1      45.967 -18.640  44.233  0.00  0.00     0.015 A 
ATOM      3  C   UNL d   1      46.094 -19.416  44.007  0.00  0.00     0.001 A 
ATOM      4  C   UNL d   1      46.302 -18.199  42.917  0.00  0.00     0.106 A 
ATOM      5  C   UNL d   1      46.326 -19.592  43.235  0.00  0.00     0.002 A 
ATOM      6  C   UNL d   1      46.429 -18.980  42.689  0.00  0.00     0.025 A 
ENDROOT
BRANCH   1   7
ATOM      7  S   UNL d   1      45.945 -17.250  43.910  0.00  0.00     0.273 S 
ATOM      8  O   UNL d   1      46.502 -17.333  44.515  0.00  0.00    -0.200 OA
ATOM      9  O   UNL d   1      45.387 -17.167  43.305  0.00  0.00    -0.200 OA
BRANCH   7  10
ATOM     10  N   UNL d   1      45.817 -16.464  44.135  0.00  0.00    -0.226 N 
ATOM     11  C   UNL d   1      46.267 -15.860  43.799  0.00  0.00     0.111 A 
ATOM     12  C   UNL d   1      46.144 -15.081  44.019  0.00  0.00     0.100 A 
ATOM     13  N   UNL d   1      45.565 -14.893  44.583  0.00  0.00    -0.299 N 
ATOM     14  C   UNL d   1      45.113 -15.498  44.922  0.00  0.00     0.100 A 
ATOM     15  C   UNL d   1      45.445 -14.105  44.802  0.00  0.00     0.100 C 
ATOM     16  C   UNL d   1      45.241 -16.284  44.697  0.00  0.00     0.111 A 
ENDBRANCH   7  10
ENDBRANCH   1   7
BRANCH   4  17
ATOM     17  O   UNL d   1      46.404 -17.578  42.373  0.00  0.00    -0.327 OA
ATOM     18  C   UNL d   1      46.635 -17.752  41.602  0.00  0.00     0.181 C 
ENDBRANCH   4  17
BRANCH   3  19
ATOM     19  C   UNL d   1      45.990 -20.024  44.554  0.00  0.00     0.000 C 
ATOM     20  C   UNL d   1      45.241 -20.327  44.701  0.00  0.00     0.000 C 
ATOM     21  C   UNL d   1      46.647 -20.327  44.955  0.00  0.00     0.000 C 
ENDBRANCH   3  19
TORSDOF 4
ENDMDL
