MODEL 1
REMARK VINA RESULT:      17.7      0.000      0.000
REMARK  2 active torsions:
REMARK  status: ('A' for Active; 'I' for Inactive)
REMARK    1  A    between atoms: S_2  and  C_1 
REMARK    2  A    between atoms: N_3  and  S_2 
ROOT
ATOM      1  C   UNL d   1      59.575  49.687  50.877  0.00  0.00     0.125 A 
ATOM      2  C   UNL d   1      60.053  49.694  51.458  0.00  0.00    -0.009 A 
ATOM      3  C   UNL d   1      59.768  49.700  51.738  0.00  0.00    -0.009 A 
ATOM      4  C   UNL d   1      59.909  49.675  50.192  0.00  0.00     0.031 A 
ATOM      5  C   UNL d   1      60.490  49.698  51.827  0.00  0.00    -0.007 A 
ATOM      6  C   UNL d   1      60.977  49.691  51.559  0.00  0.00    -0.007 A 
ATOM      7  C   UNL d   1      60.765  49.672  50.278  0.00  0.00     0.045 A 
ATOM      8  C   UNL d   1      61.189  49.704  52.430  0.00  0.00    -0.001 A 
ATOM      9  C   UNL d   1      61.301  49.679  50.894  0.00  0.00    -0.022 A 
ATOM     10  C   UNL d   1      60.945  49.682  50.946  0.00  0.00    -0.022 A 
ENDROOT
BRANCH   1  11
ATOM     11  S   UNL d   1      58.801  49.679  50.126  0.00  0.00     0.141 S 
ATOM     12  O   UNL d   1      59.231  49.683  49.381  0.00  0.00    -0.233 OA
BRANCH  11  13
ATOM     13  N   UNL d   1      57.933  49.670  50.127  0.00  0.00    -0.254 N 
ATOM     14  C   UNL d   1      57.586  49.705  50.871  0.00  0.00     0.089 A 
ATOM     15  C   UNL d   1      56.779  49.707  51.060  0.00  0.00     0.020 A 
ATOM     16  C   UNL d   1      56.139  49.674  50.556  0.00  0.00     0.002 A 
ATOM     17  C   UNL d   1      56.129  49.631  49.733  0.00  0.00     0.002 A 
ATOM     18  C   UNL d   1      56.767  49.610  49.201  0.00  0.00     0.020 A 
ATOM     19  C   UNL d   1      57.568  49.628  49.383  0.00  0.00     0.089 A 
ENDBRANCH  11  13
ENDBRANCH   1  11
TORSDOF 2
ENDMDL
