MODEL 1
REMARK VINA RESULT:      54.1      0.000      0.000
REMARK  4 active torsions:
REMARK  status: ('A' for Active; 'I' for Inactive)
REMARK    1  A    between atoms: C_4  and  C_3 
REMARK    2  A    between atoms: C_5  and  C_4 
REMARK    3  A    between atoms: C_9  and  C_5 
REMARK    4  A    between atoms: C_13  and  C_9 
ROOT
ATOM      1  N   UNL d   1      57.661  49.708  51.686  0.00  0.00    -0.234 NA
ATOM      2  C   UNL d   1      58.486  49.708  51.700  0.00  0.00     0.138 A 
ATOM      3  C   UNL d   1      58.911  49.708  50.992  0.00  0.00     0.029 A 
ATOM      4  C   UNL d   1      57.259  49.707  50.966  0.00  0.00     0.082 A 
ATOM      5  C   UNL d   1      57.684  49.707  50.257  0.00  0.00     0.018 A 
ATOM      6  C   UNL d   1      58.481  49.707  50.317  0.00  0.00     0.004 A 
ATOM      7  C   UNL d   1      57.255  49.707  49.583  0.00  0.00     0.002 A 
ATOM      8  C   UNL d   1      56.435  49.707  50.952  0.00  0.00     0.019 A 
ATOM      9 CL   UNL d   1      58.887  49.708  52.421  0.00  0.00    -0.061 Cl
ATOM     10  C   UNL d   1      56.459  49.707  49.523  0.00  0.00     0.000 A 
ATOM     11  C   UNL d   1      56.034  49.707  50.232  0.00  0.00     0.002 A 
ATOM     12  C   UNL d   1      56.052  49.707  48.863  0.00  0.00     0.000 C 
ENDROOT
BRANCH   3  13
ATOM     13  C   UNL d   1      59.707  49.708  51.051  0.00  0.00     0.006 C 
BRANCH  13  14
ATOM     14  C   UNL d   1      60.470  49.657  50.741  0.00  0.00     0.042 C 
BRANCH  14  15
ATOM     15  C   UNL d   1      61.154  49.257  50.944  0.00  0.00     0.196 C 
ATOM     16  O   UNL d   1      61.793  49.668  51.268  0.00  0.00    -0.287 OA
BRANCH  15  17
ATOM     17  C   UNL d   1      61.215  48.451  50.833  0.00  0.00     0.039 A 
ATOM     18  C   UNL d   1      61.431  48.140  50.102  0.00  0.00     0.003 A 
ATOM     19  C   UNL d   1      61.488  47.322  50.010  0.00  0.00     0.000 A 
ATOM     20  C   UNL d   1      61.331  46.810  50.642  0.00  0.00     0.000 A 
ATOM     21  C   UNL d   1      61.117  47.116  51.367  0.00  0.00     0.000 A 
ATOM     22  C   UNL d   1      61.059  47.941  51.462  0.00  0.00     0.003 A 
ENDBRANCH  15  17
ENDBRANCH  14  15
ENDBRANCH  13  14
ENDBRANCH   3  13
TORSDOF 4
ENDMDL
MODEL 2
REMARK VINA RESULT:      56.9      1.115      1.494
REMARK  4 active torsions:
REMARK  status: ('A' for Active; 'I' for Inactive)
REMARK    1  A    between atoms: C_4  and  C_3 
REMARK    2  A    between atoms: C_5  and  C_4 
REMARK    3  A    between atoms: C_9  and  C_5 
REMARK    4  A    between atoms: C_13  and  C_9 
ROOT
ATOM      1  N   UNL d   1      59.173  49.700  49.325  0.00  0.00    -0.234 NA
ATOM      2  C   UNL d   1      59.851  49.699  49.794  0.00  0.00     0.138 A 
ATOM      3  C   UNL d   1      59.784  49.699  50.617  0.00  0.00     0.029 A 
ATOM      4  C   UNL d   1      58.426  49.702  49.677  0.00  0.00     0.082 A 
ATOM      5  C   UNL d   1      58.359  49.703  50.500  0.00  0.00     0.018 A 
ATOM      6  C   UNL d   1      59.042  49.701  50.915  0.00  0.00     0.004 A 
ATOM      7  C   UNL d   1      57.618  49.704  50.799  0.00  0.00     0.002 A 
ATOM      8  C   UNL d   1      57.748  49.704  49.208  0.00  0.00     0.019 A 
ATOM      9 CL   UNL d   1      60.597  49.697  49.441  0.00  0.00    -0.061 Cl
ATOM     10  C   UNL d   1      56.936  49.706  50.384  0.00  0.00     0.000 A 
ATOM     11  C   UNL d   1      57.003  49.706  49.560  0.00  0.00     0.002 A 
ATOM     12  C   UNL d   1      56.221  49.708  50.684  0.00  0.00     0.000 C 
ENDROOT
BRANCH   3  13
ATOM     13  C   UNL d   1      60.466  49.697  51.032  0.00  0.00     0.006 C 
BRANCH  13  14
ATOM     14  C   UNL d   1      61.169  49.354  51.296  0.00  0.00     0.042 C 
BRANCH  14  15
ATOM     15  C   UNL d   1      61.367  48.653  51.668  0.00  0.00     0.196 C 
ATOM     16  O   UNL d   1      61.558  48.651  52.472  0.00  0.00    -0.287 OA
BRANCH  15  17
ATOM     17  C   UNL d   1      61.380  47.949  51.256  0.00  0.00     0.039 A 
ATOM     18  C   UNL d   1      61.712  47.905  50.504  0.00  0.00     0.003 A 
ATOM     19  C   UNL d   1      61.715  47.183  50.104  0.00  0.00     0.000 A 
ATOM     20  C   UNL d   1      61.390  46.503  50.447  0.00  0.00     0.000 A 
ATOM     21  C   UNL d   1      61.061  46.545  51.193  0.00  0.00     0.000 A 
ATOM     22  C   UNL d   1      61.057  47.272  51.598  0.00  0.00     0.003 A 
ENDBRANCH  15  17
ENDBRANCH  14  15
ENDBRANCH  13  14
ENDBRANCH   3  13
TORSDOF 4
ENDMDL
