MODEL 1
REMARK VINA RESULT:      37.4      0.000      0.000
REMARK  3 active torsions:
REMARK  status: ('A' for Active; 'I' for Inactive)
REMARK    1  A    between atoms: C_9  and  C_2 
REMARK    2  A    between atoms: C_10  and  C_6 
REMARK    3  A    between atoms: O_18  and  C_9 
ROOT
ATOM      1  C   UNL d   1      14.230  13.324  -2.089  0.00  0.00     0.044 A 
ATOM      2  C   UNL d   1      13.696  12.891  -3.249  0.00  0.00     0.113 A 
ATOM      3  C   UNL d   1      13.924  12.658  -2.491  0.00  0.00     0.116 A 
ATOM      4  C   UNL d   1      14.188  13.974  -2.609  0.00  0.00     0.112 A 
ATOM      5  S   UNL d   1      13.858  13.704  -3.327  0.00  0.00    -0.061 SA
ATOM      6  C   UNL d   1      14.535  13.427  -1.336  0.00  0.00     0.011 A 
ATOM      7  N   UNL d   1      14.450  14.703  -2.366  0.00  0.00    -0.239 NA
ATOM      8  C   UNL d   1      14.796  14.163  -1.098  0.00  0.00     0.018 A 
ATOM      9  C   UNL d   1      14.755  14.801  -1.607  0.00  0.00     0.082 A 
ATOM     10  N   UNL d   1      13.862  11.897  -2.181  0.00  0.00    -0.147 N 
ATOM     11  C   UNL d   1      15.102  14.253  -0.334  0.00  0.00     0.002 A 
ATOM     12  C   UNL d   1      15.019  15.541  -1.364  0.00  0.00     0.019 A 
ATOM     13  C   UNL d   1      15.364  14.998  -0.099  0.00  0.00     0.000 A 
ATOM     14  C   UNL d   1      15.323  15.642  -0.614  0.00  0.00     0.002 A 
ENDROOT
BRANCH   6  15
ATOM     15  C   UNL d   1      14.573  12.779  -0.828  0.00  0.00     0.030 A 
ATOM     16  S   UNL d   1      15.256  12.396  -0.565  0.00  0.00    -0.086 SA
ATOM     17  C   UNL d   1      15.022  11.780  -0.067  0.00  0.00     0.035 A 
ATOM     18  C   UNL d   1      14.198  11.780  -0.018  0.00  0.00     0.007 A 
ATOM     19  C   UNL d   1      13.920  12.399  -0.490  0.00  0.00     0.007 A 
ENDBRANCH   6  15
BRANCH   2  20
ATOM     20  C   UNL d   1      13.367  12.406  -3.829  0.00  0.00     0.303 C 
ATOM     21  O   UNL d   1      12.878  11.780  -3.615  0.00  0.00    -0.259 OA
BRANCH  20  22
ATOM     22  O   UNL d   1      13.529  12.553  -4.619  0.00  0.00    -0.295 OA
ATOM     23  C   UNL d   1      13.141  12.117  -5.202  0.00  0.00     0.185 C 
ENDBRANCH  20  22
ENDBRANCH   2  20
TORSDOF 3
ENDMDL
