MODEL 1
REMARK VINA RESULT:      61.5      0.000      0.000
REMARK  4 active torsions:
REMARK  status: ('A' for Active; 'I' for Inactive)
REMARK       I    between atoms: N_2  and  C_1 
REMARK       I    between atoms: N_3  and  C_1 
REMARK    1  A    between atoms: C_7  and  N_3 
REMARK    2  A    between atoms: C_8  and  C_12 
REMARK    3  A    between atoms: C_17  and  C_8 
REMARK    4  A    between atoms: O_18  and  C_9 
ROOT
ATOM      1  C   UNL d   1     -50.864  26.103  34.059  0.00  0.00     0.354 C 
ATOM      2  N   UNL d   1     -50.330  26.732  34.065  0.00  0.00    -0.256 N 
ATOM      3  N   UNL d   1     -51.059  25.740  33.347  0.00  0.00    -0.192 NA
ATOM      4  O   UNL d   1     -51.203  25.840  34.765  0.00  0.00    -0.244 OA
ATOM      5  C   UNL d   1     -50.135  27.096  34.784  0.00  0.00     0.085 A 
ATOM      6  C   UNL d   1     -49.990  26.998  33.362  0.00  0.00     0.085 A 
ATOM      7  C   UNL d   1     -49.595  27.732  34.790  0.00  0.00     0.019 A 
ATOM      8  C   UNL d   1     -49.461  27.622  33.372  0.00  0.00     0.019 A 
ATOM      9  C   UNL d   1     -49.265  27.987  34.088  0.00  0.00     0.003 A 
ENDROOT
BRANCH   3  10
ATOM     10  C   UNL d   1     -51.598  25.106  33.337  0.00  0.00     0.086 A 
ATOM     11  C   UNL d   1     -52.404  25.257  33.327  0.00  0.00     0.021 A 
ATOM     12  C   UNL d   1     -52.941  24.632  33.318  0.00  0.00     0.026 A 
ATOM     13  C   UNL d   1     -52.659  23.856  33.319  0.00  0.00     0.094 A 
ATOM     14  C   UNL d   1     -51.840  23.706  33.329  0.00  0.00     0.026 A 
ATOM     15  C   UNL d   1     -51.314  24.340  33.338  0.00  0.00     0.021 A 
BRANCH  13  16
ATOM     16  O   UNL d   1     -53.192  23.219  33.309  0.00  0.00    -0.328 OA
ATOM     17  C   UNL d   1     -53.810  23.189  33.855  0.00  0.00     0.181 C 
ENDBRANCH  13  16
ENDBRANCH   3  10
BRANCH   9  18
ATOM     18  C   UNL d   1     -48.728  28.619  34.095  0.00  0.00     0.000 C 
BRANCH  18  19
ATOM     19  C   UNL d   1     -48.368  28.854  34.794  0.00  0.00     0.000 A 
ATOM     20  C   UNL d   1     -48.017  29.597  34.848  0.00  0.00     0.000 A 
ATOM     21  C   UNL d   1     -47.654  29.833  35.553  0.00  0.00     0.000 A 
ATOM     22  C   UNL d   1     -47.645  29.320  36.205  0.00  0.00     0.000 A 
ATOM     23  C   UNL d   1     -47.998  28.574  36.149  0.00  0.00     0.000 A 
ATOM     24  C   UNL d   1     -48.359  28.342  35.445  0.00  0.00     0.000 A 
ENDBRANCH  18  19
ENDBRANCH   9  18
TORSDOF 4
ENDMDL
