MODEL 1
REMARK VINA RESULT:      21.8      0.000      0.000
REMARK  5 active torsions:
REMARK  status: ('A' for Active; 'I' for Inactive)
REMARK    1  A    between atoms: S_3  and  C_17 
REMARK    2  A    between atoms: N_11  and  S_3 
REMARK    3  A    between atoms: C_13  and  C_10 
REMARK    4  A    between atoms: C_12  and  N_11 
REMARK       I    between atoms: N_19  and  C_13 
REMARK    5  A    between atoms: C_31  and  N_19 
ROOT
ATOM      1  C   UNL d   1     -42.621-123.385 -50.239  0.00  0.00     0.105 A 
ATOM      2  C   UNL d   1     -43.145-123.412 -50.824  0.00  0.00     0.015 A 
ATOM      3  C   UNL d   1     -41.861-123.150 -50.385  0.00  0.00     0.015 A 
ATOM      4  C   UNL d   1     -42.194-122.980 -51.696  0.00  0.00     0.085 A 
ATOM      5  C   UNL d   1     -41.668-122.953 -51.114  0.00  0.00     0.020 A 
ATOM      6  C   UNL d   1     -42.929-123.203 -51.579  0.00  0.00     0.020 A 
ENDROOT
BRANCH   4   7
ATOM      7  N   UNL d   1     -42.011-122.786 -52.418  0.00  0.00    -0.208 NA
ATOM      8  C   UNL d   1     -42.453-122.207 -52.816  0.00  0.00     0.285 C 
ATOM      9  O   UNL d   1     -43.096-121.833 -52.433  0.00  0.00    -0.265 OA
BRANCH   8  10
ATOM     10  C   UNL d   1     -42.261-121.991 -53.602  0.00  0.00     0.089 A 
ATOM     11  C   UNL d   1     -41.877-122.463 -54.159  0.00  0.00     0.018 A 
ATOM     12  C   UNL d   1     -41.803-122.019 -54.867  0.00  0.00     0.081 A 
ATOM     13  C   UNL d   1     -42.148-121.268 -54.735  0.00  0.00     0.117 A 
ATOM     14  C   UNL d   1     -41.469-122.203 -55.604  0.00  0.00     0.268 A 
ATOM     15  N   UNL d   1     -42.154-120.711 -55.346  0.00  0.00    -0.221 NA
ATOM     16  S   UNL d   1     -42.431-121.251 -53.954  0.00  0.00    -0.063 SA
ATOM     17  C   UNL d   1     -41.820-120.888 -56.090  0.00  0.00     0.151 A 
ATOM     18  N   UNL d   1     -41.480-121.634 -56.213  0.00  0.00    -0.258 N 
ATOM     19  C   UNL d   1     -41.829-120.329 -56.696  0.00  0.00     0.038 A 
ATOM     20  C   UNL d   1     -41.141-121.824 -56.958  0.00  0.00     0.084 A 
ATOM     21  C   UNL d   1     -41.156-121.249 -57.562  0.00  0.00     0.019 A 
ATOM     22  C   UNL d   1     -41.498-120.505 -57.431  0.00  0.00     0.005 A 
ATOM     23  O   UNL d   1     -41.123-122.954 -55.736  0.00  0.00    -0.267 OA
ENDBRANCH   8  10
ENDBRANCH   4   7
BRANCH   1  24
ATOM     24  S   UNL d   1     -42.835-123.582 -49.543  0.00  0.00     0.287 S 
ATOM     25  O   UNL d   1     -43.624-123.792 -48.844  0.00  0.00    -0.198 OA
ATOM     26  O   UNL d   1     -43.862-123.514 -49.871  0.00  0.00    -0.198 OA
BRANCH  24  27
ATOM     27  N   UNL d   1     -42.161-123.766 -48.823  0.00  0.00    -0.139 NA
BRANCH  27  28
ATOM     28  C   UNL d   1     -42.243-123.428 -48.131  0.00  0.00     0.178 A 
ATOM     29  N   UNL d   1     -42.969-123.525 -47.757  0.00  0.00    -0.207 NA
ATOM     30  C   UNL d   1     -43.043-123.165 -47.029  0.00  0.00     0.164 A 
ATOM     31  C   UNL d   1     -43.708-123.248 -46.676  0.00  0.00     0.042 C 
ATOM     32  N   UNL d   1     -42.421-122.722 -46.678  0.00  0.00    -0.227 NA
ATOM     33  C   UNL d   1     -41.706-122.635 -47.062  0.00  0.00     0.086 A 
ATOM     34  C   UNL d   1     -41.620-122.989 -47.788  0.00  0.00     0.059 A 
ATOM     35  C   UNL d   1     -41.147-122.239 -46.751  0.00  0.00     0.021 C 
ENDBRANCH  27  28
ENDBRANCH  24  27
ENDBRANCH   1  24
TORSDOF 5
ENDMDL
MODEL 2
REMARK VINA RESULT:      23.9      1.442      7.236
REMARK  5 active torsions:
REMARK  status: ('A' for Active; 'I' for Inactive)
REMARK    1  A    between atoms: S_3  and  C_17 
REMARK    2  A    between atoms: N_11  and  S_3 
REMARK    3  A    between atoms: C_13  and  C_10 
REMARK    4  A    between atoms: C_12  and  N_11 
REMARK       I    between atoms: N_19  and  C_13 
REMARK    5  A    between atoms: C_31  and  N_19 
ROOT
ATOM      1  C   UNL d   1     -41.851-121.706 -54.251  0.00  0.00     0.105 A 
ATOM      2  C   UNL d   1     -41.177-121.996 -53.967  0.00  0.00     0.015 A 
ATOM      3  C   UNL d   1     -42.496-121.631 -53.769  0.00  0.00     0.015 A 
ATOM      4  C   UNL d   1     -41.756-122.141 -52.744  0.00  0.00     0.085 A 
ATOM      5  C   UNL d   1     -42.429-121.852 -53.025  0.00  0.00     0.020 A 
ATOM      6  C   UNL d   1     -41.124-122.222 -53.189  0.00  0.00     0.020 A 
ENDROOT
BRANCH   4   7
ATOM      7  N   UNL d   1     -41.683-122.362 -52.010  0.00  0.00    -0.208 NA
ATOM      8  C   UNL d   1     -42.299-122.219 -51.472  0.00  0.00     0.285 C 
ATOM      9  O   UNL d   1     -42.998-121.836 -51.725  0.00  0.00    -0.265 OA
BRANCH   8  10
ATOM     10  C   UNL d   1     -42.227-122.456 -50.672  0.00  0.00     0.089 A 
ATOM     11  C   UNL d   1     -42.767-122.913 -50.247  0.00  0.00     0.018 A 
ATOM     12  C   UNL d   1     -42.467-123.012 -49.469  0.00  0.00     0.081 A 
ATOM     13  C   UNL d   1     -41.736-122.607 -49.425  0.00  0.00     0.117 A 
ATOM     14  C   UNL d   1     -42.765-123.413 -48.807  0.00  0.00     0.268 A 
ATOM     15  N   UNL d   1     -41.313-122.611 -48.715  0.00  0.00    -0.221 NA
ATOM     16  S   UNL d   1     -41.588-122.264 -50.167  0.00  0.00    -0.063 SA
ATOM     17  C   UNL d   1     -41.606-123.012 -48.045  0.00  0.00     0.151 A 
ATOM     18  N   UNL d   1     -42.331-123.410 -48.097  0.00  0.00    -0.258 N 
ATOM     19  C   UNL d   1     -41.179-123.012 -47.338  0.00  0.00     0.038 A 
ATOM     20  C   UNL d   1     -42.635-123.817 -47.427  0.00  0.00     0.084 A 
ATOM     21  C   UNL d   1     -42.194-123.810 -46.720  0.00  0.00     0.019 A 
ATOM     22  C   UNL d   1     -41.470-123.409 -46.676  0.00  0.00     0.005 A 
ATOM     23  O   UNL d   1     -43.497-123.817 -48.852  0.00  0.00    -0.267 OA
ENDBRANCH   8  10
ENDBRANCH   4   7
BRANCH   1  24
ATOM     24  S   UNL d   1     -41.886-121.500 -54.976  0.00  0.00     0.287 S 
ATOM     25  O   UNL d   1     -41.933-120.719 -55.713  0.00  0.00    -0.198 OA
ATOM     26  O   UNL d   1     -41.890-120.469 -54.652  0.00  0.00    -0.198 OA
BRANCH  24  27
ATOM     27  N   UNL d   1     -41.907-122.182 -55.712  0.00  0.00    -0.139 NA
BRANCH  27  28
ATOM     28  C   UNL d   1     -42.527-122.224 -56.173  0.00  0.00     0.178 A 
ATOM     29  N   UNL d   1     -43.093-122.788 -55.979  0.00  0.00    -0.207 NA
ATOM     30  C   UNL d   1     -43.741-122.822 -56.474  0.00  0.00     0.164 A 
ATOM     31  C   UNL d   1     -44.270-123.338 -56.304  0.00  0.00     0.042 C 
ATOM     32  N   UNL d   1     -43.831-122.316 -57.139  0.00  0.00    -0.227 NA
ATOM     33  C   UNL d   1     -43.259-121.762 -57.318  0.00  0.00     0.086 A 
ATOM     34  C   UNL d   1     -42.609-121.718 -56.833  0.00  0.00     0.059 A 
ATOM     35  C   UNL d   1     -43.335-121.308 -57.913  0.00  0.00     0.021 C 
ENDBRANCH  27  28
ENDBRANCH  24  27
ENDBRANCH   1  24
TORSDOF 5
ENDMDL
