MODEL 1
REMARK VINA RESULT:      -5.6      0.000      0.000
REMARK  1 active torsions:
REMARK  status: ('A' for Active; 'I' for Inactive)
REMARK    1  A    between atoms: C_6  and  N_1 
ROOT
ATOM      1  C   UNL d   1      56.554  -0.428  32.065  0.00  0.00     0.086 A 
ATOM      2  C   UNL d   1      56.364   0.330  32.311  0.00  0.00     0.023 A 
ATOM      3  C   UNL d   1      56.255  -1.083  32.470  0.00  0.00     0.023 A 
ATOM      4  C   UNL d   1      55.575  -0.206  33.369  0.00  0.00     0.196 A 
ATOM      5  C   UNL d   1      55.764  -0.972  33.124  0.00  0.00     0.044 A 
ATOM      6  C   UNL d   1      55.873   0.441  32.965  0.00  0.00     0.044 A 
ATOM      7  O   UNL d   1      55.087  -0.095  34.020  0.00  0.00    -0.287 OA
ENDROOT
BRANCH   1   8
ATOM      8  N   UNL d   1      57.040  -0.534  31.417  0.00  0.00    -0.189 N 
ATOM      9  N   UNL d   1      57.206  -1.252  31.044  0.00  0.00    -0.038 NA
ATOM     10  N   UNL d   1      57.721  -1.097  30.418  0.00  0.00    -0.022 NA
ATOM     11  N   UNL d   1      57.870  -0.298  30.404  0.00  0.00    -0.104 NA
ATOM     12  C   UNL d   1      57.451   0.056  31.021  0.00  0.00     0.226 A 
ENDBRANCH   1   8
TORSDOF 1
ENDMDL
MODEL 2
REMARK VINA RESULT:      -5.0      8.526      9.031
REMARK  1 active torsions:
REMARK  status: ('A' for Active; 'I' for Inactive)
REMARK    1  A    between atoms: C_6  and  N_1 
ROOT
ATOM      1  C   UNL d   1      60.237  -7.329  36.093  0.00  0.00     0.086 A 
ATOM      2  C   UNL d   1      59.456  -7.575  36.086  0.00  0.00     0.023 A 
ATOM      3  C   UNL d   1      60.846  -7.881  36.179  0.00  0.00     0.023 A 
ATOM      4  C   UNL d   1      59.876  -8.926  36.251  0.00  0.00     0.196 A 
ATOM      5  C   UNL d   1      60.665  -8.682  36.259  0.00  0.00     0.044 A 
ATOM      6  C   UNL d   1      59.275  -8.376  36.165  0.00  0.00     0.044 A 
ATOM      7  O   UNL d   1      59.695  -9.723  36.330  0.00  0.00    -0.287 OA
ENDROOT
BRANCH   1   8
ATOM      8  N   UNL d   1      60.413  -6.535  36.014  0.00  0.00    -0.189 N 
ATOM      9  N   UNL d   1      59.925  -5.958  35.683  0.00  0.00    -0.038 NA
ATOM     10  N   UNL d   1      60.325  -5.237  35.719  0.00  0.00    -0.022 NA
ATOM     11  N   UNL d   1      61.049  -5.367  36.066  0.00  0.00    -0.104 NA
ATOM     12  C   UNL d   1      61.109  -6.170  36.252  0.00  0.00     0.226 A 
ENDBRANCH   1   8
TORSDOF 1
ENDMDL
MODEL 3
REMARK VINA RESULT:      -4.6      8.673      9.230
REMARK  1 active torsions:
REMARK  status: ('A' for Active; 'I' for Inactive)
REMARK    1  A    between atoms: C_6  and  N_1 
ROOT
ATOM      1  C   UNL d   1      59.781  -7.844  35.956  0.00  0.00     0.086 A 
ATOM      2  C   UNL d   1      59.258  -7.214  35.929  0.00  0.00     0.023 A 
ATOM      3  C   UNL d   1      60.584  -7.712  36.096  0.00  0.00     0.023 A 
ATOM      4  C   UNL d   1      60.329  -6.309  36.179  0.00  0.00     0.196 A 
ATOM      5  C   UNL d   1      60.859  -6.942  36.207  0.00  0.00     0.044 A 
ATOM      6  C   UNL d   1      59.533  -6.444  36.041  0.00  0.00     0.044 A 
ATOM      7  O   UNL d   1      60.602  -5.543  36.291  0.00  0.00    -0.287 OA
ENDROOT
BRANCH   1   8
ATOM      8  N   UNL d   1      59.505  -8.605  35.845  0.00  0.00    -0.189 N 
ATOM      9  N   UNL d   1      58.972  -9.007  36.330  0.00  0.00    -0.038 NA
ATOM     10  N   UNL d   1      58.852  -9.757  36.007  0.00  0.00    -0.022 NA
ATOM     11  N   UNL d   1      59.304  -9.818  35.334  0.00  0.00    -0.104 NA
ATOM     12  C   UNL d   1      59.711  -9.107  35.228  0.00  0.00     0.226 A 
ENDBRANCH   1   8
TORSDOF 1
ENDMDL
MODEL 4
REMARK VINA RESULT:      -4.6      0.848      1.321
REMARK  1 active torsions:
REMARK  status: ('A' for Active; 'I' for Inactive)
REMARK    1  A    between atoms: C_6  and  N_1 
ROOT
ATOM      1  C   UNL d   1      56.937  -0.010  31.931  0.00  0.00     0.086 A 
ATOM      2  C   UNL d   1      56.771  -0.806  32.027  0.00  0.00     0.023 A 
ATOM      3  C   UNL d   1      56.490   0.559  32.329  0.00  0.00     0.023 A 
ATOM      4  C   UNL d   1      55.709  -0.480  32.919  0.00  0.00     0.196 A 
ATOM      5  C   UNL d   1      55.875   0.324  32.825  0.00  0.00     0.044 A 
ATOM      6  C   UNL d   1      56.155  -1.042  32.523  0.00  0.00     0.044 A 
ATOM      7  O   UNL d   1      55.097  -0.715  33.413  0.00  0.00    -0.287 OA
ENDROOT
BRANCH   1   8
ATOM      8  N   UNL d   1      57.548   0.220  31.439  0.00  0.00    -0.189 N 
ATOM      9  N   UNL d   1      58.276   0.529  31.676  0.00  0.00    -0.038 NA
ATOM     10  N   UNL d   1      58.719   0.682  30.997  0.00  0.00    -0.022 NA
ATOM     11  N   UNL d   1      58.273   0.471  30.351  0.00  0.00    -0.104 NA
ATOM     12  C   UNL d   1      57.546   0.183  30.619  0.00  0.00     0.226 A 
ENDBRANCH   1   8
TORSDOF 1
ENDMDL
MODEL 5
REMARK VINA RESULT:      -3.2      9.634     10.103
REMARK  1 active torsions:
REMARK  status: ('A' for Active; 'I' for Inactive)
REMARK    1  A    between atoms: C_6  and  N_1 
ROOT
ATOM      1  C   UNL d   1      59.900  -9.182  34.438  0.00  0.00     0.086 A 
ATOM      2  C   UNL d   1      59.423  -9.592  33.913  0.00  0.00     0.023 A 
ATOM      3  C   UNL d   1      60.669  -8.971  34.223  0.00  0.00     0.023 A 
ATOM      4  C   UNL d   1      60.473  -9.589  32.951  0.00  0.00     0.196 A 
ATOM      5  C   UNL d   1      60.957  -9.176  33.478  0.00  0.00     0.044 A 
ATOM      6  C   UNL d   1      59.711  -9.796  33.167  0.00  0.00     0.044 A 
ATOM      7  O   UNL d   1      60.759  -9.793  32.209  0.00  0.00    -0.287 OA
ENDROOT
BRANCH   1   8
ATOM      8  N   UNL d   1      59.611  -8.981  35.176  0.00  0.00    -0.189 N 
ATOM      9  N   UNL d   1      59.046  -9.398  35.609  0.00  0.00    -0.038 NA
ATOM     10  N   UNL d   1      58.924  -8.995  36.318  0.00  0.00    -0.022 NA
ATOM     11  N   UNL d   1      59.406  -8.340  36.324  0.00  0.00    -0.104 NA
ATOM     12  C   UNL d   1      59.835  -8.326  35.618  0.00  0.00     0.226 A 
ENDBRANCH   1   8
TORSDOF 1
ENDMDL
MODEL 6
REMARK VINA RESULT:      -3.1      4.344      4.779
REMARK  1 active torsions:
REMARK  status: ('A' for Active; 'I' for Inactive)
REMARK    1  A    between atoms: C_6  and  N_1 
ROOT
ATOM      1  C   UNL d   1      59.099  -1.599  29.076  0.00  0.00     0.086 A 
ATOM      2  C   UNL d   1      59.917  -1.571  29.029  0.00  0.00     0.023 A 
ATOM      3  C   UNL d   1      58.709  -2.326  29.115  0.00  0.00     0.023 A 
ATOM      4  C   UNL d   1      59.970  -2.994  29.059  0.00  0.00     0.196 A 
ATOM      5  C   UNL d   1      59.146  -3.025  29.106  0.00  0.00     0.044 A 
ATOM      6  C   UNL d   1      60.353  -2.271  29.020  0.00  0.00     0.044 A 
ATOM      7  O   UNL d   1      60.405  -3.691  29.050  0.00  0.00    -0.287 OA
ENDROOT
BRANCH   1   8
ATOM      8  N   UNL d   1      58.670  -0.903  29.085  0.00  0.00    -0.189 N 
ATOM      9  N   UNL d   1      58.239  -0.603  29.722  0.00  0.00    -0.038 NA
ATOM     10  N   UNL d   1      57.897   0.108  29.483  0.00  0.00    -0.022 NA
ATOM     11  N   UNL d   1      58.112   0.246  28.711  0.00  0.00    -0.104 NA
ATOM     12  C   UNL d   1      58.592  -0.378  28.458  0.00  0.00     0.226 A 
ENDBRANCH   1   8
TORSDOF 1
ENDMDL
MODEL 7
REMARK VINA RESULT:      -2.9      2.321      3.505
REMARK  1 active torsions:
REMARK  status: ('A' for Active; 'I' for Inactive)
REMARK    1  A    between atoms: C_6  and  N_1 
ROOT
ATOM      1  C   UNL d   1      57.750  -0.046  30.808  0.00  0.00     0.086 A 
ATOM      2  C   UNL d   1      57.883  -0.689  30.319  0.00  0.00     0.023 A 
ATOM      3  C   UNL d   1      58.197   0.643  30.720  0.00  0.00     0.023 A 
ATOM      4  C   UNL d   1      58.911   0.031  29.645  0.00  0.00     0.196 A 
ATOM      5  C   UNL d   1      58.779   0.682  30.137  0.00  0.00     0.044 A 
ATOM      6  C   UNL d   1      58.466  -0.650  29.735  0.00  0.00     0.044 A 
ATOM      7  O   UNL d   1      59.490   0.070  29.065  0.00  0.00    -0.287 OA
ENDROOT
BRANCH   1   8
ATOM      8  N   UNL d   1      57.172  -0.088  31.384  0.00  0.00    -0.189 N 
ATOM      9  N   UNL d   1      56.721   0.542  31.670  0.00  0.00    -0.038 NA
ATOM     10  N   UNL d   1      56.209   0.245  32.245  0.00  0.00    -0.022 NA
ATOM     11  N   UNL d   1      56.341  -0.554  32.314  0.00  0.00    -0.104 NA
ATOM     12  C   UNL d   1      56.937  -0.767  31.782  0.00  0.00     0.226 A 
ENDBRANCH   1   8
TORSDOF 1
ENDMDL
MODEL 8
REMARK VINA RESULT:      -2.8      1.845      2.485
REMARK  1 active torsions:
REMARK  status: ('A' for Active; 'I' for Inactive)
REMARK    1  A    between atoms: C_6  and  N_1 
ROOT
ATOM      1  C   UNL d   1      58.111   0.057  30.303  0.00  0.00     0.086 A 
ATOM      2  C   UNL d   1      57.839   0.682  30.757  0.00  0.00     0.023 A 
ATOM      3  C   UNL d   1      57.875  -0.716  30.477  0.00  0.00     0.023 A 
ATOM      4  C   UNL d   1      57.094  -0.223  31.566  0.00  0.00     0.196 A 
ATOM      5  C   UNL d   1      57.365  -0.856  31.110  0.00  0.00     0.044 A 
ATOM      6  C   UNL d   1      57.329   0.542  31.390  0.00  0.00     0.044 A 
ATOM      7  O   UNL d   1      56.586  -0.362  32.196  0.00  0.00    -0.287 OA
ENDROOT
BRANCH   1   8
ATOM      8  N   UNL d   1      58.615   0.199  29.677  0.00  0.00    -0.189 N 
ATOM      9  N   UNL d   1      58.394   0.348  28.896  0.00  0.00    -0.038 NA
ATOM     10  N   UNL d   1      59.083   0.460  28.455  0.00  0.00    -0.022 NA
ATOM     11  N   UNL d   1      59.719   0.382  28.955  0.00  0.00    -0.104 NA
ATOM     12  C   UNL d   1      59.436   0.220  29.714  0.00  0.00     0.226 A 
ENDBRANCH   1   8
TORSDOF 1
ENDMDL
