MODEL 1
REMARK VINA RESULT:      44.3      0.000      0.000
REMARK  6 active torsions:
REMARK  status: ('A' for Active; 'I' for Inactive)
REMARK    1  A    between atoms: N_7  and  C_1 
REMARK    2  A    between atoms: C_10  and  C_3 
REMARK    3  A    between atoms: C_17  and  C_5 
REMARK    4  A    between atoms: C_12  and  N_7 
REMARK    5  A    between atoms: C_8  and  C_9 
REMARK    6  A    between atoms: C_13  and  C_17 
ROOT
ATOM      1  C   UNL d   1      13.347  13.654  -3.206  0.00  0.00     0.165 A 
ATOM      2  N   UNL d   1      13.664  13.405  -2.477  0.00  0.00    -0.208 NA
ATOM      3  C   UNL d   1      13.894  12.617  -2.368  0.00  0.00     0.164 A 
ATOM      4  N   UNL d   1      13.808  12.073  -2.985  0.00  0.00    -0.227 NA
ATOM      5  C   UNL d   1      13.265  13.104  -3.818  0.00  0.00     0.054 A 
ATOM      6  C   UNL d   1      13.494  12.326  -3.702  0.00  0.00     0.086 A 
ATOM      7  C   UNL d   1      13.408  11.779  -4.322  0.00  0.00     0.021 C 
ENDROOT
BRANCH   1   8
ATOM      8  N   UNL d   1      13.120  14.439  -3.313  0.00  0.00    -0.227 NA
BRANCH   8   9
ATOM      9  C   UNL d   1      13.695  15.044  -3.321  0.00  0.00     0.083 A 
ATOM     10  C   UNL d   1      14.050  15.269  -2.628  0.00  0.00     0.019 A 
ATOM     11  C   UNL d   1      14.623  15.871  -2.636  0.00  0.00     0.008 A 
ATOM     12  C   UNL d   1      14.825  16.234  -3.351  0.00  0.00     0.065 A 
ATOM     13  C   UNL d   1      14.464  16.004  -4.048  0.00  0.00     0.008 A 
ATOM     14  C   UNL d   1      13.894  15.405  -4.040  0.00  0.00     0.019 A 
BRANCH  12  15
ATOM     15  C   UNL d   1      15.398  16.836  -3.359  0.00  0.00     0.211 C 
ATOM     16  O   UNL d   1      15.946  16.876  -3.974  0.00  0.00    -0.644 OA
ATOM     17  O   UNL d   1      15.420  17.393  -2.757  0.00  0.00    -0.644 OA
ENDBRANCH  12  15
ENDBRANCH   8   9
ENDBRANCH   1   8
BRANCH   5  18
ATOM     18  C   UNL d   1      12.953  13.342  -4.540  0.00  0.00     0.005 C 
BRANCH  18  19
ATOM     19  C   UNL d   1      12.769  12.800  -5.122  0.00  0.00     0.000 C 
ATOM     20  C   UNL d   1      13.158  12.789  -5.845  0.00  0.00     0.000 C 
ENDBRANCH  18  19
ENDBRANCH   5  18
BRANCH   3  21
ATOM     21  C   UNL d   1      14.207  12.374  -1.644  0.00  0.00     0.036 A 
ATOM     22  C   UNL d   1      13.721  12.024  -1.082  0.00  0.00     0.003 A 
ATOM     23  C   UNL d   1      14.028  11.780  -0.357  0.00  0.00     0.000 A 
ATOM     24  C   UNL d   1      14.842  11.891  -0.195  0.00  0.00     0.000 A 
ATOM     25  C   UNL d   1      15.329  12.241  -0.758  0.00  0.00     0.000 A 
ATOM     26  C   UNL d   1      15.006  12.485  -1.488  0.00  0.00     0.003 A 
ENDBRANCH   3  21
TORSDOF 6
ENDMDL
