MODEL 1
REMARK VINA RESULT:      -1.9      0.000      0.000
REMARK  4 active torsions:
REMARK  status: ('A' for Active; 'I' for Inactive)
REMARK    1  A    between atoms: S_9  and  C_2 
REMARK    2  A    between atoms: C_11  and  C_3 
REMARK    3  A    between atoms: C_7  and  C_10 
REMARK       I    between atoms: N_8  and  C_7 
REMARK    4  A    between atoms: C_10  and  S_9 
ROOT
ATOM      1  N   UNL d   1      33.028  21.283 -22.733  0.00  0.00    -0.220 NA
ATOM      2  C   UNL d   1      33.131  21.402 -23.550  0.00  0.00     0.114 A 
ATOM      3  C   UNL d   1      32.918  21.931 -22.240  0.00  0.00     0.163 A 
ATOM      4  N   UNL d   1      32.910  22.695 -22.551  0.00  0.00    -0.227 NA
ATOM      5  C   UNL d   1      33.123  22.166 -23.861  0.00  0.00     0.042 A 
ATOM      6  C   UNL d   1      33.012  22.812 -23.355  0.00  0.00     0.085 A 
ATOM      7  C   UNL d   1      33.223  22.280 -24.657  0.00  0.00     0.004 A 
ATOM      8  C   UNL d   1      33.003  23.566 -23.657  0.00  0.00     0.019 A 
ATOM      9  C   UNL d   1      33.215  23.044 -24.968  0.00  0.00     0.000 A 
ATOM     10  C   UNL d   1      33.104  23.689 -24.462  0.00  0.00     0.002 A 
ENDROOT
BRANCH   2  11
ATOM     11  S   UNL d   1      33.241  20.759 -24.049  0.00  0.00    -0.062 SA
BRANCH  11  12
ATOM     12  C   UNL d   1      33.200  19.998 -23.759  0.00  0.00     0.098 C 
BRANCH  12  13
ATOM     13  C   UNL d   1      33.095  19.355 -24.270  0.00  0.00     0.271 C 
ATOM     14  N   UNL d   1      33.051  18.589 -23.975  0.00  0.00    -0.272 N 
ATOM     15  C   UNL d   1      32.948  17.958 -24.484  0.00  0.00     0.083 A 
ATOM     16  C   UNL d   1      33.113  18.468 -23.161  0.00  0.00     0.083 A 
ATOM     17  C   UNL d   1      32.903  17.191 -24.194  0.00  0.00     0.019 A 
ATOM     18  C   UNL d   1      32.963  17.053 -23.383  0.00  0.00     0.003 A 
ATOM     19  C   UNL d   1      33.067  17.695 -22.871  0.00  0.00     0.019 A 
ATOM     20  O   UNL d   1      33.035  19.487 -25.083  0.00  0.00    -0.266 OA
ENDBRANCH  12  13
ENDBRANCH  11  12
ENDBRANCH   2  11
BRANCH   3  21
ATOM     21  C   UNL d   1      32.816  21.821 -21.433  0.00  0.00     0.036 A 
ATOM     22  C   UNL d   1      33.241  21.230 -21.046  0.00  0.00     0.003 A 
ATOM     23  C   UNL d   1      33.138  21.117 -20.231  0.00  0.00     0.000 A 
ATOM     24  C   UNL d   1      32.612  21.597 -19.816  0.00  0.00     0.000 A 
ATOM     25  C   UNL d   1      32.187  22.189 -20.205  0.00  0.00     0.000 A 
ATOM     26  C   UNL d   1      32.287  22.300 -21.006  0.00  0.00     0.003 A 
ENDBRANCH   3  21
TORSDOF 4
ENDMDL
MODEL 2
REMARK VINA RESULT:      -1.5      1.296      1.876
REMARK  4 active torsions:
REMARK  status: ('A' for Active; 'I' for Inactive)
REMARK    1  A    between atoms: S_9  and  C_2 
REMARK    2  A    between atoms: C_11  and  C_3 
REMARK    3  A    between atoms: C_7  and  C_10 
REMARK       I    between atoms: N_8  and  C_7 
REMARK    4  A    between atoms: C_10  and  S_9 
ROOT
ATOM      1  N   UNL d   1      32.977  20.063 -22.329  0.00  0.00    -0.220 NA
ATOM      2  C   UNL d   1      33.049  19.818 -23.121  0.00  0.00     0.114 A 
ATOM      3  C   UNL d   1      32.967  20.865 -22.153  0.00  0.00     0.163 A 
ATOM      4  N   UNL d   1      33.028  21.425 -22.756  0.00  0.00    -0.227 NA
ATOM      5  C   UNL d   1      33.110  20.378 -23.723  0.00  0.00     0.042 A 
ATOM      6  C   UNL d   1      33.099  21.184 -23.535  0.00  0.00     0.085 A 
ATOM      7  C   UNL d   1      33.180  20.137 -24.495  0.00  0.00     0.004 A 
ATOM      8  C   UNL d   1      33.158  21.739 -24.125  0.00  0.00     0.019 A 
ATOM      9  C   UNL d   1      33.241  20.698 -25.097  0.00  0.00     0.000 A 
ATOM     10  C   UNL d   1      33.230  21.503 -24.907  0.00  0.00     0.002 A 
ENDROOT
BRANCH   2  11
ATOM     11  S   UNL d   1      33.060  19.017 -23.305  0.00  0.00    -0.062 SA
BRANCH  11  12
ATOM     12  C   UNL d   1      32.410  18.548 -23.152  0.00  0.00     0.098 C 
BRANCH  12  13
ATOM     13  C   UNL d   1      32.479  17.724 -23.131  0.00  0.00     0.271 C 
ATOM     14  N   UNL d   1      31.930  17.248 -23.517  0.00  0.00    -0.272 N 
ATOM     15  C   UNL d   1      32.003  16.435 -23.493  0.00  0.00     0.083 A 
ATOM     16  C   UNL d   1      31.308  17.604 -23.927  0.00  0.00     0.083 A 
ATOM     17  C   UNL d   1      31.458  15.956 -23.877  0.00  0.00     0.019 A 
ATOM     18  C   UNL d   1      30.830  16.296 -24.290  0.00  0.00     0.003 A 
ATOM     19  C   UNL d   1      30.760  17.120 -24.312  0.00  0.00     0.019 A 
ATOM     20  O   UNL d   1      33.105  17.378 -22.719  0.00  0.00    -0.266 OA
ENDBRANCH  12  13
ENDBRANCH  11  12
ENDBRANCH   2  11
BRANCH   3  21
ATOM     21  C   UNL d   1      32.896  21.113 -21.374  0.00  0.00     0.036 A 
ATOM     22  C   UNL d   1      32.483  21.806 -21.203  0.00  0.00     0.003 A 
ATOM     23  C   UNL d   1      32.411  22.058 -20.416  0.00  0.00     0.000 A 
ATOM     24  C   UNL d   1      32.753  21.612 -19.813  0.00  0.00     0.000 A 
ATOM     25  C   UNL d   1      33.166  20.919 -19.985  0.00  0.00     0.000 A 
ATOM     26  C   UNL d   1      33.238  20.671 -20.759  0.00  0.00     0.003 A 
ENDBRANCH   3  21
TORSDOF 4
ENDMDL
MODEL 3
REMARK VINA RESULT:      -0.4      1.627      4.160
REMARK  4 active torsions:
REMARK  status: ('A' for Active; 'I' for Inactive)
REMARK    1  A    between atoms: S_9  and  C_2 
REMARK    2  A    between atoms: C_11  and  C_3 
REMARK    3  A    between atoms: C_7  and  C_10 
REMARK       I    between atoms: N_8  and  C_7 
REMARK    4  A    between atoms: C_10  and  S_9 
ROOT
ATOM      1  N   UNL d   1      33.184  21.353 -22.553  0.00  0.00    -0.220 NA
ATOM      2  C   UNL d   1      33.197  22.163 -22.740  0.00  0.00     0.114 A 
ATOM      3  C   UNL d   1      33.140  20.798 -23.157  0.00  0.00     0.163 A 
ATOM      4  N   UNL d   1      33.108  21.041 -23.944  0.00  0.00    -0.227 NA
ATOM      5  C   UNL d   1      33.165  22.406 -23.528  0.00  0.00     0.042 A 
ATOM      6  C   UNL d   1      33.120  21.838 -24.129  0.00  0.00     0.085 A 
ATOM      7  C   UNL d   1      33.177  23.196 -23.709  0.00  0.00     0.004 A 
ATOM      8  C   UNL d   1      33.088  22.073 -24.906  0.00  0.00     0.019 A 
ATOM      9  C   UNL d   1      33.145  23.439 -24.497  0.00  0.00     0.000 A 
ATOM     10  C   UNL d   1      33.100  22.871 -25.097  0.00  0.00     0.002 A 
ENDROOT
BRANCH   2  11
ATOM     11  S   UNL d   1      33.241  22.724 -22.142  0.00  0.00    -0.062 SA
BRANCH  11  12
ATOM     12  C   UNL d   1      33.068  22.522 -21.371  0.00  0.00     0.098 C 
BRANCH  12  13
ATOM     13  C   UNL d   1      32.661  23.046 -20.876  0.00  0.00     0.271 C 
ATOM     14  N   UNL d   1      32.718  22.980 -20.059  0.00  0.00    -0.272 N 
ATOM     15  C   UNL d   1      32.314  23.501 -19.576  0.00  0.00     0.083 A 
ATOM     16  C   UNL d   1      33.188  22.383 -19.736  0.00  0.00     0.083 A 
ATOM     17  C   UNL d   1      32.368  23.439 -18.759  0.00  0.00     0.019 A 
ATOM     18  C   UNL d   1      32.833  22.847 -18.420  0.00  0.00     0.003 A 
ATOM     19  C   UNL d   1      33.240  22.323 -18.913  0.00  0.00     0.019 A 
ATOM     20  O   UNL d   1      32.194  23.640 -21.210  0.00  0.00    -0.266 OA
ENDBRANCH  12  13
ENDBRANCH  11  12
ENDBRANCH   2  11
BRANCH   3  21
ATOM     21  C   UNL d   1      33.128  19.997 -22.978  0.00  0.00     0.036 A 
ATOM     22  C   UNL d   1      33.002  19.448 -23.580  0.00  0.00     0.003 A 
ATOM     23  C   UNL d   1      32.989  18.638 -23.401  0.00  0.00     0.000 A 
ATOM     24  C   UNL d   1      33.102  18.391 -22.623  0.00  0.00     0.000 A 
ATOM     25  C   UNL d   1      33.228  18.942 -22.020  0.00  0.00     0.000 A 
ATOM     26  C   UNL d   1      33.240  19.738 -22.196  0.00  0.00     0.003 A 
ENDBRANCH   3  21
TORSDOF 4
ENDMDL
