MODEL 1
REMARK VINA RESULT:      43.8      0.000      0.000
REMARK  2 active torsions:
REMARK  status: ('A' for Active; 'I' for Inactive)
REMARK    1  A    between atoms: C_10  and  N_1 
REMARK    2  A    between atoms: C_13  and  C_10 
ROOT
ATOM      1  N   UNL d   1     -50.851  26.611  33.320  0.00  0.00    -0.260 N 
ATOM      2  C   UNL d   1     -50.443  25.903  33.328  0.00  0.00     0.174 A 
ATOM      3  C   UNL d   1     -51.642  26.822  33.315  0.00  0.00     0.348 A 
ATOM      4  N   UNL d   1     -52.341  26.416  33.315  0.00  0.00    -0.216 NA
ATOM      5  C   UNL d   1     -52.553  25.620  33.321  0.00  0.00     0.137 A 
ATOM      6  O   UNL d   1     -50.649  25.115  33.334  0.00  0.00    -0.316 OA
ATOM      7  C   UNL d   1     -51.590  26.114  33.321  0.00  0.00     0.079 A 
ATOM      8  C   UNL d   1     -52.143  24.920  33.329  0.00  0.00     0.022 A 
ATOM      9  C   UNL d   1     -51.360  24.712  33.334  0.00  0.00     0.094 A 
ATOM     10  O   UNL d   1     -51.744  27.623  33.307  0.00  0.00    -0.245 OA
ATOM     11  C   UNL d   1     -49.623  25.848  33.333  0.00  0.00     0.055 C 
ATOM     12  C   UNL d   1     -52.728  24.349  33.331  0.00  0.00    -0.001 A 
ATOM     13  C   UNL d   1     -51.156  23.913  33.342  0.00  0.00     0.024 A 
ATOM     14  C   UNL d   1     -52.521  23.559  33.339  0.00  0.00    -0.000 A 
ATOM     15  C   UNL d   1     -51.733  23.340  33.345  0.00  0.00     0.002 A 
ENDROOT
BRANCH   1  16
ATOM     16  C   UNL d   1     -50.515  27.375  33.315  0.00  0.00     0.082 C 
BRANCH  16  17
ATOM     17  C   UNL d   1     -49.952  27.590  33.916  0.00  0.00     0.017 A 
ATOM     18  C   UNL d   1     -50.069  27.340  34.713  0.00  0.00     0.002 A 
ATOM     19  C   UNL d   1     -49.507  27.553  35.315  0.00  0.00     0.000 A 
ATOM     20  C   UNL d   1     -48.830  28.017  35.114  0.00  0.00     0.000 A 
ATOM     21  C   UNL d   1     -48.710  28.271  34.305  0.00  0.00     0.000 A 
ATOM     22  C   UNL d   1     -49.275  28.053  33.715  0.00  0.00     0.002 A 
ENDBRANCH  16  17
ENDBRANCH   1  16
TORSDOF 2
ENDMDL
MODEL 2
REMARK VINA RESULT:      44.8      0.936      3.682
REMARK  2 active torsions:
REMARK  status: ('A' for Active; 'I' for Inactive)
REMARK    1  A    between atoms: C_10  and  N_1 
REMARK    2  A    between atoms: C_13  and  C_10 
ROOT
ATOM      1  N   UNL d   1     -51.712  25.805  33.318  0.00  0.00    -0.260 N 
ATOM      2  C   UNL d   1     -51.094  25.270  33.317  0.00  0.00     0.174 A 
ATOM      3  C   UNL d   1     -51.768  26.622  33.317  0.00  0.00     0.348 A 
ATOM      4  N   UNL d   1     -51.236  27.231  33.315  0.00  0.00    -0.216 NA
ATOM      5  C   UNL d   1     -50.415  27.286  33.314  0.00  0.00     0.137 A 
ATOM      6  O   UNL d   1     -50.282  25.321  33.315  0.00  0.00    -0.316 OA
ATOM      7  C   UNL d   1     -51.083  26.435  33.316  0.00  0.00     0.079 A 
ATOM      8  C   UNL d   1     -49.806  26.750  33.313  0.00  0.00     0.022 A 
ATOM      9  C   UNL d   1     -49.751  25.942  33.314  0.00  0.00     0.094 A 
ATOM     10  O   UNL d   1     -52.535  26.875  33.318  0.00  0.00    -0.245 OA
ATOM     11  C   UNL d   1     -51.198  24.454  33.318  0.00  0.00     0.055 C 
ATOM     12  C   UNL d   1     -49.133  27.216  33.311  0.00  0.00    -0.001 A 
ATOM     13  C   UNL d   1     -49.005  25.589  33.313  0.00  0.00     0.024 A 
ATOM     14  C   UNL d   1     -48.397  26.861  33.310  0.00  0.00    -0.000 A 
ATOM     15  C   UNL d   1     -48.333  26.046  33.311  0.00  0.00     0.002 A 
ENDROOT
BRANCH   1  16
ATOM     16  C   UNL d   1     -52.526  25.621  33.320  0.00  0.00     0.082 C 
BRANCH  16  17
ATOM     17  C   UNL d   1     -52.772  24.808  33.373  0.00  0.00     0.017 A 
ATOM     18  C   UNL d   1     -52.203  24.189  33.306  0.00  0.00     0.002 A 
ATOM     19  C   UNL d   1     -52.448  23.376  33.359  0.00  0.00     0.000 A 
ATOM     20  C   UNL d   1     -53.263  23.189  33.481  0.00  0.00     0.000 A 
ATOM     21  C   UNL d   1     -53.842  23.816  33.550  0.00  0.00     0.000 A 
ATOM     22  C   UNL d   1     -53.587  24.621  33.495  0.00  0.00     0.002 A 
ENDBRANCH  16  17
ENDBRANCH   1  16
TORSDOF 2
ENDMDL
