MODEL 1
REMARK VINA RESULT:      -8.3      0.000      0.000
REMARK  4 active torsions:
REMARK  status: ('A' for Active; 'I' for Inactive)
REMARK    1  A    between atoms: C_2  and  C_1 
REMARK    2  A    between atoms: C_3  and  C_1 
REMARK       I    between atoms: N_6  and  C_2 
REMARK    3  A    between atoms: C_13  and  C_3 
REMARK    4  A    between atoms: C_8  and  N_6 
ROOT
ATOM      1  C   UNL d   1      51.517  34.097  52.793  0.00  0.00     0.282 C 
ATOM      2  N   UNL d   1      50.727  33.871  53.039  0.00  0.00    -0.208 NA
ATOM      3  O   UNL d   1      51.625  34.702  52.240  0.00  0.00    -0.265 OA
ENDROOT
BRANCH   1   4
ATOM      4  C   UNL d   1      52.162  33.708  53.110  0.00  0.00     0.104 C 
BRANCH   4   5
ATOM      5  C   UNL d   1      52.799  34.152  53.406  0.00  0.00     0.200 C 
ATOM      6  O   UNL d   1      52.848  34.964  53.259  0.00  0.00    -0.286 OA
BRANCH   5   7
ATOM      7  C   UNL d   1      53.379  33.773  53.847  0.00  0.00     0.039 A 
ATOM      8  C   UNL d   1      53.797  33.140  53.520  0.00  0.00     0.003 A 
ATOM      9  C   UNL d   1      54.380  32.765  53.972  0.00  0.00     0.000 A 
ATOM     10  C   UNL d   1      54.539  33.021  54.734  0.00  0.00     0.000 A 
ATOM     11  C   UNL d   1      54.115  33.662  55.059  0.00  0.00     0.000 A 
ATOM     12  C   UNL d   1      53.534  34.040  54.618  0.00  0.00     0.003 A 
ENDBRANCH   5   7
ENDBRANCH   4   5
ENDBRANCH   1   4
BRANCH   2  13
ATOM     13  C   UNL d   1      50.071  34.282  52.703  0.00  0.00     0.087 A 
ATOM     14  C   UNL d   1      49.645  34.808  53.149  0.00  0.00     0.046 A 
ATOM     15  C   UNL d   1      49.021  35.198  52.829  0.00  0.00     0.124 A 
ATOM     16  O   UNL d   1      48.575  35.742  53.277  0.00  0.00    -0.301 OA
ATOM     17  C   UNL d   1      48.809  35.065  52.037  0.00  0.00     0.123 A 
ATOM     18  C   UNL d   1      47.944  36.138  52.959  0.00  0.00     0.149 A 
ATOM     19  C   UNL d   1      47.732  36.004  52.166  0.00  0.00     0.149 A 
ATOM     20  O   UNL d   1      48.153  35.475  51.701  0.00  0.00    -0.301 OA
ATOM     21  C   UNL d   1      49.223  34.541  51.572  0.00  0.00     0.028 A 
ATOM     22  C   UNL d   1      49.859  34.148  51.911  0.00  0.00     0.021 A 
ENDBRANCH   2  13
TORSDOF 4
ENDMDL
MODEL 2
REMARK VINA RESULT:      -8.0      1.103      5.093
REMARK  4 active torsions:
REMARK  status: ('A' for Active; 'I' for Inactive)
REMARK    1  A    between atoms: C_2  and  C_1 
REMARK    2  A    between atoms: C_3  and  C_1 
REMARK       I    between atoms: N_6  and  C_2 
REMARK    3  A    between atoms: C_13  and  C_3 
REMARK    4  A    between atoms: C_8  and  N_6 
ROOT
ATOM      1  C   UNL d   1      50.925  33.878  52.723  0.00  0.00     0.282 C 
ATOM      2  N   UNL d   1      51.754  33.943  52.511  0.00  0.00    -0.208 NA
ATOM      3  O   UNL d   1      50.699  33.469  53.405  0.00  0.00    -0.265 OA
ENDROOT
BRANCH   1   4
ATOM      4  C   UNL d   1      50.361  34.225  52.243  0.00  0.00     0.104 C 
BRANCH   4   5
ATOM      5  C   UNL d   1      49.741  34.656  52.592  0.00  0.00     0.200 C 
ATOM      6  O   UNL d   1      49.780  34.875  53.388  0.00  0.00    -0.286 OA
BRANCH   5   7
ATOM      7  C   UNL d   1      49.091  34.862  52.134  0.00  0.00     0.039 A 
ATOM      8  C   UNL d   1      49.025  34.577  51.362  0.00  0.00     0.003 A 
ATOM      9  C   UNL d   1      48.366  34.790  50.909  0.00  0.00     0.000 A 
ATOM     10  C   UNL d   1      47.788  35.277  51.225  0.00  0.00     0.000 A 
ATOM     11  C   UNL d   1      47.860  35.562  52.006  0.00  0.00     0.000 A 
ATOM     12  C   UNL d   1      48.511  35.356  52.464  0.00  0.00     0.003 A 
ENDBRANCH   5   7
ENDBRANCH   4   5
ENDBRANCH   1   4
BRANCH   2  13
ATOM     13  C   UNL d   1      52.325  33.579  53.015  0.00  0.00     0.087 A 
ATOM     14  C   UNL d   1      52.725  34.020  53.564  0.00  0.00     0.046 A 
ATOM     15  C   UNL d   1      53.268  33.675  54.044  0.00  0.00     0.124 A 
ATOM     16  O   UNL d   1      53.687  34.118  54.612  0.00  0.00    -0.301 OA
ATOM     17  C   UNL d   1      53.422  32.861  53.979  0.00  0.00     0.123 A 
ATOM     18  C   UNL d   1      54.236  33.774  55.099  0.00  0.00     0.149 A 
ATOM     19  C   UNL d   1      54.390  32.960  55.034  0.00  0.00     0.149 A 
ATOM     20  O   UNL d   1      53.993  32.498  54.483  0.00  0.00    -0.301 OA
ATOM     21  C   UNL d   1      53.031  32.400  53.435  0.00  0.00     0.028 A 
ATOM     22  C   UNL d   1      52.478  32.765  52.950  0.00  0.00     0.021 A 
ENDBRANCH   2  13
TORSDOF 4
ENDMDL
MODEL 3
REMARK VINA RESULT:      -7.2      1.971      5.233
REMARK  4 active torsions:
REMARK  status: ('A' for Active; 'I' for Inactive)
REMARK    1  A    between atoms: C_2  and  C_1 
REMARK    2  A    between atoms: C_3  and  C_1 
REMARK       I    between atoms: N_6  and  C_2 
REMARK    3  A    between atoms: C_13  and  C_3 
REMARK    4  A    between atoms: C_8  and  N_6 
ROOT
ATOM      1  C   UNL d   1      51.529  33.581  52.837  0.00  0.00     0.282 C 
ATOM      2  N   UNL d   1      52.088  33.125  52.373  0.00  0.00    -0.208 NA
ATOM      3  O   UNL d   1      51.448  33.442  53.649  0.00  0.00    -0.265 OA
ENDROOT
BRANCH   1   4
ATOM      4  C   UNL d   1      51.076  34.153  52.470  0.00  0.00     0.104 C 
BRANCH   4   5
ATOM      5  C   UNL d   1      50.331  34.347  52.784  0.00  0.00     0.200 C 
ATOM      6  O   UNL d   1      50.210  34.346  53.602  0.00  0.00    -0.286 OA
BRANCH   5   7
ATOM      7  C   UNL d   1      49.718  34.539  52.273  0.00  0.00     0.039 A 
ATOM      8  C   UNL d   1      49.753  34.303  51.483  0.00  0.00     0.003 A 
ATOM      9  C   UNL d   1      49.130  34.501  50.974  0.00  0.00     0.000 A 
ATOM     10  C   UNL d   1      48.489  34.926  51.255  0.00  0.00     0.000 A 
ATOM     11  C   UNL d   1      48.458  35.162  52.055  0.00  0.00     0.000 A 
ATOM     12  C   UNL d   1      49.072  34.970  52.567  0.00  0.00     0.003 A 
ENDBRANCH   5   7
ENDBRANCH   4   5
ENDBRANCH   1   4
BRANCH   2  13
ATOM     13  C   UNL d   1      52.549  32.538  52.767  0.00  0.00     0.087 A 
ATOM     14  C   UNL d   1      52.340  31.756  52.722  0.00  0.00     0.046 A 
ATOM     15  C   UNL d   1      52.778  31.197  53.096  0.00  0.00     0.124 A 
ATOM     16  O   UNL d   1      52.574  30.390  53.056  0.00  0.00    -0.301 OA
ATOM     17  C   UNL d   1      53.449  31.419  53.533  0.00  0.00     0.123 A 
ATOM     18  C   UNL d   1      53.014  29.823  53.433  0.00  0.00     0.149 A 
ATOM     19  C   UNL d   1      53.685  30.045  53.870  0.00  0.00     0.149 A 
ATOM     20  O   UNL d   1      53.910  30.832  53.926  0.00  0.00    -0.301 OA
ATOM     21  C   UNL d   1      53.676  32.198  53.591  0.00  0.00     0.028 A 
ATOM     22  C   UNL d   1      53.220  32.760  53.204  0.00  0.00     0.021 A 
ENDBRANCH   2  13
TORSDOF 4
ENDMDL
