MODEL 1
REMARK VINA RESULT:      -6.3      0.000      0.000
REMARK  4 active torsions:
REMARK  status: ('A' for Active; 'I' for Inactive)
REMARK    1  A    between atoms: C_2  and  N_1 
REMARK    2  A    between atoms: C_4  and  C_2 
REMARK    3  A    between atoms: C_10  and  C_4 
REMARK    4  A    between atoms: N_7  and  C_6 
ROOT
ATOM      1  C   UNL d   1     -49.344  14.815  22.951  0.00  0.00     0.064 A 
ATOM      2  C   UNL d   1     -49.304  14.004  23.102  0.00  0.00     0.018 A 
ATOM      3  C   UNL d   1     -48.684  15.217  22.663  0.00  0.00     0.018 A 
ATOM      4  C   UNL d   1     -47.938  14.005  22.675  0.00  0.00     0.002 A 
ATOM      5  C   UNL d   1     -47.981  14.814  22.525  0.00  0.00     0.002 A 
ATOM      6  C   UNL d   1     -48.600  13.599  22.964  0.00  0.00     0.002 A 
ENDROOT
BRANCH   4   7
ATOM      7  C   UNL d   1     -47.231  13.599  22.537  0.00  0.00     0.025 C 
BRANCH   7   8
ATOM      8  C   UNL d   1     -46.587  13.722  23.029  0.00  0.00     0.148 C 
BRANCH   8   9
ATOM      9  N   UNL d   1     -45.905  13.270  22.926  0.00  0.00    -0.112 N 
ATOM     10  O   UNL d   1     -45.363  13.489  22.359  0.00  0.00    -0.532 OA
ATOM     11  O   UNL d   1     -45.794  12.613  23.398  0.00  0.00    -0.532 OA
ENDBRANCH   8   9
ENDBRANCH   7   8
ENDBRANCH   4   7
BRANCH   1  12
ATOM     12  N   UNL d   1     -50.059  15.215  23.093  0.00  0.00    -0.301 N 
ATOM     13  C   UNL d   1     -50.083  15.827  23.651  0.00  0.00     0.100 C 
ATOM     14  C   UNL d   1     -50.748  15.008  22.683  0.00  0.00     0.100 C 
ENDBRANCH   1  12
TORSDOF 4
ENDMDL
MODEL 2
REMARK VINA RESULT:      -6.0      2.173      3.722
REMARK  4 active torsions:
REMARK  status: ('A' for Active; 'I' for Inactive)
REMARK    1  A    between atoms: C_2  and  N_1 
REMARK    2  A    between atoms: C_4  and  C_2 
REMARK    3  A    between atoms: C_10  and  C_4 
REMARK    4  A    between atoms: N_7  and  C_6 
ROOT
ATOM      1  C   UNL d   1     -46.816  13.428  22.753  0.00  0.00     0.064 A 
ATOM      2  C   UNL d   1     -47.562  13.126  22.568  0.00  0.00     0.018 A 
ATOM      3  C   UNL d   1     -46.712  14.240  22.866  0.00  0.00     0.018 A 
ATOM      4  C   UNL d   1     -48.096  14.454  22.611  0.00  0.00     0.002 A 
ATOM      5  C   UNL d   1     -47.350  14.752  22.796  0.00  0.00     0.002 A 
ATOM      6  C   UNL d   1     -48.202  13.641  22.497  0.00  0.00     0.002 A 
ENDROOT
BRANCH   4   7
ATOM      7  C   UNL d   1     -48.739  14.970  22.540  0.00  0.00     0.025 C 
BRANCH   7   8
ATOM      8  C   UNL d   1     -49.379  14.894  23.046  0.00  0.00     0.148 C 
BRANCH   8   9
ATOM      9  N   UNL d   1     -49.978  15.461  23.029  0.00  0.00    -0.112 N 
ATOM     10  O   UNL d   1     -50.110  15.922  23.688  0.00  0.00    -0.532 OA
ATOM     11  O   UNL d   1     -50.422  15.543  22.349  0.00  0.00    -0.532 OA
ENDBRANCH   8   9
ENDBRANCH   7   8
ENDBRANCH   4   7
BRANCH   1  12
ATOM     12  N   UNL d   1     -46.176  12.903  22.822  0.00  0.00    -0.301 N 
ATOM     13  C   UNL d   1     -45.482  13.042  22.391  0.00  0.00     0.100 C 
ATOM     14  C   UNL d   1     -46.224  12.242  23.318  0.00  0.00     0.100 C 
ENDBRANCH   1  12
TORSDOF 4
ENDMDL
MODEL 3
REMARK VINA RESULT:      -5.9      1.633      2.128
REMARK  4 active torsions:
REMARK  status: ('A' for Active; 'I' for Inactive)
REMARK    1  A    between atoms: C_2  and  N_1 
REMARK    2  A    between atoms: C_4  and  C_2 
REMARK    3  A    between atoms: C_10  and  C_4 
REMARK    4  A    between atoms: N_7  and  C_6 
ROOT
ATOM      1  C   UNL d   1     -49.461  12.418  23.049  0.00  0.00     0.064 A 
ATOM      2  C   UNL d   1     -49.115  13.166  22.996  0.00  0.00     0.018 A 
ATOM      3  C   UNL d   1     -48.993  11.753  23.195  0.00  0.00     0.018 A 
ATOM      4  C   UNL d   1     -47.833  12.577  23.236  0.00  0.00     0.002 A 
ATOM      5  C   UNL d   1     -48.180  11.831  23.288  0.00  0.00     0.002 A 
ATOM      6  C   UNL d   1     -48.301  13.245  23.090  0.00  0.00     0.002 A 
ENDROOT
BRANCH   4   7
ATOM      7  C   UNL d   1     -47.015  12.656  23.330  0.00  0.00     0.025 C 
BRANCH   7   8
ATOM      8  C   UNL d   1     -46.541  12.791  22.674  0.00  0.00     0.148 C 
BRANCH   8   9
ATOM      9  N   UNL d   1     -45.729  12.891  22.776  0.00  0.00    -0.112 N 
ATOM     10  O   UNL d   1     -45.373  13.571  22.503  0.00  0.00    -0.532 OA
ATOM     11  O   UNL d   1     -45.304  12.301  23.149  0.00  0.00    -0.532 OA
ENDBRANCH   8   9
ENDBRANCH   7   8
ENDBRANCH   4   7
BRANCH   1  12
ATOM     12  N   UNL d   1     -50.283  12.347  22.953  0.00  0.00    -0.301 N 
ATOM     13  C   UNL d   1     -50.744  12.040  23.571  0.00  0.00     0.100 C 
ATOM     14  C   UNL d   1     -50.648  12.580  22.248  0.00  0.00     0.100 C 
ENDBRANCH   1  12
TORSDOF 4
ENDMDL
