MODEL 1
REMARK VINA RESULT:      -2.2      0.000      0.000
REMARK  7 active torsions:
REMARK  status: ('A' for Active; 'I' for Inactive)
REMARK    1  A    between atoms: C_4  and  S_1 
REMARK    2  A    between atoms: N_6  and  S_1 
REMARK    3  A    between atoms: N_3  and  C_2 
REMARK    4  A    between atoms: C_15  and  N_6 
REMARK    5  A    between atoms: C_16  and  N_6 
REMARK    6  A    between atoms: C_18  and  C_15 
REMARK    7  A    between atoms: C_17  and  C_16 
ROOT
ATOM      1  C   UNL d   1      29.011  16.458 -24.165  0.00  0.00     0.138 A 
ATOM      2  C   UNL d   1      30.423  16.352 -24.356  0.00  0.00     0.106 A 
ATOM      3  C   UNL d   1      29.777  16.713 -23.993  0.00  0.00     0.037 A 
ATOM      4  C   UNL d   1      28.892  15.844 -24.700  0.00  0.00     0.080 A 
ATOM      5  C   UNL d   1      30.304  15.735 -24.893  0.00  0.00     0.014 A 
ATOM      6  C   UNL d   1      29.538  15.481 -25.065  0.00  0.00     0.014 A 
ATOM      7 CL   UNL d   1      28.126  15.589 -24.873  0.00  0.00    -0.081 Cl
ENDROOT
BRANCH   2   8
ATOM      8  S   UNL d   1      31.189  16.607 -24.183  0.00  0.00     0.271 S 
ATOM      9  O   UNL d   1      31.075  16.410 -23.390  0.00  0.00    -0.200 OA
ATOM     10  O   UNL d   1      31.302  16.804 -24.976  0.00  0.00    -0.200 OA
BRANCH   8  11
ATOM     11  N   UNL d   1      31.954  16.861 -24.011  0.00  0.00    -0.229 N 
BRANCH  11  12
ATOM     12  C   UNL d   1      32.562  16.309 -23.925  0.00  0.00     0.092 C 
BRANCH  12  13
ATOM     13  C   UNL d   1      32.903  16.183 -23.183  0.00  0.00     0.020 C 
ATOM     14  C   UNL d   1      33.241  15.453 -22.999  0.00  0.00     0.002 C 
ENDBRANCH  12  13
ENDBRANCH  11  12
BRANCH  11  15
ATOM     15  C   UNL d   1      32.112  17.665 -23.924  0.00  0.00     0.092 C 
BRANCH  15  16
ATOM     16  C   UNL d   1      32.783  17.995 -24.275  0.00  0.00     0.020 C 
ATOM     17  C   UNL d   1      32.921  18.814 -24.221  0.00  0.00     0.002 C 
ENDBRANCH  15  16
ENDBRANCH  11  15
ENDBRANCH   8  11
ENDBRANCH   2   8
BRANCH   1  18
ATOM     18  N   UNL d   1      28.363  16.824 -23.798  0.00  0.00    -0.113 N 
ATOM     19  O   UNL d   1      28.168  17.602 -23.980  0.00  0.00    -0.532 OA
ATOM     20  O   UNL d   1      27.913  16.404 -23.248  0.00  0.00    -0.532 OA
ENDBRANCH   1  18
TORSDOF 7
ENDMDL
MODEL 2
REMARK VINA RESULT:      -1.6      2.866      4.478
REMARK  7 active torsions:
REMARK  status: ('A' for Active; 'I' for Inactive)
REMARK    1  A    between atoms: C_4  and  S_1 
REMARK    2  A    between atoms: N_6  and  S_1 
REMARK    3  A    between atoms: N_3  and  C_2 
REMARK    4  A    between atoms: C_15  and  N_6 
REMARK    5  A    between atoms: C_16  and  N_6 
REMARK    6  A    between atoms: C_18  and  C_15 
REMARK    7  A    between atoms: C_17  and  C_16 
ROOT
ATOM      1  C   UNL d   1      32.856  20.037 -22.456  0.00  0.00     0.138 A 
ATOM      2  C   UNL d   1      32.694  19.002 -23.427  0.00  0.00     0.106 A 
ATOM      3  C   UNL d   1      32.674  19.255 -22.643  0.00  0.00     0.037 A 
ATOM      4  C   UNL d   1      33.057  20.568 -23.053  0.00  0.00     0.080 A 
ATOM      5  C   UNL d   1      32.896  19.534 -24.027  0.00  0.00     0.014 A 
ATOM      6  C   UNL d   1      33.077  20.317 -23.840  0.00  0.00     0.014 A 
ATOM      7 CL   UNL d   1      33.238  21.351 -22.866  0.00  0.00    -0.081 Cl
ENDROOT
BRANCH   2   8
ATOM      8  S   UNL d   1      32.512  18.219 -23.614  0.00  0.00     0.271 S 
ATOM      9  O   UNL d   1      33.233  18.147 -24.009  0.00  0.00    -0.200 OA
ATOM     10  O   UNL d   1      31.792  18.292 -23.219  0.00  0.00    -0.200 OA
BRANCH   8  11
ATOM     11  N   UNL d   1      32.331  17.437 -23.801  0.00  0.00    -0.229 N 
BRANCH  11  12
ATOM     12  C   UNL d   1      31.573  17.242 -24.067  0.00  0.00     0.092 C 
BRANCH  12  13
ATOM     13  C   UNL d   1      31.471  16.922 -24.822  0.00  0.00     0.020 C 
ATOM     14  C   UNL d   1      30.715  16.737 -25.096  0.00  0.00     0.002 C 
ENDBRANCH  12  13
ENDBRANCH  11  12
BRANCH  11  15
ATOM     15  C   UNL d   1      32.904  16.851 -23.723  0.00  0.00     0.092 C 
BRANCH  15  16
ATOM     16  C   UNL d   1      32.831  16.277 -23.134  0.00  0.00     0.020 C 
ATOM     17  C   UNL d   1      33.195  15.534 -23.229  0.00  0.00     0.002 C 
ENDBRANCH  15  16
ENDBRANCH  11  15
ENDBRANCH   8  11
ENDBRANCH   2   8
BRANCH   1  18
ATOM     18  N   UNL d   1      32.834  20.287 -21.664  0.00  0.00    -0.113 N 
ATOM     19  O   UNL d   1      33.205  19.843 -21.080  0.00  0.00    -0.532 OA
ATOM     20  O   UNL d   1      32.440  20.984 -21.466  0.00  0.00    -0.532 OA
ENDBRANCH   1  18
TORSDOF 7
ENDMDL
MODEL 3
REMARK VINA RESULT:      -1.2      1.791      3.884
REMARK  7 active torsions:
REMARK  status: ('A' for Active; 'I' for Inactive)
REMARK    1  A    between atoms: C_4  and  S_1 
REMARK    2  A    between atoms: N_6  and  S_1 
REMARK    3  A    between atoms: N_3  and  C_2 
REMARK    4  A    between atoms: C_15  and  N_6 
REMARK    5  A    between atoms: C_16  and  N_6 
REMARK    6  A    between atoms: C_18  and  C_15 
REMARK    7  A    between atoms: C_17  and  C_16 
ROOT
ATOM      1  C   UNL d   1      32.104  16.631 -23.867  0.00  0.00     0.138 A 
ATOM      2  C   UNL d   1      30.798  16.458 -24.420  0.00  0.00     0.106 A 
ATOM      3  C   UNL d   1      31.289  16.757 -23.830  0.00  0.00     0.037 A 
ATOM      4  C   UNL d   1      32.427  16.205 -24.493  0.00  0.00     0.080 A 
ATOM      5  C   UNL d   1      31.121  16.030 -25.049  0.00  0.00     0.014 A 
ATOM      6  C   UNL d   1      31.936  15.903 -25.086  0.00  0.00     0.014 A 
ATOM      7 CL   UNL d   1      33.241  16.078 -24.530  0.00  0.00    -0.081 Cl
ENDROOT
BRANCH   2   8
ATOM      8  S   UNL d   1      29.983  16.584 -24.383  0.00  0.00     0.271 S 
ATOM      9  O   UNL d   1      29.873  16.058 -25.008  0.00  0.00    -0.200 OA
ATOM     10  O   UNL d   1      30.094  17.111 -23.757  0.00  0.00    -0.200 OA
BRANCH   8  11
ATOM     11  N   UNL d   1      29.169  16.711 -24.346  0.00  0.00    -0.229 N 
BRANCH  11  12
ATOM     12  C   UNL d   1      28.814  17.262 -24.849  0.00  0.00     0.092 C 
BRANCH  12  13
ATOM     13  C   UNL d   1      28.739  18.049 -24.609  0.00  0.00     0.020 C 
ATOM     14  C   UNL d   1      28.360  18.597 -25.097  0.00  0.00     0.002 C 
ENDBRANCH  12  13
ENDBRANCH  11  12
BRANCH  11  15
ATOM     15  C   UNL d   1      28.710  16.288 -23.808  0.00  0.00     0.092 C 
BRANCH  15  16
ATOM     16  C   UNL d   1      27.957  16.026 -24.024  0.00  0.00     0.020 C 
ATOM     17  C   UNL d   1      27.568  15.453 -23.562  0.00  0.00     0.002 C 
ENDBRANCH  15  16
ENDBRANCH  11  15
ENDBRANCH   8  11
ENDBRANCH   2   8
BRANCH   1  18
ATOM     18  N   UNL d   1      32.595  16.935 -23.271  0.00  0.00    -0.113 N 
ATOM     19  O   UNL d   1      32.782  16.475 -22.614  0.00  0.00    -0.532 OA
ATOM     20  O   UNL d   1      32.896  17.700 -23.339  0.00  0.00    -0.532 OA
ENDBRANCH   1  18
TORSDOF 7
ENDMDL
MODEL 4
REMARK VINA RESULT:      -0.1      4.342      5.696
REMARK  7 active torsions:
REMARK  status: ('A' for Active; 'I' for Inactive)
REMARK    1  A    between atoms: C_4  and  S_1 
REMARK    2  A    between atoms: N_6  and  S_1 
REMARK    3  A    between atoms: N_3  and  C_2 
REMARK    4  A    between atoms: C_15  and  N_6 
REMARK    5  A    between atoms: C_16  and  N_6 
REMARK    6  A    between atoms: C_18  and  C_15 
REMARK    7  A    between atoms: C_17  and  C_16 
ROOT
ATOM      1  C   UNL d   1      32.550  21.704 -21.206  0.00  0.00     0.138 A 
ATOM      2  C   UNL d   1      32.898  20.435 -21.761  0.00  0.00     0.106 A 
ATOM      3  C   UNL d   1      32.555  21.179 -21.842  0.00  0.00     0.037 A 
ATOM      4  C   UNL d   1      32.889  21.484 -20.488  0.00  0.00     0.080 A 
ATOM      5  C   UNL d   1      33.238  20.213 -21.041  0.00  0.00     0.014 A 
ATOM      6  C   UNL d   1      33.234  20.738 -20.405  0.00  0.00     0.014 A 
ATOM      7 CL   UNL d   1      32.885  22.009 -19.852  0.00  0.00    -0.081 Cl
ENDROOT
BRANCH   2   8
ATOM      8  S   UNL d   1      32.902  19.910 -22.398  0.00  0.00     0.271 S 
ATOM      9  O   UNL d   1      32.563  19.328 -21.921  0.00  0.00    -0.200 OA
ATOM     10  O   UNL d   1      33.241  20.491 -22.875  0.00  0.00    -0.200 OA
BRANCH   8  11
ATOM     11  N   UNL d   1      32.906  19.385 -23.034  0.00  0.00    -0.229 N 
BRANCH  11  12
ATOM     12  C   UNL d   1      32.600  19.620 -23.764  0.00  0.00     0.092 C 
BRANCH  12  13
ATOM     13  C   UNL d   1      32.890  19.285 -24.461  0.00  0.00     0.020 C 
ATOM     14  C   UNL d   1      33.202  19.765 -25.056  0.00  0.00     0.002 C 
ENDBRANCH  12  13
ENDBRANCH  11  12
BRANCH  11  15
ATOM     15  C   UNL d   1      33.216  18.628 -22.942  0.00  0.00     0.092 C 
BRANCH  15  16
ATOM     16  C   UNL d   1      32.797  17.973 -23.221  0.00  0.00     0.020 C 
ATOM     17  C   UNL d   1      32.979  17.211 -22.939  0.00  0.00     0.002 C 
ENDBRANCH  15  16
ENDBRANCH  11  15
ENDBRANCH   8  11
ENDBRANCH   2   8
BRANCH   1  18
ATOM     18  N   UNL d   1      32.204  22.454 -21.292  0.00  0.00    -0.113 N 
ATOM     19  O   UNL d   1      32.675  23.128 -21.316  0.00  0.00    -0.532 OA
ATOM     20  O   UNL d   1      31.384  22.521 -21.354  0.00  0.00    -0.532 OA
ENDBRANCH   1  18
TORSDOF 7
ENDMDL
MODEL 5
REMARK VINA RESULT:       0.0      2.019      3.737
REMARK  7 active torsions:
REMARK  status: ('A' for Active; 'I' for Inactive)
REMARK    1  A    between atoms: C_4  and  S_1 
REMARK    2  A    between atoms: N_6  and  S_1 
REMARK    3  A    between atoms: N_3  and  C_2 
REMARK    4  A    between atoms: C_15  and  N_6 
REMARK    5  A    between atoms: C_16  and  N_6 
REMARK    6  A    between atoms: C_18  and  C_15 
REMARK    7  A    between atoms: C_17  and  C_16 
ROOT
ATOM      1  C   UNL d   1      32.304  18.277 -23.658  0.00  0.00     0.138 A 
ATOM      2  C   UNL d   1      31.525  17.259 -24.287  0.00  0.00     0.106 A 
ATOM      3  C   UNL d   1      31.737  17.679 -23.611  0.00  0.00     0.037 A 
ATOM      4  C   UNL d   1      32.658  18.454 -24.380  0.00  0.00     0.080 A 
ATOM      5  C   UNL d   1      31.880  17.436 -25.012  0.00  0.00     0.014 A 
ATOM      6  C   UNL d   1      32.447  18.034 -25.058  0.00  0.00     0.014 A 
ATOM      7 CL   UNL d   1      33.225  19.052 -24.426  0.00  0.00    -0.081 Cl
ENDROOT
BRANCH   2   8
ATOM      8  S   UNL d   1      30.958  16.661 -24.241  0.00  0.00     0.271 S 
ATOM      9  O   UNL d   1      30.359  17.224 -24.306  0.00  0.00    -0.200 OA
ATOM     10  O   UNL d   1      31.558  16.098 -24.176  0.00  0.00    -0.200 OA
BRANCH   8  11
ATOM     11  N   UNL d   1      30.392  16.063 -24.195  0.00  0.00    -0.229 N 
BRANCH  11  12
ATOM     12  C   UNL d   1      29.753  16.059 -24.719  0.00  0.00     0.092 C 
BRANCH  12  13
ATOM     13  C   UNL d   1      29.099  15.578 -24.568  0.00  0.00     0.020 C 
ATOM     14  C   UNL d   1      28.457  15.573 -25.087  0.00  0.00     0.002 C 
ENDBRANCH  12  13
ENDBRANCH  11  12
BRANCH  11  15
ATOM     15  C   UNL d   1      30.463  15.471 -23.627  0.00  0.00     0.092 C 
BRANCH  15  16
ATOM     16  C   UNL d   1      29.948  15.453 -22.981  0.00  0.00     0.020 C 
ATOM     17  C   UNL d   1      30.252  15.453 -22.206  0.00  0.00     0.002 C 
ENDBRANCH  15  16
ENDBRANCH  11  15
ENDBRANCH   8  11
ENDBRANCH   2   8
BRANCH   1  18
ATOM     18  N   UNL d   1      32.515  18.699 -22.974  0.00  0.00    -0.113 N 
ATOM     19  O   UNL d   1      32.255  19.472 -22.868  0.00  0.00    -0.532 OA
ATOM     20  O   UNL d   1      32.986  18.339 -22.400  0.00  0.00    -0.532 OA
ENDBRANCH   1  18
TORSDOF 7
ENDMDL
MODEL 6
REMARK VINA RESULT:       0.1      2.172      3.371
REMARK  7 active torsions:
REMARK  status: ('A' for Active; 'I' for Inactive)
REMARK    1  A    between atoms: C_4  and  S_1 
REMARK    2  A    between atoms: N_6  and  S_1 
REMARK    3  A    between atoms: N_3  and  C_2 
REMARK    4  A    between atoms: C_15  and  N_6 
REMARK    5  A    between atoms: C_16  and  N_6 
REMARK    6  A    between atoms: C_18  and  C_15 
REMARK    7  A    between atoms: C_17  and  C_16 
ROOT
ATOM      1  C   UNL d   1      31.831  16.721 -23.991  0.00  0.00     0.138 A 
ATOM      2  C   UNL d   1      32.201  18.097 -24.095  0.00  0.00     0.106 A 
ATOM      3  C   UNL d   1      32.230  17.378 -23.693  0.00  0.00     0.037 A 
ATOM      4  C   UNL d   1      31.402  16.782 -24.692  0.00  0.00     0.080 A 
ATOM      5  C   UNL d   1      31.771  18.159 -24.798  0.00  0.00     0.014 A 
ATOM      6  C   UNL d   1      31.371  17.502 -25.096  0.00  0.00     0.014 A 
ATOM      7 CL   UNL d   1      31.002  16.125 -24.990  0.00  0.00    -0.081 Cl
ENDROOT
BRANCH   2   8
ATOM      8  S   UNL d   1      32.601  18.754 -23.797  0.00  0.00     0.271 S 
ATOM      9  O   UNL d   1      31.962  18.918 -23.302  0.00  0.00    -0.200 OA
ATOM     10  O   UNL d   1      33.241  18.589 -24.291  0.00  0.00    -0.200 OA
BRANCH   8  11
ATOM     11  N   UNL d   1      33.001  19.411 -23.499  0.00  0.00    -0.229 N 
BRANCH  11  12
ATOM     12  C   UNL d   1      33.160  20.055 -23.991  0.00  0.00     0.092 C 
BRANCH  12  13
ATOM     13  C   UNL d   1      32.930  20.815 -23.763  0.00  0.00     0.020 C 
ATOM     14  C   UNL d   1      33.217  21.475 -24.167  0.00  0.00     0.002 C 
ENDBRANCH  12  13
ENDBRANCH  11  12
BRANCH  11  15
ATOM     15  C   UNL d   1      33.241  19.425 -22.711  0.00  0.00     0.092 C 
BRANCH  15  16
ATOM     16  C   UNL d   1      32.890  19.953 -22.181  0.00  0.00     0.020 C 
ATOM     17  C   UNL d   1      33.092  19.927 -21.374  0.00  0.00     0.002 C 
ENDBRANCH  15  16
ENDBRANCH  11  15
ENDBRANCH   8  11
ENDBRANCH   2   8
BRANCH   1  18
ATOM     18  N   UNL d   1      31.863  15.999 -23.583  0.00  0.00    -0.113 N 
ATOM     19  O   UNL d   1      31.286  15.812 -23.026  0.00  0.00    -0.532 OA
ATOM     20  O   UNL d   1      32.475  15.468 -23.736  0.00  0.00    -0.532 OA
ENDBRANCH   1  18
TORSDOF 7
ENDMDL
