MODEL 1
REMARK VINA RESULT:       0.4      0.000      0.000
REMARK  5 active torsions:
REMARK  status: ('A' for Active; 'I' for Inactive)
REMARK       I    between atoms: C_5  and  N_1 
REMARK    1  A    between atoms: S_13  and  C_2 
REMARK    2  A    between atoms: S_3  and  C_9 
REMARK    3  A    between atoms: N_7  and  S_3 
REMARK    4  A    between atoms: C_12  and  C_5 
REMARK    5  A    between atoms: C_23  and  S_13 
ROOT
ATOM      1  C   UNL d   1     -41.800-122.768 -52.359  0.00  0.00     0.104 A 
ATOM      2  C   UNL d   1     -41.751-123.143 -50.753  0.00  0.00     0.057 A 
ATOM      3  C   UNL d   1     -41.362-122.302 -51.837  0.00  0.00     0.013 A 
ATOM      4  C   UNL d   1     -42.217-123.427 -52.074  0.00  0.00     0.013 A 
ATOM      5  C   UNL d   1     -42.194-123.617 -51.270  0.00  0.00     0.005 A 
ATOM      6  C   UNL d   1     -41.339-122.491 -51.037  0.00  0.00     0.005 A 
ENDROOT
BRANCH   2   7
ATOM      7  C   UNL d   1     -41.729-123.333 -49.958  0.00  0.00     0.266 C 
ATOM      8  N   UNL d   1     -42.308-123.046 -49.437  0.00  0.00    -0.253 N 
ATOM      9  C   UNL d   1     -42.941-122.562 -49.646  0.00  0.00     0.182 A 
ATOM     10  C   UNL d   1     -42.348-123.196 -48.625  0.00  0.00     0.086 A 
ATOM     11  N   UNL d   1     -43.378-122.410 -48.959  0.00  0.00    -0.221 NA
ATOM     12  C   UNL d   1     -43.014-122.799 -48.332  0.00  0.00     0.100 A 
ATOM     13  C   UNL d   1     -43.196-122.848 -47.534  0.00  0.00     0.021 A 
ATOM     14  C   UNL d   1     -42.722-123.288 -47.024  0.00  0.00     0.002 A 
ATOM     15  C   UNL d   1     -42.057-123.683 -47.321  0.00  0.00     0.002 A 
ATOM     16  C   UNL d   1     -41.876-123.633 -48.123  0.00  0.00     0.019 A 
ATOM     17  O   UNL d   1     -41.123-123.816 -49.668  0.00  0.00    -0.267 OA
BRANCH   9  18
ATOM     18  S   UNL d   1     -43.102-122.285 -50.401  0.00  0.00    -0.049 SA
BRANCH  18  19
ATOM     19  C   UNL d   1     -43.807-121.584 -50.565  0.00  0.00     0.038 C 
ATOM     20  C   UNL d   1     -44.721-121.748 -50.738  0.00  0.00     0.008 C 
ENDBRANCH  18  19
ENDBRANCH   9  18
ENDBRANCH   2   7
BRANCH   1  21
ATOM     21  S   UNL d   1     -41.820-122.575 -53.163  0.00  0.00     0.271 S 
ATOM     22  O   UNL d   1     -41.477-121.836 -53.003  0.00  0.00    -0.200 OA
ATOM     23  O   UNL d   1     -42.163-123.308 -53.334  0.00  0.00    -0.200 OA
BRANCH  21  24
ATOM     24  N   UNL d   1     -41.843-122.384 -53.969  0.00  0.00    -0.229 N 
ATOM     25  C   UNL d   1     -42.429-121.875 -54.263  0.00  0.00     0.092 A 
ATOM     26  C   UNL d   1     -42.452-121.687 -55.056  0.00  0.00     0.020 A 
ATOM     27  C   UNL d   1     -41.894-122.002 -55.566  0.00  0.00     0.003 A 
ATOM     28  C   UNL d   1     -41.304-122.512 -55.287  0.00  0.00     0.020 A 
ATOM     29  C   UNL d   1     -41.286-122.698 -54.482  0.00  0.00     0.092 A 
ENDBRANCH  21  24
ENDBRANCH   1  21
TORSDOF 5
ENDMDL
