MODEL 1
REMARK VINA RESULT:      -5.2      0.000      0.000
REMARK  5 active torsions:
REMARK  status: ('A' for Active; 'I' for Inactive)
REMARK    1  A    between atoms: C_2  and  C_1 
REMARK    2  A    between atoms: N_13  and  C_7 
REMARK    3  A    between atoms: C_12  and  C_21 
REMARK    4  A    between atoms: C_21  and  N_13 
REMARK    5  A    between atoms: O_24  and  C_22 
ROOT
ATOM      1  C   UNL d   1     -42.100-122.330 -50.597  0.00  0.00     0.089 A 
ATOM      2  C   UNL d   1     -42.898-122.242 -50.415  0.00  0.00     0.302 A 
ATOM      3  C   UNL d   1     -41.583-122.665 -50.040  0.00  0.00     0.009 A 
ATOM      4  O   UNL d   1     -43.182-122.487 -49.676  0.00  0.00    -0.273 OA
ATOM      5  C   UNL d   1     -41.870-122.908 -49.306  0.00  0.00     0.025 A 
ATOM      6  C   UNL d   1     -42.668-122.819 -49.124  0.00  0.00     0.103 A 
ATOM      7  O   UNL d   1     -43.425-121.907 -50.967  0.00  0.00    -0.259 OA
ATOM      8  C   UNL d   1     -41.355-123.238 -48.758  0.00  0.00     0.026 A 
ATOM      9  C   UNL d   1     -42.953-123.060 -48.394  0.00  0.00     0.027 A 
ATOM     10  C   UNL d   1     -41.649-123.481 -48.020  0.00  0.00     0.094 A 
ATOM     11  C   UNL d   1     -42.439-123.393 -47.840  0.00  0.00     0.026 A 
ENDROOT
BRANCH   1  12
ATOM     12  C   UNL d   1     -41.814-122.087 -51.334  0.00  0.00     0.140 A 
ATOM     13  S   UNL d   1     -41.905-122.461 -52.068  0.00  0.00    -0.026 SA
ATOM     14  C   UNL d   1     -41.519-122.001 -52.632  0.00  0.00     0.216 A 
ATOM     15  N   UNL d   1     -41.193-121.350 -52.245  0.00  0.00    -0.121 NA
ATOM     16  N   UNL d   1     -41.377-121.406 -51.446  0.00  0.00    -0.139 NA
BRANCH  14  17
ATOM     17  N   UNL d   1     -41.463-122.158 -53.442  0.00  0.00    -0.216 NA
BRANCH  17  18
ATOM     18  C   UNL d   1     -42.028-121.849 -53.958  0.00  0.00     0.126 C 
BRANCH  18  19
ATOM     19  C   UNL d   1     -41.947-121.957 -54.777  0.00  0.00     0.119 A 
ATOM     20  O   UNL d   1     -41.298-122.122 -55.259  0.00  0.00    -0.304 OA
ATOM     21  C   UNL d   1     -41.557-122.168 -56.033  0.00  0.00     0.123 A 
ATOM     22  C   UNL d   1     -42.358-122.036 -56.042  0.00  0.00     0.029 A 
ATOM     23  C   UNL d   1     -42.611-121.903 -55.261  0.00  0.00     0.028 A 
ENDBRANCH  18  19
ENDBRANCH  17  18
ENDBRANCH  14  17
ENDBRANCH   1  12
BRANCH  10  24
ATOM     24  O   UNL d   1     -41.126-123.812 -47.474  0.00  0.00    -0.328 OA
ATOM     25  C   UNL d   1     -41.136-123.575 -46.681  0.00  0.00     0.181 C 
ENDBRANCH  10  24
TORSDOF 5
ENDMDL
MODEL 2
REMARK VINA RESULT:      -4.2      1.324      5.782
REMARK  5 active torsions:
REMARK  status: ('A' for Active; 'I' for Inactive)
REMARK    1  A    between atoms: C_2  and  C_1 
REMARK    2  A    between atoms: N_13  and  C_7 
REMARK    3  A    between atoms: C_12  and  C_21 
REMARK    4  A    between atoms: C_21  and  N_13 
REMARK    5  A    between atoms: O_24  and  C_22 
ROOT
ATOM      1  C   UNL d   1     -41.827-122.655 -52.200  0.00  0.00     0.089 A 
ATOM      2  C   UNL d   1     -41.362-123.318 -52.346  0.00  0.00     0.302 A 
ATOM      3  C   UNL d   1     -42.058-122.164 -52.828  0.00  0.00     0.009 A 
ATOM      4  O   UNL d   1     -41.127-123.494 -53.122  0.00  0.00    -0.273 OA
ATOM      5  C   UNL d   1     -41.822-122.342 -53.598  0.00  0.00     0.025 A 
ATOM      6  C   UNL d   1     -41.357-123.006 -53.745  0.00  0.00     0.103 A 
ATOM      7  O   UNL d   1     -41.125-123.817 -51.723  0.00  0.00    -0.259 OA
ATOM      8  C   UNL d   1     -42.053-121.854 -54.216  0.00  0.00     0.026 A 
ATOM      9  C   UNL d   1     -41.123-123.183 -54.510  0.00  0.00     0.027 A 
ATOM     10  C   UNL d   1     -41.812-122.038 -54.990  0.00  0.00     0.094 A 
ATOM     11  C   UNL d   1     -41.353-122.695 -55.136  0.00  0.00     0.026 A 
ENDROOT
BRANCH   1  12
ATOM     12  C   UNL d   1     -42.063-122.477 -51.427  0.00  0.00     0.140 A 
ATOM     13  S   UNL d   1     -41.721-122.733 -50.716  0.00  0.00    -0.026 SA
ATOM     14  C   UNL d   1     -42.157-122.405 -50.099  0.00  0.00     0.216 A 
ATOM     15  N   UNL d   1     -42.761-121.952 -50.430  0.00  0.00    -0.121 NA
ATOM     16  N   UNL d   1     -42.700-121.999 -51.248  0.00  0.00    -0.139 NA
BRANCH  14  17
ATOM     17  N   UNL d   1     -42.020-122.508 -49.289  0.00  0.00    -0.216 NA
BRANCH  17  18
ATOM     18  C   UNL d   1     -42.576-122.907 -48.827  0.00  0.00     0.126 C 
BRANCH  18  19
ATOM     19  C   UNL d   1     -42.399-123.103 -48.040  0.00  0.00     0.119 A 
ATOM     20  O   UNL d   1     -41.873-122.788 -47.489  0.00  0.00    -0.304 OA
ATOM     21  C   UNL d   1     -41.941-123.214 -46.795  0.00  0.00     0.123 A 
ATOM     22  C   UNL d   1     -42.501-123.792 -46.905  0.00  0.00     0.029 A 
ATOM     23  C   UNL d   1     -42.793-123.731 -47.681  0.00  0.00     0.028 A 
ENDBRANCH  18  19
ENDBRANCH  17  18
ENDBRANCH  14  17
ENDBRANCH   1  12
BRANCH  10  24
ATOM     24  O   UNL d   1     -42.048-121.543 -55.607  0.00  0.00    -0.328 OA
ATOM     25  C   UNL d   1     -42.736-121.703 -56.039  0.00  0.00     0.181 C 
ENDBRANCH  10  24
TORSDOF 5
ENDMDL
