MODEL 1
REMARK VINA RESULT:      -5.9      0.000      0.000
REMARK  4 active torsions:
REMARK  status: ('A' for Active; 'I' for Inactive)
REMARK    1  A    between atoms: N_6  and  S_1 
REMARK    2  A    between atoms: C_7  and  S_1 
REMARK    3  A    between atoms: C_13  and  N_6 
REMARK    4  A    between atoms: O_18  and  C_15 
ROOT
ATOM      1  S   UNL d   1     -41.396-122.307 -52.160  0.00  0.00     0.285 S 
ATOM      2  O   UNL d   1     -41.132-121.622 -52.519  0.00  0.00    -0.198 OA
ATOM      3  O   UNL d   1     -41.304-121.954 -51.420  0.00  0.00    -0.198 OA
ENDROOT
BRANCH   1   4
ATOM      4  N   UNL d   1     -41.661-122.997 -51.794  0.00  0.00    -0.158 NA
BRANCH   4   5
ATOM      5  C   UNL d   1     -41.838-122.995 -50.982  0.00  0.00     0.095 A 
ATOM      6  C   UNL d   1     -41.348-123.397 -50.455  0.00  0.00     0.040 A 
ATOM      7  C   UNL d   1     -41.530-123.390 -49.654  0.00  0.00     0.089 A 
ATOM      8  N   UNL d   1     -41.147-123.739 -49.005  0.00  0.00    -0.238 NA
ATOM      9  C   UNL d   1     -42.187-122.992 -49.372  0.00  0.00     0.049 A 
ATOM     10  C   UNL d   1     -41.573-123.551 -48.329  0.00  0.00     0.111 A 
ATOM     11  C   UNL d   1     -41.391-123.784 -47.548  0.00  0.00     0.028 C 
ATOM     12  S   UNL d   1     -42.220-123.088 -48.554  0.00  0.00    -0.066 SA
ATOM     13  C   UNL d   1     -42.680-122.587 -49.907  0.00  0.00     0.010 A 
ATOM     14  C   UNL d   1     -42.499-122.593 -50.714  0.00  0.00     0.021 A 
ENDBRANCH   4   5
ENDBRANCH   1   4
BRANCH   1  15
ATOM     15  C   UNL d   1     -41.489-122.667 -52.896  0.00  0.00     0.107 A 
ATOM     16  C   UNL d   1     -41.947-122.307 -53.484  0.00  0.00     0.037 A 
ATOM     17  C   UNL d   1     -42.036-122.672 -54.218  0.00  0.00     0.095 A 
ATOM     18  C   UNL d   1     -41.668-123.399 -54.365  0.00  0.00     0.024 A 
ATOM     19  C   UNL d   1     -41.212-123.756 -53.778  0.00  0.00     0.003 A 
ATOM     20  C   UNL d   1     -41.123-123.390 -53.044  0.00  0.00     0.013 A 
BRANCH  17  21
ATOM     21  O   UNL d   1     -42.490-122.316 -54.804  0.00  0.00    -0.328 OA
ATOM     22  C   UNL d   1     -42.128-122.007 -55.478  0.00  0.00     0.181 C 
ENDBRANCH  17  21
ENDBRANCH   1  15
TORSDOF 4
ENDMDL
MODEL 2
REMARK VINA RESULT:      -5.6      1.273      4.549
REMARK  4 active torsions:
REMARK  status: ('A' for Active; 'I' for Inactive)
REMARK    1  A    between atoms: N_6  and  S_1 
REMARK    2  A    between atoms: C_7  and  S_1 
REMARK    3  A    between atoms: C_13  and  N_6 
REMARK    4  A    between atoms: O_18  and  C_15 
ROOT
ATOM      1  S   UNL d   1     -41.470-122.345 -51.415  0.00  0.00     0.285 S 
ATOM      2  O   UNL d   1     -41.229-121.709 -50.963  0.00  0.00    -0.198 OA
ATOM      3  O   UNL d   1     -41.279-121.930 -52.101  0.00  0.00    -0.198 OA
ENDROOT
BRANCH   1   4
ATOM      4  N   UNL d   1     -41.713-122.986 -51.874  0.00  0.00    -0.158 NA
BRANCH   4   5
ATOM      5  C   UNL d   1     -41.674-122.941 -52.703  0.00  0.00     0.095 A 
ATOM      6  C   UNL d   1     -42.146-122.398 -53.106  0.00  0.00     0.040 A 
ATOM      7  C   UNL d   1     -42.101-122.360 -53.925  0.00  0.00     0.089 A 
ATOM      8  N   UNL d   1     -42.501-121.879 -54.472  0.00  0.00    -0.238 NA
ATOM      9  C   UNL d   1     -41.598-122.850 -54.347  0.00  0.00     0.049 A 
ATOM     10  C   UNL d   1     -42.239-122.078 -55.224  0.00  0.00     0.111 A 
ATOM     11  C   UNL d   1     -42.491-121.736 -55.942  0.00  0.00     0.028 C 
ATOM     12  S   UNL d   1     -41.679-122.681 -55.148  0.00  0.00    -0.066 SA
ATOM     13  C   UNL d   1     -41.123-123.397 -53.935  0.00  0.00     0.010 A 
ATOM     14  C   UNL d   1     -41.167-123.437 -53.111  0.00  0.00     0.021 A 
ENDBRANCH   4   5
ENDBRANCH   1   4
BRANCH   1  15
ATOM     15  C   UNL d   1     -41.664-122.766 -50.732  0.00  0.00     0.107 A 
ATOM     16  C   UNL d   1     -42.389-122.641 -50.354  0.00  0.00     0.037 A 
ATOM     17  C   UNL d   1     -42.576-123.066 -49.672  0.00  0.00     0.095 A 
ATOM     18  C   UNL d   1     -42.038-123.617 -49.369  0.00  0.00     0.024 A 
ATOM     19  C   UNL d   1     -41.317-123.740 -49.748  0.00  0.00     0.003 A 
ATOM     20  C   UNL d   1     -41.130-123.315 -50.430  0.00  0.00     0.013 A 
BRANCH  17  21
ATOM     21  O   UNL d   1     -43.296-122.943 -49.293  0.00  0.00    -0.328 OA
ATOM     22  C   UNL d   1     -43.715-123.582 -48.983  0.00  0.00     0.181 C 
ENDBRANCH  17  21
ENDBRANCH   1  15
TORSDOF 4
ENDMDL
MODEL 3
REMARK VINA RESULT:      -4.6      1.430      4.643
REMARK  4 active torsions:
REMARK  status: ('A' for Active; 'I' for Inactive)
REMARK    1  A    between atoms: N_6  and  S_1 
REMARK    2  A    between atoms: C_7  and  S_1 
REMARK    3  A    between atoms: C_13  and  N_6 
REMARK    4  A    between atoms: O_18  and  C_15 
ROOT
ATOM      1  S   UNL d   1     -42.278-122.680 -50.244  0.00  0.00     0.285 S 
ATOM      2  O   UNL d   1     -42.989-122.466 -49.904  0.00  0.00    -0.198 OA
ATOM      3  O   UNL d   1     -42.540-122.394 -50.972  0.00  0.00    -0.198 OA
ENDROOT
BRANCH   1   4
ATOM      4  N   UNL d   1     -41.561-122.895 -50.591  0.00  0.00    -0.158 NA
BRANCH   4   5
ATOM      5  C   UNL d   1     -41.442-122.779 -51.405  0.00  0.00     0.095 A 
ATOM      6  C   UNL d   1     -41.519-123.414 -51.925  0.00  0.00     0.040 A 
ATOM      7  C   UNL d   1     -41.400-123.291 -52.728  0.00  0.00     0.089 A 
ATOM      8  N   UNL d   1     -41.439-123.815 -53.372  0.00  0.00    -0.238 NA
ATOM      9  C   UNL d   1     -41.207-122.551 -53.020  0.00  0.00     0.049 A 
ATOM     10  C   UNL d   1     -41.269-123.391 -54.053  0.00  0.00     0.111 A 
ATOM     11  C   UNL d   1     -41.244-123.693 -54.831  0.00  0.00     0.028 C 
ATOM     12  S   UNL d   1     -41.124-122.606 -53.838  0.00  0.00    -0.066 SA
ATOM     13  C   UNL d   1     -41.130-121.912 -52.492  0.00  0.00     0.010 A 
ATOM     14  C   UNL d   1     -41.249-122.034 -51.683  0.00  0.00     0.021 A 
ENDBRANCH   4   5
ENDBRANCH   1   4
BRANCH   1  15
ATOM     15  C   UNL d   1     -42.009-122.969 -49.520  0.00  0.00     0.107 A 
ATOM     16  C   UNL d   1     -42.346-122.704 -48.812  0.00  0.00     0.037 A 
ATOM     17  C   UNL d   1     -42.071-122.997 -48.092  0.00  0.00     0.095 A 
ATOM     18  C   UNL d   1     -41.460-123.554 -48.078  0.00  0.00     0.024 A 
ATOM     19  C   UNL d   1     -41.126-123.817 -48.784  0.00  0.00     0.003 A 
ATOM     20  C   UNL d   1     -41.401-123.524 -49.505  0.00  0.00     0.013 A 
BRANCH  17  21
ATOM     21  O   UNL d   1     -42.404-122.735 -47.386  0.00  0.00    -0.328 OA
ATOM     22  C   UNL d   1     -41.992-122.821 -46.676  0.00  0.00     0.181 C 
ENDBRANCH  17  21
ENDBRANCH   1  15
TORSDOF 4
ENDMDL
MODEL 4
REMARK VINA RESULT:      -4.5      0.922      1.164
REMARK  4 active torsions:
REMARK  status: ('A' for Active; 'I' for Inactive)
REMARK    1  A    between atoms: N_6  and  S_1 
REMARK    2  A    between atoms: C_7  and  S_1 
REMARK    3  A    between atoms: C_13  and  N_6 
REMARK    4  A    between atoms: O_18  and  C_15 
ROOT
ATOM      1  S   UNL d   1     -41.443-122.051 -52.663  0.00  0.00     0.285 S 
ATOM      2  O   UNL d   1     -41.407-121.267 -52.892  0.00  0.00    -0.198 OA
ATOM      3  O   UNL d   1     -41.364-121.823 -51.874  0.00  0.00    -0.198 OA
ENDROOT
BRANCH   1   4
ATOM      4  N   UNL d   1     -41.478-122.840 -52.427  0.00  0.00    -0.158 NA
BRANCH   4   5
ATOM      5  C   UNL d   1     -41.581-123.031 -51.626  0.00  0.00     0.095 A 
ATOM      6  C   UNL d   1     -42.144-122.627 -51.179  0.00  0.00     0.040 A 
ATOM      7  C   UNL d   1     -42.241-122.821 -50.387  0.00  0.00     0.089 A 
ATOM      8  N   UNL d   1     -42.754-122.516 -49.809  0.00  0.00    -0.238 NA
ATOM      9  C   UNL d   1     -41.789-123.406 -50.035  0.00  0.00     0.049 A 
ATOM     10  C   UNL d   1     -42.612-122.917 -49.107  0.00  0.00     0.111 A 
ATOM     11  C   UNL d   1     -43.000-122.793 -48.378  0.00  0.00     0.028 C 
ATOM     12  S   UNL d   1     -42.013-123.470 -49.245  0.00  0.00    -0.066 SA
ATOM     13  C   UNL d   1     -41.221-123.812 -50.489  0.00  0.00     0.010 A 
ATOM     14  C   UNL d   1     -41.123-123.618 -51.287  0.00  0.00     0.021 A 
ENDBRANCH   4   5
ENDBRANCH   1   4
BRANCH   1  15
ATOM     15  C   UNL d   1     -41.522-122.286 -53.450  0.00  0.00     0.107 A 
ATOM     16  C   UNL d   1     -41.976-121.839 -53.977  0.00  0.00     0.037 A 
ATOM     17  C   UNL d   1     -42.051-122.081 -54.762  0.00  0.00     0.095 A 
ATOM     18  C   UNL d   1     -41.671-122.769 -55.020  0.00  0.00     0.024 A 
ATOM     19  C   UNL d   1     -41.219-123.212 -54.493  0.00  0.00     0.003 A 
ATOM     20  C   UNL d   1     -41.144-122.971 -53.708  0.00  0.00     0.013 A 
BRANCH  17  21
ATOM     21  O   UNL d   1     -42.502-121.638 -55.289  0.00  0.00    -0.328 OA
ATOM     22  C   UNL d   1     -42.663-121.931 -56.044  0.00  0.00     0.181 C 
ENDBRANCH  17  21
ENDBRANCH   1  15
TORSDOF 4
ENDMDL
