MODEL 1
REMARK VINA RESULT:      15.3      0.000      0.000
REMARK  2 active torsions:
REMARK  status: ('A' for Active; 'I' for Inactive)
REMARK    1  A    between atoms: C_2  and  N_1 
REMARK    2  A    between atoms: C_5  and  C_7 
ROOT
ATOM      1  C   UNL d   1      13.712  12.393  -2.594  0.00  0.00     0.070 A 
ATOM      2  C   UNL d   1      13.642  13.181  -2.838  0.00  0.00     0.024 A 
ATOM      3  C   UNL d   1      13.336  13.356  -3.576  0.00  0.00     0.066 A 
ATOM      4  C   UNL d   1      13.477  11.779  -3.088  0.00  0.00     0.018 A 
ATOM      5  C   UNL d   1      13.098  12.739  -4.078  0.00  0.00     0.006 A 
ATOM      6  C   UNL d   1      13.168  11.950  -3.833  0.00  0.00     0.002 A 
ENDROOT
BRANCH   1   7
ATOM      7  N   UNL d   1      14.020  12.213  -1.851  0.00  0.00    -0.242 N 
ATOM      8  C   UNL d   1      14.809  12.271  -1.604  0.00  0.00     0.267 A 
ATOM      9  C   UNL d   1      14.858  12.034  -0.821  0.00  0.00     0.066 A 
ATOM     10  O   UNL d   1      15.475  12.522  -2.042  0.00  0.00    -0.267 OA
ATOM     11  C   UNL d   1      14.098  11.824  -0.565  0.00  0.00     0.066 A 
ATOM     12  C   UNL d   1      13.584  11.935  -1.201  0.00  0.00     0.267 A 
ATOM     13  O   UNL d   1      12.770  11.780  -1.152  0.00  0.00    -0.267 OA
ENDBRANCH   1   7
BRANCH   3  14
ATOM     14  C   UNL d   1      13.261  14.133  -3.830  0.00  0.00     0.211 C 
ATOM     15  O   UNL d   1      13.599  14.747  -3.407  0.00  0.00    -0.644 OA
ATOM     16  O   UNL d   1      12.836  14.290  -4.525  0.00  0.00    -0.644 OA
ENDBRANCH   3  14
TORSDOF 2
ENDMDL
MODEL 2
REMARK VINA RESULT:      17.5      1.069      3.143
REMARK  2 active torsions:
REMARK  status: ('A' for Active; 'I' for Inactive)
REMARK    1  A    between atoms: C_2  and  N_1 
REMARK    2  A    between atoms: C_5  and  C_7 
ROOT
ATOM      1  C   UNL d   1      13.497  12.573  -2.837  0.00  0.00     0.070 A 
ATOM      2  C   UNL d   1      14.222  12.633  -2.442  0.00  0.00     0.024 A 
ATOM      3  C   UNL d   1      14.326  12.268  -1.717  0.00  0.00     0.066 A 
ATOM      4  C   UNL d   1      12.874  12.148  -2.508  0.00  0.00     0.018 A 
ATOM      5  C   UNL d   1      13.699  11.839  -1.381  0.00  0.00     0.006 A 
ATOM      6  C   UNL d   1      12.974  11.779  -1.777  0.00  0.00     0.002 A 
ENDROOT
BRANCH   1   7
ATOM      7  N   UNL d   1      13.389  12.939  -3.568  0.00  0.00    -0.242 N 
ATOM      8  C   UNL d   1      13.158  12.584  -4.280  0.00  0.00     0.267 A 
ATOM      9  C   UNL d   1      13.122  13.160  -4.862  0.00  0.00     0.066 A 
ATOM     10  O   UNL d   1      12.980  11.780  -4.429  0.00  0.00    -0.267 OA
ATOM     11  C   UNL d   1      13.331  13.886  -4.521  0.00  0.00     0.066 A 
ATOM     12  C   UNL d   1      13.495  13.747  -3.725  0.00  0.00     0.267 A 
ATOM     13  O   UNL d   1      13.725  14.350  -3.202  0.00  0.00    -0.267 OA
ENDBRANCH   1   7
BRANCH   3  14
ATOM     14  C   UNL d   1      15.039  12.320  -1.315  0.00  0.00     0.211 C 
ATOM     15  O   UNL d   1      15.156  12.892  -0.740  0.00  0.00    -0.644 OA
ATOM     16  O   UNL d   1      15.646  11.784  -1.499  0.00  0.00    -0.644 OA
ENDBRANCH   3  14
TORSDOF 2
ENDMDL
