MODEL 1
REMARK VINA RESULT:      77.8      0.000      0.000
REMARK  5 active torsions:
REMARK  status: ('A' for Active; 'I' for Inactive)
REMARK    1  A    between atoms: C_5  and  N_1 
REMARK    2  A    between atoms: C_7  and  C_3 
REMARK    3  A    between atoms: C_8  and  C_4 
REMARK    4  A    between atoms: N_10  and  C_5 
REMARK    5  A    between atoms: O_21  and  C_15 
ROOT
ATOM      1  N   UNL d   1      60.401  48.575  51.002  0.00  0.00    -0.203 N 
ATOM      2  N   UNL d   1      61.020  48.046  50.851  0.00  0.00    -0.163 NA
ATOM      3  C   UNL d   1      60.768  47.462  50.355  0.00  0.00     0.103 A 
ATOM      4  C   UNL d   1      59.728  48.315  50.583  0.00  0.00     0.087 A 
ATOM      5  C   UNL d   1      59.948  47.626  50.180  0.00  0.00     0.040 A 
ENDROOT
BRANCH   4   6
ATOM      6  C   UNL d   1      58.974  48.653  50.552  0.00  0.00     0.018 A 
ATOM      7  C   UNL d   1      58.849  49.372  50.178  0.00  0.00     0.004 A 
ATOM      8  C   UNL d   1      58.098  49.708  50.148  0.00  0.00     0.024 A 
ATOM      9  C   UNL d   1      57.465  49.317  50.499  0.00  0.00     0.094 A 
ATOM     10  C   UNL d   1      57.574  48.612  50.868  0.00  0.00     0.024 A 
ATOM     11  C   UNL d   1      58.328  48.274  50.898  0.00  0.00     0.004 A 
BRANCH   9  12
ATOM     12  O   UNL d   1      56.708  49.676  50.457  0.00  0.00    -0.328 OA
ATOM     13  C   UNL d   1      56.261  49.659  49.741  0.00  0.00     0.181 C 
ENDBRANCH   9  12
ENDBRANCH   4   6
BRANCH   1  14
ATOM     14  C   UNL d   1      60.436  49.260  51.492  0.00  0.00     0.222 C 
ATOM     15  S   UNL d   1      59.736  49.510  51.899  0.00  0.00    -0.037 SA
BRANCH  14  16
ATOM     16  N   UNL d   1      61.152  49.701  51.586  0.00  0.00    -0.214 NA
ATOM     17  C   UNL d   1      61.546  49.703  52.319  0.00  0.00     0.122 C 
ENDBRANCH  14  16
ENDBRANCH   1  14
BRANCH   3  18
ATOM     18  C   UNL d   1      61.238  46.831  50.080  0.00  0.00     0.019 A 
ATOM     19  C   UNL d   1      61.921  46.973  49.643  0.00  0.00     0.002 A 
ATOM     20  C   UNL d   1      62.379  46.326  49.376  0.00  0.00     0.000 A 
ATOM     21  C   UNL d   1      62.149  45.562  49.549  0.00  0.00     0.000 A 
ATOM     22  C   UNL d   1      61.462  45.439  49.989  0.00  0.00     0.000 A 
ATOM     23  C   UNL d   1      62.825  44.860  49.147  0.00  0.00     0.000 C 
ATOM     24  C   UNL d   1      61.013  46.060  50.251  0.00  0.00     0.002 A 
ENDBRANCH   3  18
TORSDOF 5
ENDMDL
