MODEL 1
REMARK VINA RESULT:      31.4      0.000      0.000
REMARK  1 active torsions:
REMARK  status: ('A' for Active; 'I' for Inactive)
REMARK    1  A    between atoms: C_14  and  C_7 
ROOT
ATOM      1  C   UNL d   1      45.774 -16.983  43.097  0.00  0.00     0.121 A 
ATOM      2  C   UNL d   1      45.785 -17.616  43.626  0.00  0.00     0.058 A 
ATOM      3  N   UNL d   1      45.550 -16.309  43.519  0.00  0.00    -0.195 NA
ATOM      4  S   UNL d   1      45.967 -17.103  42.307  0.00  0.00    -0.068 SA
ATOM      5  C   UNL d   1      46.169 -17.851  42.051  0.00  0.00     0.027 A 
ATOM      6  C   UNL d   1      46.181 -18.484  42.580  0.00  0.00     0.003 A 
ATOM      7  C   UNL d   1      45.990 -18.369  43.364  0.00  0.00     0.010 A 
ATOM      8  C   UNL d   1      45.425 -16.521  44.301  0.00  0.00     0.311 A 
ATOM      9  S   UNL d   1      45.569 -17.332  44.374  0.00  0.00    -0.024 SA
ATOM     10  C   UNL d   1      46.455 -19.066  41.838  0.00  0.00    -0.017 A 
ATOM     11  C   UNL d   1      46.474 -18.451  41.182  0.00  0.00    -0.012 A 
ATOM     12  C   UNL d   1      46.627 -18.201  40.239  0.00  0.00     0.053 A 
ATOM     13  O   UNL d   1      45.194 -16.016  44.910  0.00  0.00    -0.258 OA
ATOM     14  C   UNL d   1      46.645 -20.086  41.892  0.00  0.00    -0.004 A 
ATOM     15  C   UNL d   1      46.615 -19.358  41.362  0.00  0.00    -0.004 A 
ENDROOT
BRANCH   7  16
ATOM     16  C   UNL d   1      46.002 -19.002  43.893  0.00  0.00     0.020 A 
ATOM     17  C   UNL d   1      45.372 -19.544  43.901  0.00  0.00     0.099 A 
ATOM     18  N   UNL d   1      45.392 -20.174  44.433  0.00  0.00    -0.242 NA
ATOM     19  C   UNL d   1      46.025 -20.267  44.951  0.00  0.00     0.099 A 
ATOM     20  C   UNL d   1      46.646 -19.724  44.936  0.00  0.00     0.021 A 
ATOM     21  C   UNL d   1      46.634 -19.095  44.411  0.00  0.00     0.003 A 
ENDBRANCH   7  16
TORSDOF 1
ENDMDL
