MODEL 1
REMARK VINA RESULT:      64.0      0.000      0.000
REMARK  4 active torsions:
REMARK  status: ('A' for Active; 'I' for Inactive)
REMARK    1  A    between atoms: C_4  and  C_1 
REMARK       I    between atoms: N_6  and  C_4 
REMARK    2  A    between atoms: C_9  and  N_6 
REMARK    3  A    between atoms: C_12  and  N_6 
REMARK    4  A    between atoms: C_17  and  C_12 
ROOT
ATOM      1  C   UNL d   1      58.759  49.670  51.589  0.00  0.00     0.272 C 
ATOM      2  N   UNL d   1      59.580  49.680  51.519  0.00  0.00    -0.258 N 
ATOM      3  O   UNL d   1      58.408  49.688  52.327  0.00  0.00    -0.266 OA
ENDROOT
BRANCH   2   4
ATOM      4  C   UNL d   1      59.947  49.662  50.766  0.00  0.00     0.150 A 
ATOM      5  N   UNL d   1      60.779  49.701  50.724  0.00  0.00    -0.227 NA
ATOM      6  C   UNL d   1      61.143  49.684  49.974  0.00  0.00     0.101 A 
ATOM      7  C   UNL d   1      60.684  49.629  49.290  0.00  0.00     0.021 A 
ATOM      8  C   UNL d   1      59.857  49.590  49.341  0.00  0.00     0.005 A 
ATOM      9  C   UNL d   1      59.488  49.607  50.079  0.00  0.00     0.037 A 
ENDBRANCH   2   4
BRANCH   2  10
ATOM     10  C   UNL d   1      60.061  49.707  52.200  0.00  0.00     0.084 C 
BRANCH  10  11
ATOM     11  C   UNL d   1      60.709  49.206  52.271  0.00  0.00     0.018 A 
ATOM     12  C   UNL d   1      60.896  48.872  53.002  0.00  0.00     0.002 A 
ATOM     13  C   UNL d   1      61.545  48.372  53.069  0.00  0.00     0.000 A 
ATOM     14  C   UNL d   1      62.008  48.203  52.412  0.00  0.00     0.000 A 
ATOM     15  C   UNL d   1      61.818  48.542  51.670  0.00  0.00     0.000 A 
ATOM     16  C   UNL d   1      61.169  49.040  51.612  0.00  0.00     0.002 A 
ENDBRANCH  10  11
ENDBRANCH   2  10
BRANCH   1  17
ATOM     17  C   UNL d   1      58.296  49.644  50.902  0.00  0.00     0.132 A 
ATOM     18  C   UNL d   1      57.476  49.553  50.971  0.00  0.00     0.272 A 
ATOM     19  N   UNL d   1      56.999  49.524  50.292  0.00  0.00    -0.265 N 
ATOM     20  O   UNL d   1      57.123  49.490  51.714  0.00  0.00    -0.266 OA
ATOM     21  C   UNL d   1      56.192  49.441  50.187  0.00  0.00     0.123 A 
ATOM     22  C   UNL d   1      57.353  49.587  49.549  0.00  0.00     0.181 A 
ATOM     23  C   UNL d   1      56.035  49.451  49.383  0.00  0.00     0.043 A 
ATOM     24  S   UNL d   1      56.757  49.542  48.979  0.00  0.00    -0.049 SA
ATOM     25  N   UNL d   1      58.168  49.678  49.479  0.00  0.00    -0.220 NA
ATOM     26  C   UNL d   1      58.642  49.706  50.156  0.00  0.00     0.111 A 
ENDBRANCH   1  17
TORSDOF 4
ENDMDL
MODEL 2
REMARK VINA RESULT:      64.8      2.236      3.485
REMARK  4 active torsions:
REMARK  status: ('A' for Active; 'I' for Inactive)
REMARK    1  A    between atoms: C_4  and  C_1 
REMARK       I    between atoms: N_6  and  C_4 
REMARK    2  A    between atoms: C_9  and  N_6 
REMARK    3  A    between atoms: C_12  and  N_6 
REMARK    4  A    between atoms: C_17  and  C_12 
ROOT
ATOM      1  C   UNL d   1      61.206  48.374  51.428  0.00  0.00     0.272 C 
ATOM      2  N   UNL d   1      60.917  49.112  51.206  0.00  0.00    -0.258 N 
ATOM      3  O   UNL d   1      61.379  48.217  52.211  0.00  0.00    -0.266 OA
ENDROOT
BRANCH   2   4
ATOM      4  C   UNL d   1      60.737  49.280  50.405  0.00  0.00     0.150 A 
ATOM      5  N   UNL d   1      59.953  49.178  50.140  0.00  0.00    -0.227 NA
ATOM      6  C   UNL d   1      59.774  49.346  49.342  0.00  0.00     0.101 A 
ATOM      7  C   UNL d   1      60.367  49.607  48.831  0.00  0.00     0.021 A 
ATOM      8  C   UNL d   1      61.145  49.706  49.102  0.00  0.00     0.005 A 
ATOM      9  C   UNL d   1      61.329  49.543  49.889  0.00  0.00     0.037 A 
ENDBRANCH   2   4
BRANCH   2  10
ATOM     10  C   UNL d   1      60.798  49.708  51.778  0.00  0.00     0.084 C 
BRANCH  10  11
ATOM     11  C   UNL d   1      60.121  49.707  52.245  0.00  0.00     0.018 A 
ATOM     12  C   UNL d   1      60.186  49.706  53.067  0.00  0.00     0.002 A 
ATOM     13  C   UNL d   1      59.508  49.705  53.531  0.00  0.00     0.000 A 
ATOM     14  C   UNL d   1      58.766  49.704  53.180  0.00  0.00     0.000 A 
ATOM     15  C   UNL d   1      58.700  49.704  52.345  0.00  0.00     0.000 A 
ATOM     16  C   UNL d   1      59.382  49.705  51.890  0.00  0.00     0.002 A 
ENDBRANCH  10  11
ENDBRANCH   2  10
BRANCH   1  17
ATOM     17  C   UNL d   1      61.317  47.793  50.847  0.00  0.00     0.132 A 
ATOM     18  C   UNL d   1      60.976  47.046  50.951  0.00  0.00     0.272 A 
ATOM     19  N   UNL d   1      61.080  46.454  50.377  0.00  0.00    -0.265 N 
ATOM     20  O   UNL d   1      60.529  46.880  51.625  0.00  0.00    -0.266 OA
ATOM     21  C   UNL d   1      60.817  45.682  50.327  0.00  0.00     0.123 A 
ATOM     22  C   UNL d   1      61.527  46.621  49.704  0.00  0.00     0.181 A 
ATOM     23  C   UNL d   1      61.094  45.359  49.627  0.00  0.00     0.043 A 
ATOM     24  S   UNL d   1      61.539  45.942  49.233  0.00  0.00    -0.049 SA
ATOM     25  N   UNL d   1      61.867  47.363  49.599  0.00  0.00    -0.220 NA
ATOM     26  C   UNL d   1      61.763  47.951  50.171  0.00  0.00     0.111 A 
ENDBRANCH   1  17
TORSDOF 4
ENDMDL
