MODEL 1
REMARK VINA RESULT:      -7.1      0.000      0.000
REMARK  1 active torsions:
REMARK  status: ('A' for Active; 'I' for Inactive)
REMARK    1  A    between atoms: C_4  and  N_1 
ROOT
ATOM      1  N   UNL d   1     -48.644  12.870  22.402  0.00  0.00    -0.240 N 
ATOM      2  C   UNL d   1     -49.310  12.746  22.880  0.00  0.00     0.267 A 
ATOM      3  C   UNL d   1     -48.854  12.664  21.626  0.00  0.00     0.267 A 
ATOM      4  C   UNL d   1     -49.638  12.416  21.631  0.00  0.00     0.066 A 
ATOM      5  C   UNL d   1     -49.924  12.465  22.403  0.00  0.00     0.066 A 
ATOM      6  O   UNL d   1     -49.350  12.881  23.698  0.00  0.00    -0.267 OA
ATOM      7  O   UNL d   1     -48.353  12.704  20.972  0.00  0.00    -0.267 OA
ENDROOT
BRANCH   1   8
ATOM      8  C   UNL d   1     -47.909  13.148  22.652  0.00  0.00     0.097 A 
ATOM      9  C   UNL d   1     -47.340  12.616  22.920  0.00  0.00     0.156 A 
ATOM     10  F   UNL d   1     -47.508  11.806  22.939  0.00  0.00    -0.203 F 
ATOM     11  C   UNL d   1     -46.603  12.889  23.171  0.00  0.00     0.031 A 
ATOM     12  C   UNL d   1     -46.444  13.700  23.148  0.00  0.00     0.002 A 
ATOM     13  C   UNL d   1     -47.016  14.231  22.879  0.00  0.00     0.002 A 
ATOM     14  C   UNL d   1     -47.751  13.949  22.630  0.00  0.00     0.020 A 
ENDBRANCH   1   8
TORSDOF 1
ENDMDL
MODEL 2
REMARK VINA RESULT:      -7.1      1.239      2.622
REMARK  1 active torsions:
REMARK  status: ('A' for Active; 'I' for Inactive)
REMARK    1  A    between atoms: C_4  and  N_1 
ROOT
ATOM      1  N   UNL d   1     -47.576  13.309  22.823  0.00  0.00    -0.240 N 
ATOM      2  C   UNL d   1     -47.533  14.134  22.767  0.00  0.00     0.267 A 
ATOM      3  C   UNL d   1     -46.811  13.030  22.985  0.00  0.00     0.267 A 
ATOM      4  C   UNL d   1     -46.307  13.680  23.027  0.00  0.00     0.066 A 
ATOM      5  C   UNL d   1     -46.749  14.364  22.893  0.00  0.00     0.066 A 
ATOM      6  O   UNL d   1     -48.171  14.643  22.611  0.00  0.00    -0.267 OA
ATOM      7  O   UNL d   1     -46.605  12.238  23.084  0.00  0.00    -0.267 OA
ENDROOT
BRANCH   1   8
ATOM      8  C   UNL d   1     -48.255  12.848  22.734  0.00  0.00     0.097 A 
ATOM      9  C   UNL d   1     -48.476  12.587  21.985  0.00  0.00     0.156 A 
ATOM     10  F   UNL d   1     -48.019  12.788  21.325  0.00  0.00    -0.203 F 
ATOM     11  C   UNL d   1     -49.154  12.126  21.891  0.00  0.00     0.031 A 
ATOM     12  C   UNL d   1     -49.605  11.930  22.555  0.00  0.00     0.002 A 
ATOM     13  C   UNL d   1     -49.380  12.194  23.305  0.00  0.00     0.002 A 
ATOM     14  C   UNL d   1     -48.701  12.655  23.390  0.00  0.00     0.020 A 
ENDBRANCH   1   8
TORSDOF 1
ENDMDL
