MODEL 1
REMARK VINA RESULT:      85.2      0.000      0.000
REMARK  5 active torsions:
REMARK  status: ('A' for Active; 'I' for Inactive)
REMARK    1  A    between atoms: C_12  and  N_1 
REMARK    2  A    between atoms: S_9  and  C_2 
REMARK       I    between atoms: N_7  and  C_10 
REMARK    3  A    between atoms: C_19  and  N_8 
REMARK    4  A    between atoms: C_14  and  S_9 
REMARK    5  A    between atoms: C_10  and  C_14 
ROOT
ATOM      1  N   UNL d   1      14.558  14.002  -1.855  0.00  0.00    -0.254 N 
ATOM      2  C   UNL d   1      14.503  14.678  -2.324  0.00  0.00     0.182 A 
ATOM      3  C   UNL d   1      14.838  14.059  -1.081  0.00  0.00     0.274 A 
ATOM      4  C   UNL d   1      15.062  14.789  -0.779  0.00  0.00     0.104 A 
ATOM      5  N   UNL d   1      14.729  15.411  -2.020  0.00  0.00    -0.222 NA
ATOM      6  C   UNL d   1      15.007  15.465  -1.249  0.00  0.00     0.095 A 
ATOM      7  S   UNL d   1      15.356  15.016  -0.044  0.00  0.00    -0.080 SA
ATOM      8  O   UNL d   1      14.892  13.383  -0.611  0.00  0.00    -0.266 OA
ATOM      9  C   UNL d   1      15.267  16.109  -0.804  0.00  0.00     0.027 A 
ATOM     10  C   UNL d   1      15.481  15.834  -0.065  0.00  0.00     0.037 A 
ENDROOT
BRANCH   2  11
ATOM     11  S   UNL d   1      14.220  14.626  -3.108  0.00  0.00    -0.044 SA
BRANCH  11  12
ATOM     12  C   UNL d   1      14.562  15.094  -3.697  0.00  0.00     0.099 C 
BRANCH  12  13
ATOM     13  C   UNL d   1      14.143  15.256  -4.389  0.00  0.00     0.272 C 
ATOM     14  N   UNL d   1      14.172  16.010  -4.723  0.00  0.00    -0.269 N 
ATOM     15  C   UNL d   1      14.620  16.602  -4.363  0.00  0.00     0.102 A 
ATOM     16  C   UNL d   1      13.753  16.171  -5.415  0.00  0.00     0.102 A 
ATOM     17  C   UNL d   1      14.643  17.350  -4.701  0.00  0.00     0.100 A 
ATOM     18  N   UNL d   1      14.230  17.514  -5.387  0.00  0.00    -0.301 N 
ATOM     19  C   UNL d   1      13.781  16.921  -5.747  0.00  0.00     0.100 A 
ATOM     20  O   UNL d   1      13.694  14.662  -4.749  0.00  0.00    -0.266 OA
BRANCH  18  21
ATOM     21  C   UNL d   1      14.259  18.268  -5.720  0.00  0.00     0.064 A 
ATOM     22  C   UNL d   1      14.975  18.678  -5.752  0.00  0.00     0.018 A 
ATOM     23  C   UNL d   1      15.004  19.432  -6.085  0.00  0.00     0.002 A 
ATOM     24  C   UNL d   1      14.317  19.776  -6.386  0.00  0.00     0.000 A 
ATOM     25  C   UNL d   1      13.601  19.367  -6.354  0.00  0.00     0.002 A 
ATOM     26  C   UNL d   1      13.572  18.613  -6.021  0.00  0.00     0.018 A 
ENDBRANCH  18  21
ENDBRANCH  12  13
ENDBRANCH  11  12
ENDBRANCH   2  11
BRANCH   1  27
ATOM     27  C   UNL d   1      14.335  13.274  -2.153  0.00  0.00     0.069 A 
ATOM     28  C   UNL d   1      14.816  12.613  -2.040  0.00  0.00     0.018 A 
ATOM     29  C   UNL d   1      14.589  11.880  -2.343  0.00  0.00     0.002 A 
ATOM     30  C   UNL d   1      13.879  11.807  -2.759  0.00  0.00     0.000 A 
ATOM     31  C   UNL d   1      13.398  12.468  -2.872  0.00  0.00     0.002 A 
ATOM     32  C   UNL d   1      13.626  13.201  -2.569  0.00  0.00     0.018 A 
ENDBRANCH   1  27
TORSDOF 5
ENDMDL
MODEL 2
REMARK VINA RESULT:      85.8      1.362      2.757
REMARK  5 active torsions:
REMARK  status: ('A' for Active; 'I' for Inactive)
REMARK    1  A    between atoms: C_12  and  N_1 
REMARK    2  A    between atoms: S_9  and  C_2 
REMARK       I    between atoms: N_7  and  C_10 
REMARK    3  A    between atoms: C_19  and  N_8 
REMARK    4  A    between atoms: C_14  and  S_9 
REMARK    5  A    between atoms: C_10  and  C_14 
ROOT
ATOM      1  N   UNL d   1      13.840  14.099  -3.303  0.00  0.00    -0.254 N 
ATOM      2  C   UNL d   1      13.554  14.394  -4.019  0.00  0.00     0.182 A 
ATOM      3  C   UNL d   1      13.757  13.298  -3.125  0.00  0.00     0.274 A 
ATOM      4  C   UNL d   1      13.391  12.795  -3.661  0.00  0.00     0.104 A 
ATOM      5  N   UNL d   1      13.186  13.887  -4.557  0.00  0.00    -0.222 NA
ATOM      6  C   UNL d   1      13.106  13.090  -4.377  0.00  0.00     0.095 A 
ATOM      7  S   UNL d   1      13.232  11.987  -3.639  0.00  0.00    -0.080 SA
ATOM      8  O   UNL d   1      14.043  13.003  -2.409  0.00  0.00    -0.266 OA
ATOM      9  C   UNL d   1      12.770  12.464  -4.797  0.00  0.00     0.027 A 
ATOM     10  C   UNL d   1      12.847  11.788  -4.345  0.00  0.00     0.037 A 
ENDROOT
BRANCH   2  11
ATOM     11  S   UNL d   1      13.635  15.204  -4.204  0.00  0.00    -0.044 SA
BRANCH  11  12
ATOM     12  C   UNL d   1      14.001  15.426  -4.909  0.00  0.00     0.099 C 
BRANCH  12  13
ATOM     13  C   UNL d   1      13.565  15.804  -5.500  0.00  0.00     0.272 C 
ATOM     14  N   UNL d   1      13.664  16.612  -5.634  0.00  0.00    -0.269 N 
ATOM     15  C   UNL d   1      14.199  17.043  -5.177  0.00  0.00     0.102 A 
ATOM     16  C   UNL d   1      13.227  16.988  -6.224  0.00  0.00     0.102 A 
ATOM     17  C   UNL d   1      14.292  17.846  -5.316  0.00  0.00     0.100 A 
ATOM     18  N   UNL d   1      13.861  18.223  -5.900  0.00  0.00    -0.301 N 
ATOM     19  C   UNL d   1      13.326  17.793  -6.357  0.00  0.00     0.100 A 
ATOM     20  O   UNL d   1      13.030  15.372  -5.957  0.00  0.00    -0.266 OA
BRANCH  18  21
ATOM     21  C   UNL d   1      13.960  19.031  -6.033  0.00  0.00     0.064 A 
ATOM     22  C   UNL d   1      13.314  19.496  -6.253  0.00  0.00     0.018 A 
ATOM     23  C   UNL d   1      13.413  20.304  -6.386  0.00  0.00     0.002 A 
ATOM     24  C   UNL d   1      14.158  20.647  -6.301  0.00  0.00     0.000 A 
ATOM     25  C   UNL d   1      14.805  20.184  -6.081  0.00  0.00     0.002 A 
ATOM     26  C   UNL d   1      14.706  19.376  -5.948  0.00  0.00     0.018 A 
ENDBRANCH  18  21
ENDBRANCH  12  13
ENDBRANCH  11  12
ENDBRANCH   2  11
BRANCH   1  27
ATOM     27  C   UNL d   1      14.204  14.598  -2.768  0.00  0.00     0.069 A 
ATOM     28  C   UNL d   1      14.547  14.294  -2.082  0.00  0.00     0.018 A 
ATOM     29  C   UNL d   1      14.914  14.801  -1.544  0.00  0.00     0.002 A 
ATOM     30  C   UNL d   1      14.939  15.613  -1.693  0.00  0.00     0.000 A 
ATOM     31  C   UNL d   1      14.597  15.917  -2.379  0.00  0.00     0.002 A 
ATOM     32  C   UNL d   1      14.229  15.410  -2.916  0.00  0.00     0.018 A 
ENDBRANCH   1  27
TORSDOF 5
ENDMDL
MODEL 3
REMARK VINA RESULT:      87.6      0.786      2.353
REMARK  5 active torsions:
REMARK  status: ('A' for Active; 'I' for Inactive)
REMARK    1  A    between atoms: C_12  and  N_1 
REMARK    2  A    between atoms: S_9  and  C_2 
REMARK       I    between atoms: N_7  and  C_10 
REMARK    3  A    between atoms: C_19  and  N_8 
REMARK    4  A    between atoms: C_14  and  S_9 
REMARK    5  A    between atoms: C_10  and  C_14 
ROOT
ATOM      1  N   UNL d   1      14.862  14.477  -1.253  0.00  0.00    -0.254 N 
ATOM      2  C   UNL d   1      14.559  14.400  -2.016  0.00  0.00     0.182 A 
ATOM      3  C   UNL d   1      14.956  13.809  -0.778  0.00  0.00     0.274 A 
ATOM      4  C   UNL d   1      14.747  13.069  -1.066  0.00  0.00     0.104 A 
ATOM      5  N   UNL d   1      14.350  13.655  -2.305  0.00  0.00    -0.222 NA
ATOM      6  C   UNL d   1      14.444  12.992  -1.829  0.00  0.00     0.095 A 
ATOM      7  S   UNL d   1      14.776  12.318  -0.729  0.00  0.00    -0.080 SA
ATOM      8  O   UNL d   1      15.259  13.885  -0.014  0.00  0.00    -0.266 OA
ATOM      9  C   UNL d   1      14.286  12.193  -1.964  0.00  0.00     0.027 A 
ATOM     10  C   UNL d   1      14.490  11.780  -1.290  0.00  0.00     0.037 A 
ENDROOT
BRANCH   2  11
ATOM     11  S   UNL d   1      14.462  15.072  -2.502  0.00  0.00    -0.044 SA
BRANCH  11  12
ATOM     12  C   UNL d   1      14.782  15.075  -3.263  0.00  0.00     0.099 C 
BRANCH  12  13
ATOM     13  C   UNL d   1      14.303  15.251  -3.911  0.00  0.00     0.272 C 
ATOM     14  N   UNL d   1      14.345  15.995  -4.266  0.00  0.00    -0.269 N 
ATOM     15  C   UNL d   1      14.866  16.563  -3.972  0.00  0.00     0.102 A 
ATOM     16  C   UNL d   1      13.865  16.169  -4.915  0.00  0.00     0.102 A 
ATOM     17  C   UNL d   1      14.902  17.300  -4.332  0.00  0.00     0.100 A 
ATOM     18  N   UNL d   1      14.429  17.477  -4.974  0.00  0.00    -0.301 N 
ATOM     19  C   UNL d   1      13.907  16.909  -5.268  0.00  0.00     0.100 A 
ATOM     20  O   UNL d   1      13.781  14.682  -4.205  0.00  0.00    -0.266 OA
BRANCH  18  21
ATOM     21  C   UNL d   1      14.471  18.221  -5.329  0.00  0.00     0.064 A 
ATOM     22  C   UNL d   1      15.195  18.614  -5.380  0.00  0.00     0.018 A 
ATOM     23  C   UNL d   1      15.237  19.357  -5.735  0.00  0.00     0.002 A 
ATOM     24  C   UNL d   1      14.555  19.708  -6.039  0.00  0.00     0.000 A 
ATOM     25  C   UNL d   1      13.830  19.316  -5.988  0.00  0.00     0.002 A 
ATOM     26  C   UNL d   1      13.788  18.573  -5.633  0.00  0.00     0.018 A 
ENDBRANCH  18  21
ENDBRANCH  12  13
ENDBRANCH  11  12
ENDBRANCH   2  11
BRANCH   1  27
ATOM     27  C   UNL d   1      15.070  15.213  -0.964  0.00  0.00     0.069 A 
ATOM     28  C   UNL d   1      14.514  15.821  -0.938  0.00  0.00     0.018 A 
ATOM     29  C   UNL d   1      14.728  16.564  -0.646  0.00  0.00     0.002 A 
ATOM     30  C   UNL d   1      15.498  16.696  -0.380  0.00  0.00     0.000 A 
ATOM     31  C   UNL d   1      16.054  16.087  -0.407  0.00  0.00     0.002 A 
ATOM     32  C   UNL d   1      15.840  15.346  -0.699  0.00  0.00     0.018 A 
ENDBRANCH   1  27
TORSDOF 5
ENDMDL
