MODEL 1
REMARK VINA RESULT:      17.6      0.000      0.000
REMARK  2 active torsions:
REMARK  status: ('A' for Active; 'I' for Inactive)
REMARK    1  A    between atoms: C_9  and  C_1 
REMARK    2  A    between atoms: C_18  and  N_6 
ROOT
ATOM      1  C   UNL d   1      46.453 -19.097  42.253  0.00  0.00     0.121 A 
ATOM      2  C   UNL d   1      46.145 -17.879  42.944  0.00  0.00     0.057 A 
ATOM      3  C   UNL d   1      46.250 -18.288  42.228  0.00  0.00     0.204 A 
ATOM      4  C   UNL d   1      46.237 -18.260  43.677  0.00  0.00     0.069 A 
ATOM      5  C   UNL d   1      46.547 -19.486  42.982  0.00  0.00     0.089 A 
ATOM      6  N   UNL d   1      46.439 -19.065  43.691  0.00  0.00    -0.303 N 
ATOM      7  C   UNL d   1      46.130 -17.846  44.372  0.00  0.00     0.044 A 
ATOM      8  C   UNL d   1      45.944 -17.075  42.929  0.00  0.00     0.031 A 
ATOM      9  C   UNL d   1      45.931 -17.049  44.354  0.00  0.00     0.121 A 
ATOM     10  C   UNL d   1      45.837 -16.664  43.633  0.00  0.00     0.119 A 
ATOM     11  O   UNL d   1      45.793 -16.509  44.955  0.00  0.00    -0.299 OA
ATOM     12  O   UNL d   1      45.642 -15.886  43.788  0.00  0.00    -0.300 OA
ATOM     13  O   UNL d   1      46.157 -17.903  41.507  0.00  0.00    -0.286 OA
ATOM     14  C   UNL d   1      45.613 -15.786  44.600  0.00  0.00     0.304 A 
ENDROOT
BRANCH   1  15
ATOM     15  C   UNL d   1      46.560 -19.512  41.548  0.00  0.00     0.215 C 
ATOM     16  O   UNL d   1      46.587 -19.106  40.833  0.00  0.00    -0.644 OA
ATOM     17  O   UNL d   1      46.639 -20.330  41.561  0.00  0.00    -0.644 OA
ENDBRANCH   1  15
BRANCH   6  18
ATOM     18  C   UNL d   1      46.532 -19.450  44.412  0.00  0.00     0.080 C 
ATOM     19  C   UNL d   1      46.596 -20.277  44.432  0.00  0.00     0.021 C 
ENDBRANCH   6  18
TORSDOF 2
ENDMDL
