MODEL 1
REMARK VINA RESULT:      -8.9      0.000      0.000
REMARK  3 active torsions:
REMARK  status: ('A' for Active; 'I' for Inactive)
REMARK    1  A    between atoms: C_5  and  C_1 
REMARK    2  A    between atoms: N_8  and  C_5 
REMARK    3  A    between atoms: C_10  and  C_5 
ROOT
ATOM      1  C   UNL d   1      53.449  32.602  53.635  0.00  0.00     0.067 C 
ENDROOT
BRANCH   1   2
ATOM      2  C   UNL d   1      53.370  31.778  53.620  0.00  0.00     0.057 A 
ATOM      3  C   UNL d   1      53.377  31.360  54.328  0.00  0.00     0.214 A 
ATOM      4  C   UNL d   1      53.299  30.538  54.312  0.00  0.00     0.121 A 
ATOM      5  O   UNL d   1      53.462  31.743  55.049  0.00  0.00    -0.285 OA
ATOM      6  N   UNL d   1      53.306  30.117  55.022  0.00  0.00    -0.241 NA
ATOM      7  C   UNL d   1      53.213  30.138  53.586  0.00  0.00     0.032 A 
ATOM      8  C   UNL d   1      53.228  29.303  55.002  0.00  0.00     0.099 A 
ATOM      9  C   UNL d   1      53.142  28.903  54.276  0.00  0.00     0.021 A 
ATOM     10  C   UNL d   1      53.136  29.324  53.585  0.00  0.00     0.004 A 
ATOM     11  C   UNL d   1      53.206  30.561  52.880  0.00  0.00     0.059 A 
ATOM     12  C   UNL d   1      53.284  31.377  52.895  0.00  0.00     0.016 A 
ATOM     13 CL   UNL d   1      53.120  30.158  52.174  0.00  0.00    -0.082 Cl
ENDBRANCH   1   2
BRANCH   1  14
ATOM     14  N   UNL d   1      54.168  32.945  53.831  0.00  0.00    -0.304 N 
ATOM     15  C   UNL d   1      54.788  32.943  53.289  0.00  0.00     0.080 A 
ATOM     16  C   UNL d   1      55.508  33.281  53.473  0.00  0.00     0.021 A 
ATOM     17  C   UNL d   1      54.997  33.638  54.773  0.00  0.00     0.021 A 
ATOM     18  C   UNL d   1      54.273  33.294  54.575  0.00  0.00     0.080 A 
ENDBRANCH   1  14
BRANCH   1  19
ATOM     19  C   UNL d   1      52.793  33.087  53.449  0.00  0.00     0.016 A 
ATOM     20  C   UNL d   1      52.263  33.304  54.029  0.00  0.00     0.002 A 
ATOM     21  C   UNL d   1      51.619  33.778  53.851  0.00  0.00     0.011 A 
ATOM     22  C   UNL d   1      51.505  34.042  53.069  0.00  0.00     0.058 A 
ATOM     23  C   UNL d   1      52.045  33.821  52.477  0.00  0.00     0.011 A 
ATOM     24 CL   UNL d   1      50.867  34.515  52.881  0.00  0.00    -0.082 Cl
ATOM     25  C   UNL d   1      52.691  33.340  52.674  0.00  0.00     0.002 A 
ENDBRANCH   1  19
TORSDOF 3
ENDMDL
MODEL 2
REMARK VINA RESULT:      -8.8      1.607      3.663
REMARK  3 active torsions:
REMARK  status: ('A' for Active; 'I' for Inactive)
REMARK    1  A    between atoms: C_5  and  C_1 
REMARK    2  A    between atoms: N_8  and  C_5 
REMARK    3  A    between atoms: C_10  and  C_5 
ROOT
ATOM      1  C   UNL d   1      53.177  32.533  53.533  0.00  0.00     0.067 C 
ENDROOT
BRANCH   1   2
ATOM      2  C   UNL d   1      52.596  33.023  53.202  0.00  0.00     0.057 A 
ATOM      3  C   UNL d   1      51.839  33.022  53.522  0.00  0.00     0.214 A 
ATOM      4  C   UNL d   1      51.262  33.511  53.191  0.00  0.00     0.121 A 
ATOM      5  O   UNL d   1      51.646  32.545  54.162  0.00  0.00    -0.285 OA
ATOM      6  N   UNL d   1      50.500  33.511  53.511  0.00  0.00    -0.241 NA
ATOM      7  C   UNL d   1      51.445  33.998  52.541  0.00  0.00     0.032 A 
ATOM      8  C   UNL d   1      49.931  33.997  53.180  0.00  0.00     0.099 A 
ATOM      9  C   UNL d   1      50.114  34.485  52.530  0.00  0.00     0.021 A 
ATOM     10  C   UNL d   1      50.864  34.477  52.224  0.00  0.00     0.004 A 
ATOM     11  C   UNL d   1      52.205  33.996  52.225  0.00  0.00     0.059 A 
ATOM     12  C   UNL d   1      52.780  33.511  52.552  0.00  0.00     0.016 A 
ATOM     13 CL   UNL d   1      52.374  34.478  51.587  0.00  0.00    -0.082 Cl
ENDBRANCH   1   2
BRANCH   1  14
ATOM     14  N   UNL d   1      53.164  31.724  53.392  0.00  0.00    -0.304 N 
ATOM     15  C   UNL d   1      53.231  31.439  52.623  0.00  0.00     0.080 A 
ATOM     16  C   UNL d   1      53.220  30.636  52.471  0.00  0.00     0.021 A 
ATOM     17  C   UNL d   1      53.071  30.381  53.881  0.00  0.00     0.021 A 
ATOM     18  C   UNL d   1      53.084  31.193  54.023  0.00  0.00     0.080 A 
ENDBRANCH   1  14
BRANCH   1  19
ATOM     19  C   UNL d   1      53.778  32.863  54.011  0.00  0.00     0.016 A 
ATOM     20  C   UNL d   1      53.634  33.034  54.795  0.00  0.00     0.002 A 
ATOM     21  C   UNL d   1      54.219  33.358  55.269  0.00  0.00     0.011 A 
ATOM     22  C   UNL d   1      54.970  33.515  54.943  0.00  0.00     0.058 A 
ATOM     23  C   UNL d   1      55.118  33.341  54.144  0.00  0.00     0.011 A 
ATOM     24 CL   UNL d   1      55.561  33.837  55.405  0.00  0.00    -0.082 Cl
ATOM     25  C   UNL d   1      54.514  33.014  53.680  0.00  0.00     0.002 A 
ENDBRANCH   1  19
TORSDOF 3
ENDMDL
MODEL 3
REMARK VINA RESULT:      -8.5      1.378      2.880
REMARK  3 active torsions:
REMARK  status: ('A' for Active; 'I' for Inactive)
REMARK    1  A    between atoms: C_5  and  C_1 
REMARK    2  A    between atoms: N_8  and  C_5 
REMARK    3  A    between atoms: C_10  and  C_5 
ROOT
ATOM      1  C   UNL d   1      52.747  32.405  53.265  0.00  0.00     0.067 C 
ENDROOT
BRANCH   1   2
ATOM      2  C   UNL d   1      53.438  32.711  53.605  0.00  0.00     0.057 A 
ATOM      3  C   UNL d   1      53.441  32.908  54.403  0.00  0.00     0.214 A 
ATOM      4  C   UNL d   1      54.130  33.212  54.740  0.00  0.00     0.121 A 
ATOM      5  O   UNL d   1      52.773  32.806  54.870  0.00  0.00    -0.285 OA
ATOM      6  N   UNL d   1      54.135  33.410  55.542  0.00  0.00    -0.241 NA
ATOM      7  C   UNL d   1      54.813  33.320  54.276  0.00  0.00     0.032 A 
ATOM      8  C   UNL d   1      54.820  33.712  55.873  0.00  0.00     0.099 A 
ATOM      9  C   UNL d   1      55.503  33.819  55.409  0.00  0.00     0.021 A 
ATOM     10  C   UNL d   1      55.489  33.623  54.623  0.00  0.00     0.004 A 
ATOM     11  C   UNL d   1      54.806  33.122  53.477  0.00  0.00     0.059 A 
ATOM     12  C   UNL d   1      54.122  32.819  53.141  0.00  0.00     0.016 A 
ATOM     13 CL   UNL d   1      55.482  33.231  53.032  0.00  0.00    -0.082 Cl
ENDBRANCH   1   2
BRANCH   1  14
ATOM     14  N   UNL d   1      52.666  31.596  53.151  0.00  0.00    -0.304 N 
ATOM     15  C   UNL d   1      52.998  31.238  52.488  0.00  0.00     0.080 A 
ATOM     16  C   UNL d   1      52.924  30.433  52.365  0.00  0.00     0.021 A 
ATOM     17  C   UNL d   1      52.170  30.325  53.588  0.00  0.00     0.021 A 
ATOM     18  C   UNL d   1      52.251  31.138  53.702  0.00  0.00     0.080 A 
ENDBRANCH   1  14
BRANCH   1  19
ATOM     19  C   UNL d   1      52.131  32.922  53.036  0.00  0.00     0.016 A 
ATOM     20  C   UNL d   1      51.436  32.948  53.462  0.00  0.00     0.002 A 
ATOM     21  C   UNL d   1      50.829  33.453  53.242  0.00  0.00     0.011 A 
ATOM     22  C   UNL d   1      50.924  33.944  52.576  0.00  0.00     0.058 A 
ATOM     23  C   UNL d   1      51.632  33.919  52.142  0.00  0.00     0.011 A 
ATOM     24 CL   UNL d   1      50.326  34.451  52.348  0.00  0.00    -0.082 Cl
ATOM     25  C   UNL d   1      52.236  33.402  52.378  0.00  0.00     0.002 A 
ENDBRANCH   1  19
TORSDOF 3
ENDMDL
MODEL 4
REMARK VINA RESULT:      -8.4      1.169      3.723
REMARK  3 active torsions:
REMARK  status: ('A' for Active; 'I' for Inactive)
REMARK    1  A    between atoms: C_5  and  C_1 
REMARK    2  A    between atoms: N_8  and  C_5 
REMARK    3  A    between atoms: C_10  and  C_5 
ROOT
ATOM      1  C   UNL d   1      53.218  32.423  53.707  0.00  0.00     0.067 C 
ENDROOT
BRANCH   1   2
ATOM      2  C   UNL d   1      52.559  32.856  53.451  0.00  0.00     0.057 A 
ATOM      3  C   UNL d   1      52.572  33.204  52.705  0.00  0.00     0.214 A 
ATOM      4  C   UNL d   1      51.915  33.634  52.451  0.00  0.00     0.121 A 
ATOM      5  O   UNL d   1      53.223  33.130  52.211  0.00  0.00    -0.285 OA
ATOM      6  N   UNL d   1      51.925  33.984  51.703  0.00  0.00    -0.241 NA
ATOM      7  C   UNL d   1      51.249  33.716  52.945  0.00  0.00     0.032 A 
ATOM      8  C   UNL d   1      51.273  34.410  51.455  0.00  0.00     0.099 A 
ATOM      9  C   UNL d   1      50.606  34.492  51.948  0.00  0.00     0.021 A 
ATOM     10  C   UNL d   1      50.605  34.145  52.680  0.00  0.00     0.004 A 
ATOM     11  C   UNL d   1      51.241  33.366  53.690  0.00  0.00     0.059 A 
ATOM     12  C   UNL d   1      51.893  32.937  53.944  0.00  0.00     0.016 A 
ATOM     13 CL   UNL d   1      50.582  33.453  54.165  0.00  0.00    -0.082 Cl
ENDBRANCH   1   2
BRANCH   1  14
ATOM     14  N   UNL d   1      53.875  32.811  54.011  0.00  0.00    -0.304 N 
ATOM     15  C   UNL d   1      53.856  33.117  54.775  0.00  0.00     0.080 A 
ATOM     16  C   UNL d   1      54.504  33.505  55.087  0.00  0.00     0.021 A 
ATOM     17  C   UNL d   1      55.217  33.286  53.855  0.00  0.00     0.021 A 
ATOM     18  C   UNL d   1      54.557  32.896  53.550  0.00  0.00     0.080 A 
ENDBRANCH   1  14
BRANCH   1  19
ATOM     19  C   UNL d   1      53.213  31.588  53.657  0.00  0.00     0.016 A 
ATOM     20  C   UNL d   1      53.237  31.219  52.931  0.00  0.00     0.002 A 
ATOM     21  C   UNL d   1      53.232  30.401  52.876  0.00  0.00     0.011 A 
ATOM     22  C   UNL d   1      53.203  29.943  53.571  0.00  0.00     0.058 A 
ATOM     23  C   UNL d   1      53.178  30.319  54.312  0.00  0.00     0.011 A 
ATOM     24 CL   UNL d   1      53.197  29.128  53.529  0.00  0.00    -0.082 Cl
ATOM     25  C   UNL d   1      53.183  31.147  54.349  0.00  0.00     0.002 A 
ENDBRANCH   1  19
TORSDOF 3
ENDMDL
MODEL 5
REMARK VINA RESULT:      -8.2      1.500      3.484
REMARK  3 active torsions:
REMARK  status: ('A' for Active; 'I' for Inactive)
REMARK    1  A    between atoms: C_5  and  C_1 
REMARK    2  A    between atoms: N_8  and  C_5 
REMARK    3  A    between atoms: C_10  and  C_5 
ROOT
ATOM      1  C   UNL d   1      52.915  32.385  53.381  0.00  0.00     0.067 C 
ENDROOT
BRANCH   1   2
ATOM      2  C   UNL d   1      53.601  32.735  53.688  0.00  0.00     0.057 A 
ATOM      3  C   UNL d   1      53.595  33.027  54.457  0.00  0.00     0.214 A 
ATOM      4  C   UNL d   1      54.279  33.375  54.760  0.00  0.00     0.121 A 
ATOM      5  O   UNL d   1      52.924  32.977  54.927  0.00  0.00    -0.285 OA
ATOM      6  N   UNL d   1      54.275  33.668  55.532  0.00  0.00    -0.241 NA
ATOM      7  C   UNL d   1      54.966  33.430  54.293  0.00  0.00     0.032 A 
ATOM      8  C   UNL d   1      54.955  34.013  55.830  0.00  0.00     0.099 A 
ATOM      9  C   UNL d   1      55.642  34.068  55.362  0.00  0.00     0.021 A 
ATOM     10  C   UNL d   1      55.637  33.778  54.606  0.00  0.00     0.004 A 
ATOM     11  C   UNL d   1      54.967  33.137  53.523  0.00  0.00     0.059 A 
ATOM     12  C   UNL d   1      54.288  32.791  53.220  0.00  0.00     0.016 A 
ATOM     13 CL   UNL d   1      55.647  33.197  53.074  0.00  0.00    -0.082 Cl
ENDBRANCH   1   2
BRANCH   1  14
ATOM     14  N   UNL d   1      52.289  32.853  53.131  0.00  0.00    -0.304 N 
ATOM     15  C   UNL d   1      52.360  33.306  52.447  0.00  0.00     0.080 A 
ATOM     16  C   UNL d   1      51.743  33.775  52.189  0.00  0.00     0.021 A 
ATOM     17  C   UNL d   1      50.955  33.342  53.315  0.00  0.00     0.021 A 
ATOM     18  C   UNL d   1      51.584  32.872  53.566  0.00  0.00     0.080 A 
ENDBRANCH   1  14
BRANCH   1  19
ATOM     19  C   UNL d   1      52.861  31.552  53.326  0.00  0.00     0.016 A 
ATOM     20  C   UNL d   1      52.724  31.103  53.993  0.00  0.00     0.002 A 
ATOM     21  C   UNL d   1      52.670  30.287  53.944  0.00  0.00     0.011 A 
ATOM     22  C   UNL d   1      52.757  29.913  53.205  0.00  0.00     0.058 A 
ATOM     23  C   UNL d   1      52.898  30.370  52.525  0.00  0.00     0.011 A 
ATOM     24 CL   UNL d   1      52.706  29.101  53.145  0.00  0.00    -0.082 Cl
ATOM     25  C   UNL d   1      52.949  31.194  52.593  0.00  0.00     0.002 A 
ENDBRANCH   1  19
TORSDOF 3
ENDMDL
MODEL 6
REMARK VINA RESULT:      -7.9      1.182      2.210
REMARK  3 active torsions:
REMARK  status: ('A' for Active; 'I' for Inactive)
REMARK    1  A    between atoms: C_5  and  C_1 
REMARK    2  A    between atoms: N_8  and  C_5 
REMARK    3  A    between atoms: C_10  and  C_5 
ROOT
ATOM      1  C   UNL d   1      53.298  32.530  53.734  0.00  0.00     0.067 C 
ENDROOT
BRANCH   1   2
ATOM      2  C   UNL d   1      53.283  31.703  53.687  0.00  0.00     0.057 A 
ATOM      3  C   UNL d   1      53.263  31.260  54.380  0.00  0.00     0.214 A 
ATOM      4  C   UNL d   1      53.248  30.437  54.331  0.00  0.00     0.121 A 
ATOM      5  O   UNL d   1      53.256  31.622  55.117  0.00  0.00    -0.285 OA
ATOM      6  N   UNL d   1      53.228  29.991  55.026  0.00  0.00    -0.241 NA
ATOM      7  C   UNL d   1      53.255  30.059  53.589  0.00  0.00     0.032 A 
ATOM      8  C   UNL d   1      53.213  29.174  54.974  0.00  0.00     0.099 A 
ATOM      9  C   UNL d   1      53.220  28.796  54.232  0.00  0.00     0.021 A 
ATOM     10  C   UNL d   1      53.240  29.242  53.556  0.00  0.00     0.004 A 
ATOM     11  C   UNL d   1      53.275  30.506  52.898  0.00  0.00     0.059 A 
ATOM     12  C   UNL d   1      53.290  31.325  52.945  0.00  0.00     0.016 A 
ATOM     13 CL   UNL d   1      53.281  30.124  52.176  0.00  0.00    -0.082 Cl
ENDBRANCH   1   2
BRANCH   1  14
ATOM     14  N   UNL d   1      52.660  32.970  53.463  0.00  0.00    -0.304 N 
ATOM     15  C   UNL d   1      52.705  33.358  52.738  0.00  0.00     0.080 A 
ATOM     16  C   UNL d   1      52.077  33.799  52.459  0.00  0.00     0.021 A 
ATOM     17  C   UNL d   1      51.329  33.469  53.646  0.00  0.00     0.021 A 
ATOM     18  C   UNL d   1      51.970  33.026  53.918  0.00  0.00     0.080 A 
ENDBRANCH   1  14
BRANCH   1  19
ATOM     19  C   UNL d   1      53.964  32.917  54.058  0.00  0.00     0.016 A 
ATOM     20  C   UNL d   1      53.921  33.267  54.793  0.00  0.00     0.002 A 
ATOM     21  C   UNL d   1      54.571  33.648  55.115  0.00  0.00     0.011 A 
ATOM     22  C   UNL d   1      55.285  33.677  54.686  0.00  0.00     0.058 A 
ATOM     23  C   UNL d   1      55.330  33.320  53.937  0.00  0.00     0.011 A 
ATOM     24 CL   UNL d   1      55.939  34.053  54.996  0.00  0.00    -0.082 Cl
ATOM     25  C   UNL d   1      54.662  32.939  53.626  0.00  0.00     0.002 A 
ENDBRANCH   1  19
TORSDOF 3
ENDMDL
MODEL 7
REMARK VINA RESULT:      -6.8      1.415      1.936
REMARK  3 active torsions:
REMARK  status: ('A' for Active; 'I' for Inactive)
REMARK    1  A    between atoms: C_5  and  C_1 
REMARK    2  A    between atoms: N_8  and  C_5 
REMARK    3  A    between atoms: C_10  and  C_5 
ROOT
ATOM      1  C   UNL d   1      52.462  33.797  53.442  0.00  0.00     0.067 C 
ENDROOT
BRANCH   1   2
ATOM      2  C   UNL d   1      52.854  33.070  53.376  0.00  0.00     0.057 A 
ATOM      3  C   UNL d   1      52.435  32.373  53.498  0.00  0.00     0.214 A 
ATOM      4  C   UNL d   1      52.827  31.650  53.431  0.00  0.00     0.121 A 
ATOM      5  O   UNL d   1      51.635  32.384  53.685  0.00  0.00    -0.285 OA
ATOM      6  N   UNL d   1      52.407  30.949  53.554  0.00  0.00    -0.241 NA
ATOM      7  C   UNL d   1      53.638  31.627  53.242  0.00  0.00     0.032 A 
ATOM      8  C   UNL d   1      52.800  30.234  53.487  0.00  0.00     0.099 A 
ATOM      9  C   UNL d   1      53.611  30.212  53.297  0.00  0.00     0.021 A 
ATOM     10  C   UNL d   1      54.014  30.904  53.179  0.00  0.00     0.004 A 
ATOM     11  C   UNL d   1      54.053  32.327  53.120  0.00  0.00     0.059 A 
ATOM     12  C   UNL d   1      53.665  33.047  53.186  0.00  0.00     0.016 A 
ATOM     13 CL   UNL d   1      54.849  32.293  52.935  0.00  0.00    -0.082 Cl
ENDBRANCH   1   2
BRANCH   1  14
ATOM     14  N   UNL d   1      52.711  34.352  53.993  0.00  0.00    -0.304 N 
ATOM     15  C   UNL d   1      53.027  35.069  53.741  0.00  0.00     0.080 A 
ATOM     16  C   UNL d   1      53.279  35.629  54.281  0.00  0.00     0.021 A 
ATOM     17  C   UNL d   1      52.898  34.750  55.357  0.00  0.00     0.021 A 
ATOM     18  C   UNL d   1      52.647  34.192  54.803  0.00  0.00     0.080 A 
ENDBRANCH   1  14
BRANCH   1  19
ATOM     19  C   UNL d   1      51.810  33.965  52.947  0.00  0.00     0.016 A 
ATOM     20  C   UNL d   1      51.054  33.981  53.251  0.00  0.00     0.002 A 
ATOM     21  C   UNL d   1      50.411  34.145  52.770  0.00  0.00     0.011 A 
ATOM     22  C   UNL d   1      50.533  34.298  51.960  0.00  0.00     0.058 A 
ATOM     23  C   UNL d   1      51.303  34.282  51.648  0.00  0.00     0.011 A 
ATOM     24 CL   UNL d   1      49.901  34.463  51.471  0.00  0.00    -0.082 Cl
ATOM     25  C   UNL d   1      51.942  34.114  52.150  0.00  0.00     0.002 A 
ENDBRANCH   1  19
TORSDOF 3
ENDMDL
MODEL 8
REMARK VINA RESULT:      -6.4      1.714      2.648
REMARK  3 active torsions:
REMARK  status: ('A' for Active; 'I' for Inactive)
REMARK    1  A    between atoms: C_5  and  C_1 
REMARK    2  A    between atoms: N_8  and  C_5 
REMARK    3  A    between atoms: C_10  and  C_5 
ROOT
ATOM      1  C   UNL d   1      52.241  33.784  53.177  0.00  0.00     0.067 C 
ENDROOT
BRANCH   1   2
ATOM      2  C   UNL d   1      52.584  33.030  53.172  0.00  0.00     0.057 A 
ATOM      3  C   UNL d   1      52.109  32.370  53.299  0.00  0.00     0.214 A 
ATOM      4  C   UNL d   1      52.453  31.620  53.292  0.00  0.00     0.121 A 
ATOM      5  O   UNL d   1      51.302  32.444  53.431  0.00  0.00    -0.285 OA
ATOM      6  N   UNL d   1      51.978  30.956  53.420  0.00  0.00    -0.241 NA
ATOM      7  C   UNL d   1      53.270  31.532  53.159  0.00  0.00     0.032 A 
ATOM      8  C   UNL d   1      52.322  30.214  53.413  0.00  0.00     0.099 A 
ATOM      9  C   UNL d   1      53.139  30.127  53.280  0.00  0.00     0.021 A 
ATOM     10  C   UNL d   1      53.597  30.783  53.156  0.00  0.00     0.004 A 
ATOM     11  C   UNL d   1      53.741  32.195  53.032  0.00  0.00     0.059 A 
ATOM     12  C   UNL d   1      53.402  32.942  53.038  0.00  0.00     0.016 A 
ATOM     13 CL   UNL d   1      54.542  32.097  52.903  0.00  0.00    -0.082 Cl
ENDBRANCH   1   2
BRANCH   1  14
ATOM     14  N   UNL d   1      51.629  33.963  52.661  0.00  0.00    -0.304 N 
ATOM     15  C   UNL d   1      51.787  34.091  51.863  0.00  0.00     0.080 A 
ATOM     16  C   UNL d   1      51.185  34.270  51.339  0.00  0.00     0.021 A 
ATOM     17  C   UNL d   1      50.235  34.196  52.420  0.00  0.00     0.021 A 
ATOM     18  C   UNL d   1      50.851  34.016  52.940  0.00  0.00     0.080 A 
ENDBRANCH   1  14
BRANCH   1  19
ATOM     19  C   UNL d   1      52.519  34.364  53.711  0.00  0.00     0.016 A 
ATOM     20  C   UNL d   1      52.351  34.307  54.507  0.00  0.00     0.002 A 
ATOM     21  C   UNL d   1      52.622  34.873  55.034  0.00  0.00     0.011 A 
ATOM     22  C   UNL d   1      53.073  35.513  54.753  0.00  0.00     0.058 A 
ATOM     23  C   UNL d   1      53.245  35.573  53.942  0.00  0.00     0.011 A 
ATOM     24 CL   UNL d   1      53.348  36.083  55.269  0.00  0.00    -0.082 Cl
ATOM     25  C   UNL d   1      52.964  34.991  53.423  0.00  0.00     0.002 A 
ENDBRANCH   1  19
TORSDOF 3
ENDMDL
