MODEL 1
REMARK VINA RESULT:      60.2      0.000      0.000
REMARK  5 active torsions:
REMARK  status: ('A' for Active; 'I' for Inactive)
REMARK    1  A    between atoms: C_11  and  N_5 
REMARK    2  A    between atoms: C_15  and  C_8 
REMARK    3  A    between atoms: C_12  and  C_11 
REMARK    4  A    between atoms: O_20  and  C_15 
REMARK    5  A    between atoms: C_23  and  O_20 
ROOT
ATOM      1  C   UNL d   1      45.833 -15.289  43.873  0.00  0.00     0.130 A 
ATOM      2  C   UNL d   1      45.435 -15.401  43.163  0.00  0.00     0.157 A 
ATOM      3  C   UNL d   1      46.238 -15.919  44.225  0.00  0.00     0.272 A 
ATOM      4  N   UNL d   1      45.440 -16.139  42.803  0.00  0.00    -0.208 NA
ATOM      5  N   UNL d   1      46.243 -16.657  43.864  0.00  0.00    -0.254 N 
ATOM      6  C   UNL d   1      45.830 -14.546  44.240  0.00  0.00     0.204 A 
ATOM      7  N   UNL d   1      45.027 -14.768  42.810  0.00  0.00    -0.289 N 
ATOM      8  C   UNL d   1      45.845 -16.769  43.154  0.00  0.00     0.177 A 
ATOM      9  C   UNL d   1      45.422 -13.913  43.886  0.00  0.00     0.055 A 
ATOM     10  C   UNL d   1      45.022 -14.030  43.171  0.00  0.00     0.069 A 
ATOM     11  O   UNL d   1      46.646 -15.810  44.949  0.00  0.00    -0.266 OA
ATOM     12  O   UNL d   1      46.231 -14.436  44.954  0.00  0.00    -0.286 OA
ATOM     13  C   UNL d   1      44.626 -14.879  42.096  0.00  0.00     0.101 C 
ATOM     14  C   UNL d   1      45.418 -13.173  44.250  0.00  0.00     0.005 A 
ATOM     15  C   UNL d   1      44.619 -13.403  42.821  0.00  0.00     0.018 A 
ATOM     16  C   UNL d   1      45.015 -12.546  43.900  0.00  0.00     0.000 A 
ATOM     17  C   UNL d   1      44.613 -12.665  43.181  0.00  0.00     0.002 A 
ENDROOT
BRANCH   8  18
ATOM     18  C   UNL d   1      45.851 -17.521  42.789  0.00  0.00     0.160 C 
BRANCH  18  19
ATOM     19  O   UNL d   1      46.469 -17.727  42.281  0.00  0.00    -0.302 OA
BRANCH  19  20
ATOM     20  C   UNL d   1      46.467 -18.464  41.913  0.00  0.00     0.100 A 
ATOM     21  C   UNL d   1      46.325 -18.513  41.105  0.00  0.00     0.025 A 
ATOM     22  C   UNL d   1      46.322 -19.251  40.729  0.00  0.00     0.002 A 
ATOM     23  C   UNL d   1      46.461 -19.930  41.172  0.00  0.00     0.000 A 
ATOM     24  C   UNL d   1      46.603 -19.878  41.983  0.00  0.00     0.002 A 
ATOM     25  C   UNL d   1      46.606 -19.145  42.354  0.00  0.00     0.025 A 
ENDBRANCH  19  20
ENDBRANCH  18  19
ENDBRANCH   8  18
BRANCH   5  26
ATOM     26  C   UNL d   1      46.647 -17.284  44.213  0.00  0.00     0.109 C 
BRANCH  26  27
ATOM     27  C   UNL d   1      46.233 -17.939  44.487  0.00  0.00     0.118 A 
ATOM     28  O   UNL d   1      45.429 -18.076  44.608  0.00  0.00    -0.304 OA
ATOM     29  C   UNL d   1      45.346 -18.844  44.893  0.00  0.00     0.123 A 
ATOM     30  C   UNL d   1      46.082 -19.188  44.952  0.00  0.00     0.029 A 
ATOM     31  C   UNL d   1      46.640 -18.628  44.701  0.00  0.00     0.028 A 
ENDBRANCH  26  27
ENDBRANCH   5  26
TORSDOF 5
ENDMDL
