MODEL 1
REMARK VINA RESULT:      -5.4      0.000      0.000
REMARK  3 active torsions:
REMARK  status: ('A' for Active; 'I' for Inactive)
REMARK    1  A    between atoms: C_8  and  S_1 
REMARK    2  A    between atoms: N_10  and  S_1 
REMARK    3  A    between atoms: C_17  and  N_10 
ROOT
ATOM      1  C   UNL d   1     -41.655-122.277 -53.086  0.00  0.00     0.043 A 
ATOM      2  C   UNL d   1     -41.921-121.655 -53.555  0.00  0.00     0.196 A 
ATOM      3  C   UNL d   1     -41.514-123.097 -54.247  0.00  0.00     0.196 A 
ATOM      4  C   UNL d   1     -41.451-122.998 -53.432  0.00  0.00     0.042 A 
ATOM      5  C   UNL d   1     -41.985-121.752 -54.373  0.00  0.00     0.042 A 
ATOM      6  C   UNL d   1     -41.781-122.473 -54.719  0.00  0.00     0.042 A 
ATOM      7  C   UNL d   1     -41.326-122.800 -51.802  0.00  0.00     0.105 A 
ATOM      8  C   UNL d   1     -41.593-122.179 -52.271  0.00  0.00     0.016 A 
ATOM      9  C   UNL d   1     -41.185-123.620 -52.963  0.00  0.00     0.004 A 
ATOM     10  O   UNL d   1     -42.125-120.935 -53.209  0.00  0.00    -0.287 OA
ATOM     11  O   UNL d   1     -41.310-123.818 -54.593  0.00  0.00    -0.287 OA
ATOM     12  C   UNL d   1     -41.123-123.521 -52.148  0.00  0.00     0.013 A 
ATOM     13  C   UNL d   1     -42.251-121.131 -54.843  0.00  0.00     0.003 A 
ATOM     14  C   UNL d   1     -41.843-122.572 -55.535  0.00  0.00     0.003 A 
ATOM     15  C   UNL d   1     -42.112-121.946 -56.011  0.00  0.00     0.000 A 
ATOM     16  C   UNL d   1     -42.316-121.226 -55.665  0.00  0.00     0.000 A 
ENDROOT
BRANCH   7  17
ATOM     17  S   UNL d   1     -41.263-122.699 -50.972  0.00  0.00     0.285 S 
ATOM     18  O   UNL d   1     -41.153-123.521 -50.878  0.00  0.00    -0.198 OA
ATOM     19  O   UNL d   1     -41.374-121.880 -51.072  0.00  0.00    -0.198 OA
BRANCH  17  20
ATOM     20  N   UNL d   1     -41.200-122.600 -50.149  0.00  0.00    -0.158 NA
BRANCH  20  21
ATOM     21  C   UNL d   1     -41.803-122.869 -49.651  0.00  0.00     0.094 A 
ATOM     22  C   UNL d   1     -42.519-122.455 -49.616  0.00  0.00     0.020 A 
ATOM     23  C   UNL d   1     -43.130-122.721 -49.117  0.00  0.00     0.002 A 
ATOM     24  C   UNL d   1     -43.022-123.401 -48.656  0.00  0.00     0.000 A 
ATOM     25  C   UNL d   1     -42.295-123.817 -48.696  0.00  0.00     0.002 A 
ATOM     26  C   UNL d   1     -41.695-123.546 -49.192  0.00  0.00     0.020 A 
ENDBRANCH  20  21
ENDBRANCH  17  20
ENDBRANCH   7  17
TORSDOF 3
ENDMDL
MODEL 2
REMARK VINA RESULT:      -4.6      1.199      5.062
REMARK  3 active torsions:
REMARK  status: ('A' for Active; 'I' for Inactive)
REMARK    1  A    between atoms: C_8  and  S_1 
REMARK    2  A    between atoms: N_10  and  S_1 
REMARK    3  A    between atoms: C_17  and  N_10 
ROOT
ATOM      1  C   UNL d   1     -42.056-122.869 -50.415  0.00  0.00     0.043 A 
ATOM      2  C   UNL d   1     -41.786-123.338 -49.795  0.00  0.00     0.196 A 
ATOM      3  C   UNL d   1     -43.114-122.381 -49.588  0.00  0.00     0.196 A 
ATOM      4  C   UNL d   1     -42.720-122.390 -50.311  0.00  0.00     0.042 A 
ATOM      5  C   UNL d   1     -42.179-123.331 -49.069  0.00  0.00     0.042 A 
ATOM      6  C   UNL d   1     -42.843-122.852 -48.965  0.00  0.00     0.042 A 
ATOM      7  C   UNL d   1     -41.934-122.407 -51.758  0.00  0.00     0.105 A 
ATOM      8  C   UNL d   1     -41.664-122.877 -51.138  0.00  0.00     0.016 A 
ATOM      9  C   UNL d   1     -42.991-121.919 -50.930  0.00  0.00     0.004 A 
ATOM     10  O   UNL d   1     -41.123-123.817 -49.899  0.00  0.00    -0.287 OA
ATOM     11  O   UNL d   1     -43.778-121.902 -49.484  0.00  0.00    -0.287 OA
ATOM     12  C   UNL d   1     -42.597-121.928 -51.654  0.00  0.00     0.013 A 
ATOM     13  C   UNL d   1     -41.909-123.801 -48.449  0.00  0.00     0.003 A 
ATOM     14  C   UNL d   1     -43.237-122.843 -48.241  0.00  0.00     0.003 A 
ATOM     15  C   UNL d   1     -42.967-123.316 -47.614  0.00  0.00     0.000 A 
ATOM     16  C   UNL d   1     -42.303-123.795 -47.717  0.00  0.00     0.000 A 
ENDROOT
BRANCH   7  17
ATOM     17  S   UNL d   1     -41.533-122.417 -52.494  0.00  0.00     0.285 S 
ATOM     18  O   UNL d   1     -41.427-121.590 -52.450  0.00  0.00    -0.198 OA
ATOM     19  O   UNL d   1     -41.641-123.242 -52.533  0.00  0.00    -0.198 OA
BRANCH  17  20
ATOM     20  N   UNL d   1     -41.134-122.425 -53.224  0.00  0.00    -0.158 NA
BRANCH  20  21
ATOM     21  C   UNL d   1     -41.560-122.357 -53.929  0.00  0.00     0.094 A 
ATOM     22  C   UNL d   1     -41.718-123.034 -54.379  0.00  0.00     0.020 A 
ATOM     23  C   UNL d   1     -42.147-122.972 -55.090  0.00  0.00     0.002 A 
ATOM     24  C   UNL d   1     -42.415-122.231 -55.348  0.00  0.00     0.000 A 
ATOM     25  C   UNL d   1     -42.252-121.549 -54.889  0.00  0.00     0.002 A 
ATOM     26  C   UNL d   1     -41.828-121.620 -54.187  0.00  0.00     0.020 A 
ENDBRANCH  20  21
ENDBRANCH  17  20
ENDBRANCH   7  17
TORSDOF 3
ENDMDL
MODEL 3
REMARK VINA RESULT:      -3.0      1.287      4.759
REMARK  3 active torsions:
REMARK  status: ('A' for Active; 'I' for Inactive)
REMARK    1  A    between atoms: C_8  and  S_1 
REMARK    2  A    between atoms: N_10  and  S_1 
REMARK    3  A    between atoms: C_17  and  N_10 
ROOT
ATOM      1  C   UNL d   1     -42.346-122.391 -51.060  0.00  0.00     0.043 A 
ATOM      2  C   UNL d   1     -42.950-122.247 -50.518  0.00  0.00     0.196 A 
ATOM      3  C   UNL d   1     -41.732-123.293 -50.138  0.00  0.00     0.196 A 
ATOM      4  C   UNL d   1     -41.737-122.914 -50.870  0.00  0.00     0.042 A 
ATOM      5  C   UNL d   1     -42.946-122.626 -49.784  0.00  0.00     0.042 A 
ATOM      6  C   UNL d   1     -42.337-123.149 -49.594  0.00  0.00     0.042 A 
ATOM      7  C   UNL d   1     -41.748-122.157 -52.332  0.00  0.00     0.105 A 
ATOM      8  C   UNL d   1     -42.352-122.013 -51.790  0.00  0.00     0.016 A 
ATOM      9  C   UNL d   1     -41.134-123.059 -51.410  0.00  0.00     0.004 A 
ATOM     10  O   UNL d   1     -43.559-121.724 -50.708  0.00  0.00    -0.287 OA
ATOM     11  O   UNL d   1     -41.123-123.817 -49.949  0.00  0.00    -0.287 OA
ATOM     12  C   UNL d   1     -41.139-122.680 -52.142  0.00  0.00     0.013 A 
ATOM     13  C   UNL d   1     -43.550-122.482 -49.243  0.00  0.00     0.003 A 
ATOM     14  C   UNL d   1     -42.332-123.529 -48.863  0.00  0.00     0.003 A 
ATOM     15  C   UNL d   1     -42.939-123.385 -48.315  0.00  0.00     0.000 A 
ATOM     16  C   UNL d   1     -43.548-122.862 -48.504  0.00  0.00     0.000 A 
ENDROOT
BRANCH   7  17
ATOM     17  S   UNL d   1     -41.755-121.770 -53.076  0.00  0.00     0.285 S 
ATOM     18  O   UNL d   1     -41.123-121.283 -52.831  0.00  0.00    -0.198 OA
ATOM     19  O   UNL d   1     -42.385-122.259 -53.315  0.00  0.00    -0.198 OA
BRANCH  17  20
ATOM     20  N   UNL d   1     -41.760-121.386 -53.813  0.00  0.00    -0.158 NA
BRANCH  20  21
ATOM     21  C   UNL d   1     -41.882-121.820 -54.506  0.00  0.00     0.094 A 
ATOM     22  C   UNL d   1     -42.627-121.812 -54.867  0.00  0.00     0.020 A 
ATOM     23  C   UNL d   1     -42.757-122.247 -55.565  0.00  0.00     0.002 A 
ATOM     24  C   UNL d   1     -42.140-122.689 -55.898  0.00  0.00     0.000 A 
ATOM     25  C   UNL d   1     -41.388-122.694 -55.529  0.00  0.00     0.002 A 
ATOM     26  C   UNL d   1     -41.268-122.260 -54.838  0.00  0.00     0.020 A 
ENDBRANCH  20  21
ENDBRANCH  17  20
ENDBRANCH   7  17
TORSDOF 3
ENDMDL
