MODEL 1
REMARK VINA RESULT:      -8.0      0.000      0.000
REMARK  6 active torsions:
REMARK  status: ('A' for Active; 'I' for Inactive)
REMARK    1  A    between atoms: C_6  and  N_3 
REMARK    2  A    between atoms: C_14  and  C_6 
REMARK    3  A    between atoms: C_7  and  O_8 
REMARK    4  A    between atoms: O_8  and  C_11 
REMARK    5  A    between atoms: C_11  and  C_15 
REMARK    6  A    between atoms: C_15  and  C_14 
ROOT
ATOM      1  C   UNL d   1      52.121  33.971  53.092  0.00  0.00     0.082 C 
ENDROOT
BRANCH   1   2
ATOM      2  N   UNL d   1      52.701  34.105  53.666  0.00  0.00    -0.287 N 
ATOM      3  C   UNL d   1      52.771  34.910  53.904  0.00  0.00     0.183 A 
ATOM      4  N   UNL d   1      53.383  34.956  54.488  0.00  0.00    -0.224 NA
ATOM      5  C   UNL d   1      53.686  34.185  54.608  0.00  0.00     0.099 A 
ATOM      6  C   UNL d   1      53.262  33.660  54.097  0.00  0.00     0.083 A 
ATOM      7  C   UNL d   1      54.279  33.895  55.103  0.00  0.00     0.021 A 
ATOM      8  C   UNL d   1      53.453  32.848  54.103  0.00  0.00     0.019 A 
ATOM      9  C   UNL d   1      54.051  32.562  54.603  0.00  0.00     0.002 A 
ATOM     10  C   UNL d   1      54.463  33.092  55.103  0.00  0.00     0.002 A 
ENDBRANCH   1   2
BRANCH   1  11
ATOM     11  C   UNL d   1      51.410  34.384  53.119  0.00  0.00     0.021 C 
BRANCH  11  12
ATOM     12  C   UNL d   1      50.804  34.191  52.614  0.00  0.00     0.028 C 
BRANCH  12  13
ATOM     13  C   UNL d   1      50.072  34.590  52.656  0.00  0.00     0.123 C 
BRANCH  13  14
ATOM     14  O   UNL d   1      49.553  34.563  52.020  0.00  0.00    -0.305 OA
BRANCH  14  15
ATOM     15  C   UNL d   1      48.853  34.998  52.042  0.00  0.00     0.100 A 
ATOM     16  C   UNL d   1      48.329  34.966  51.403  0.00  0.00     0.025 A 
ATOM     17  C   UNL d   1      47.640  35.398  51.431  0.00  0.00     0.002 A 
ATOM     18  C   UNL d   1      47.458  35.861  52.079  0.00  0.00     0.000 A 
ATOM     19  C   UNL d   1      47.984  35.893  52.721  0.00  0.00     0.002 A 
ATOM     20  C   UNL d   1      48.683  35.460  52.702  0.00  0.00     0.025 A 
ENDBRANCH  14  15
ENDBRANCH  13  14
ENDBRANCH  12  13
ENDBRANCH  11  12
ENDBRANCH   1  11
TORSDOF 6
ENDMDL
MODEL 2
REMARK VINA RESULT:      -7.7      0.671      1.323
REMARK  6 active torsions:
REMARK  status: ('A' for Active; 'I' for Inactive)
REMARK    1  A    between atoms: C_6  and  N_3 
REMARK    2  A    between atoms: C_14  and  C_6 
REMARK    3  A    between atoms: C_7  and  O_8 
REMARK    4  A    between atoms: O_8  and  C_11 
REMARK    5  A    between atoms: C_11  and  C_15 
REMARK    6  A    between atoms: C_15  and  C_14 
ROOT
ATOM      1  C   UNL d   1      51.967  34.055  52.971  0.00  0.00     0.082 C 
ENDROOT
BRANCH   1   2
ATOM      2  N   UNL d   1      52.478  33.490  53.295  0.00  0.00    -0.287 N 
ATOM      3  C   UNL d   1      52.389  32.718  52.970  0.00  0.00     0.183 A 
ATOM      4  N   UNL d   1      52.945  32.209  53.356  0.00  0.00    -0.224 NA
ATOM      5  C   UNL d   1      53.372  32.665  53.913  0.00  0.00     0.099 A 
ATOM      6  C   UNL d   1      53.080  33.458  53.873  0.00  0.00     0.083 A 
ATOM      7  C   UNL d   1      53.975  32.470  54.442  0.00  0.00     0.021 A 
ATOM      8  C   UNL d   1      53.411  34.037  54.375  0.00  0.00     0.019 A 
ATOM      9  C   UNL d   1      54.017  33.835  54.904  0.00  0.00     0.002 A 
ATOM     10  C   UNL d   1      54.297  33.047  54.934  0.00  0.00     0.002 A 
ENDBRANCH   1   2
BRANCH   1  11
ATOM     11  C   UNL d   1      51.157  33.913  52.945  0.00  0.00     0.021 C 
BRANCH  11  12
ATOM     12  C   UNL d   1      50.677  34.363  52.470  0.00  0.00     0.028 C 
BRANCH  12  13
ATOM     13  C   UNL d   1      49.938  34.635  52.748  0.00  0.00     0.123 C 
BRANCH  13  14
ATOM     14  O   UNL d   1      49.300  34.687  52.234  0.00  0.00    -0.305 OA
BRANCH  14  15
ATOM     15  C   UNL d   1      48.686  35.213  52.394  0.00  0.00     0.100 A 
ATOM     16  C   UNL d   1      48.627  35.560  53.143  0.00  0.00     0.025 A 
ATOM     17  C   UNL d   1      48.018  36.078  53.294  0.00  0.00     0.002 A 
ATOM     18  C   UNL d   1      47.467  36.261  52.720  0.00  0.00     0.000 A 
ATOM     19  C   UNL d   1      47.526  35.913  51.968  0.00  0.00     0.002 A 
ATOM     20  C   UNL d   1      48.137  35.388  51.806  0.00  0.00     0.025 A 
ENDBRANCH  14  15
ENDBRANCH  13  14
ENDBRANCH  12  13
ENDBRANCH  11  12
ENDBRANCH   1  11
TORSDOF 6
ENDMDL
MODEL 3
REMARK VINA RESULT:      -7.4      1.547      5.570
REMARK  6 active torsions:
REMARK  status: ('A' for Active; 'I' for Inactive)
REMARK    1  A    between atoms: C_6  and  N_3 
REMARK    2  A    between atoms: C_14  and  C_6 
REMARK    3  A    between atoms: C_7  and  O_8 
REMARK    4  A    between atoms: O_8  and  C_11 
REMARK    5  A    between atoms: C_11  and  C_15 
REMARK    6  A    between atoms: C_15  and  C_14 
ROOT
ATOM      1  C   UNL d   1      50.058  34.363  52.478  0.00  0.00     0.082 C 
ENDROOT
BRANCH   1   2
ATOM      2  N   UNL d   1      49.405  34.861  52.582  0.00  0.00    -0.287 N 
ATOM      3  C   UNL d   1      49.395  35.265  53.322  0.00  0.00     0.183 A 
ATOM      4  N   UNL d   1      48.699  35.748  53.344  0.00  0.00    -0.224 NA
ATOM      5  C   UNL d   1      48.285  35.640  52.624  0.00  0.00     0.099 A 
ATOM      6  C   UNL d   1      48.725  35.090  52.155  0.00  0.00     0.083 A 
ATOM      7  C   UNL d   1      47.581  35.962  52.338  0.00  0.00     0.021 A 
ATOM      8  C   UNL d   1      48.435  34.880  51.401  0.00  0.00     0.019 A 
ATOM      9  C   UNL d   1      47.727  35.207  51.119  0.00  0.00     0.002 A 
ATOM     10  C   UNL d   1      47.302  35.749  51.593  0.00  0.00     0.002 A 
ENDBRANCH   1   2
BRANCH   1  11
ATOM     11  C   UNL d   1      50.699  34.410  52.990  0.00  0.00     0.021 C 
BRANCH  11  12
ATOM     12  C   UNL d   1      51.396  34.033  52.811  0.00  0.00     0.028 C 
BRANCH  12  13
ATOM     13  C   UNL d   1      51.931  33.819  53.415  0.00  0.00     0.123 C 
BRANCH  13  14
ATOM     14  O   UNL d   1      52.731  33.739  53.245  0.00  0.00    -0.305 OA
BRANCH  14  15
ATOM     15  C   UNL d   1      53.249  33.468  53.826  0.00  0.00     0.100 A 
ATOM     16  C   UNL d   1      53.556  33.999  54.381  0.00  0.00     0.025 A 
ATOM     17  C   UNL d   1      54.067  33.725  54.952  0.00  0.00     0.002 A 
ATOM     18  C   UNL d   1      54.280  32.937  54.986  0.00  0.00     0.000 A 
ATOM     19  C   UNL d   1      53.971  32.405  54.429  0.00  0.00     0.002 A 
ATOM     20  C   UNL d   1      53.454  32.671  53.848  0.00  0.00     0.025 A 
ENDBRANCH  14  15
ENDBRANCH  13  14
ENDBRANCH  12  13
ENDBRANCH  11  12
ENDBRANCH   1  11
TORSDOF 6
ENDMDL
MODEL 4
REMARK VINA RESULT:      -6.5      1.214      1.651
REMARK  6 active torsions:
REMARK  status: ('A' for Active; 'I' for Inactive)
REMARK    1  A    between atoms: C_6  and  N_3 
REMARK    2  A    between atoms: C_14  and  C_6 
REMARK    3  A    between atoms: C_7  and  O_8 
REMARK    4  A    between atoms: O_8  and  C_11 
REMARK    5  A    between atoms: C_11  and  C_15 
REMARK    6  A    between atoms: C_15  and  C_14 
ROOT
ATOM      1  C   UNL d   1      51.512  33.040  53.348  0.00  0.00     0.082 C 
ENDROOT
BRANCH   1   2
ATOM      2  N   UNL d   1      52.289  32.761  53.405  0.00  0.00    -0.287 N 
ATOM      3  C   UNL d   1      52.858  33.360  53.573  0.00  0.00     0.183 A 
ATOM      4  N   UNL d   1      53.619  32.990  53.613  0.00  0.00    -0.224 NA
ATOM      5  C   UNL d   1      53.518  32.171  53.470  0.00  0.00     0.099 A 
ATOM      6  C   UNL d   1      52.692  32.033  53.342  0.00  0.00     0.083 A 
ATOM      7  C   UNL d   1      54.054  31.545  53.440  0.00  0.00     0.021 A 
ATOM      8  C   UNL d   1      52.432  31.256  53.185  0.00  0.00     0.019 A 
ATOM      9  C   UNL d   1      52.976  30.630  53.156  0.00  0.00     0.002 A 
ATOM     10  C   UNL d   1      53.789  30.780  53.285  0.00  0.00     0.002 A 
ENDBRANCH   1   2
BRANCH   1  11
ATOM     11  C   UNL d   1      51.348  33.722  52.919  0.00  0.00     0.021 C 
BRANCH  11  12
ATOM     12  C   UNL d   1      50.680  34.156  53.077  0.00  0.00     0.028 C 
BRANCH  12  13
ATOM     13  C   UNL d   1      50.082  34.243  52.501  0.00  0.00     0.123 C 
BRANCH  13  14
ATOM     14  O   UNL d   1      49.727  34.974  52.385  0.00  0.00    -0.305 OA
BRANCH  14  15
ATOM     15  C   UNL d   1      49.034  35.028  51.942  0.00  0.00     0.100 A 
ATOM     16  C   UNL d   1      49.026  34.762  51.159  0.00  0.00     0.025 A 
ATOM     17  C   UNL d   1      48.338  34.819  50.727  0.00  0.00     0.002 A 
ATOM     18  C   UNL d   1      47.659  35.132  51.054  0.00  0.00     0.000 A 
ATOM     19  C   UNL d   1      47.667  35.399  51.840  0.00  0.00     0.002 A 
ATOM     20  C   UNL d   1      48.356  35.346  52.284  0.00  0.00     0.025 A 
ENDBRANCH  14  15
ENDBRANCH  13  14
ENDBRANCH  12  13
ENDBRANCH  11  12
ENDBRANCH   1  11
TORSDOF 6
ENDMDL
MODEL 5
REMARK VINA RESULT:      -6.2      1.557      5.506
REMARK  6 active torsions:
REMARK  status: ('A' for Active; 'I' for Inactive)
REMARK    1  A    between atoms: C_6  and  N_3 
REMARK    2  A    between atoms: C_14  and  C_6 
REMARK    3  A    between atoms: C_7  and  O_8 
REMARK    4  A    between atoms: O_8  and  C_11 
REMARK    5  A    between atoms: C_11  and  C_15 
REMARK    6  A    between atoms: C_15  and  C_14 
ROOT
ATOM      1  C   UNL d   1      50.663  34.359  52.993  0.00  0.00     0.082 C 
ENDROOT
BRANCH   1   2
ATOM      2  N   UNL d   1      49.993  34.525  52.538  0.00  0.00    -0.287 N 
ATOM      3  C   UNL d   1      49.974  34.129  51.794  0.00  0.00     0.183 A 
ATOM      4  N   UNL d   1      49.260  34.355  51.398  0.00  0.00    -0.224 NA
ATOM      5  C   UNL d   1      48.844  34.885  51.894  0.00  0.00     0.099 A 
ATOM      6  C   UNL d   1      49.301  34.989  52.599  0.00  0.00     0.083 A 
ATOM      7  C   UNL d   1      48.126  35.281  51.802  0.00  0.00     0.021 A 
ATOM      8  C   UNL d   1      49.013  35.495  53.197  0.00  0.00     0.019 A 
ATOM      9  C   UNL d   1      48.290  35.890  53.098  0.00  0.00     0.002 A 
ATOM     10  C   UNL d   1      47.849  35.779  52.396  0.00  0.00     0.002 A 
ENDBRANCH   1   2
BRANCH   1  11
ATOM     11  C   UNL d   1      51.308  33.976  52.654  0.00  0.00     0.021 C 
BRANCH  11  12
ATOM     12  C   UNL d   1      51.707  33.401  53.066  0.00  0.00     0.028 C 
BRANCH  12  13
ATOM     13  C   UNL d   1      52.404  33.585  53.487  0.00  0.00     0.123 C 
BRANCH  13  14
ATOM     14  O   UNL d   1      52.898  32.983  53.747  0.00  0.00    -0.305 OA
BRANCH  14  15
ATOM     15  C   UNL d   1      53.576  33.165  54.179  0.00  0.00     0.100 A 
ATOM     16  C   UNL d   1      54.294  32.801  53.989  0.00  0.00     0.025 A 
ATOM     17  C   UNL d   1      54.959  32.986  54.420  0.00  0.00     0.002 A 
ATOM     18  C   UNL d   1      54.929  33.523  55.035  0.00  0.00     0.000 A 
ATOM     19  C   UNL d   1      54.208  33.888  55.225  0.00  0.00     0.002 A 
ATOM     20  C   UNL d   1      53.531  33.708  54.796  0.00  0.00     0.025 A 
ENDBRANCH  14  15
ENDBRANCH  13  14
ENDBRANCH  12  13
ENDBRANCH  11  12
ENDBRANCH   1  11
TORSDOF 6
ENDMDL
MODEL 6
REMARK VINA RESULT:      -6.0      2.896      5.332
REMARK  6 active torsions:
REMARK  status: ('A' for Active; 'I' for Inactive)
REMARK    1  A    between atoms: C_6  and  N_3 
REMARK    2  A    between atoms: C_14  and  C_6 
REMARK    3  A    between atoms: C_7  and  O_8 
REMARK    4  A    between atoms: O_8  and  C_11 
REMARK    5  A    between atoms: C_11  and  C_15 
REMARK    6  A    between atoms: C_15  and  C_14 
ROOT
ATOM      1  C   UNL d   1      52.932  32.746  52.732  0.00  0.00     0.082 C 
ENDROOT
BRANCH   1   2
ATOM      2  N   UNL d   1      52.668  33.477  53.017  0.00  0.00    -0.287 N 
ATOM      3  C   UNL d   1      51.972  33.764  52.637  0.00  0.00     0.183 A 
ATOM      4  N   UNL d   1      51.775  34.510  52.986  0.00  0.00    -0.224 NA
ATOM      5  C   UNL d   1      52.345  34.679  53.576  0.00  0.00     0.099 A 
ATOM      6  C   UNL d   1      52.896  34.037  53.592  0.00  0.00     0.083 A 
ATOM      7  C   UNL d   1      52.434  35.318  54.090  0.00  0.00     0.021 A 
ATOM      8  C   UNL d   1      53.529  34.062  54.135  0.00  0.00     0.019 A 
ATOM      9  C   UNL d   1      53.614  34.708  54.650  0.00  0.00     0.002 A 
ATOM     10  C   UNL d   1      53.062  35.336  54.623  0.00  0.00     0.002 A 
ENDBRANCH   1   2
BRANCH   1  11
ATOM     11  C   UNL d   1      52.520  32.058  52.917  0.00  0.00     0.021 C 
BRANCH  11  12
ATOM     12  C   UNL d   1      52.849  31.331  52.767  0.00  0.00     0.028 C 
BRANCH  12  13
ATOM     13  C   UNL d   1      52.775  30.709  53.318  0.00  0.00     0.123 C 
BRANCH  13  14
ATOM     14  O   UNL d   1      53.377  30.156  53.396  0.00  0.00    -0.305 OA
BRANCH  14  15
ATOM     15  C   UNL d   1      53.364  29.620  54.023  0.00  0.00     0.100 A 
ATOM     16  C   UNL d   1      53.188  29.887  54.786  0.00  0.00     0.025 A 
ATOM     17  C   UNL d   1      53.177  29.353  55.400  0.00  0.00     0.002 A 
ATOM     18  C   UNL d   1      53.337  28.562  55.276  0.00  0.00     0.000 A 
ATOM     19  C   UNL d   1      53.514  28.295  54.510  0.00  0.00     0.002 A 
ATOM     20  C   UNL d   1      53.528  28.826  53.883  0.00  0.00     0.025 A 
ENDBRANCH  14  15
ENDBRANCH  13  14
ENDBRANCH  12  13
ENDBRANCH  11  12
ENDBRANCH   1  11
TORSDOF 6
ENDMDL
MODEL 7
REMARK VINA RESULT:      -5.5      2.446      3.420
REMARK  6 active torsions:
REMARK  status: ('A' for Active; 'I' for Inactive)
REMARK    1  A    between atoms: C_6  and  N_3 
REMARK    2  A    between atoms: C_14  and  C_6 
REMARK    3  A    between atoms: C_7  and  O_8 
REMARK    4  A    between atoms: O_8  and  C_11 
REMARK    5  A    between atoms: C_11  and  C_15 
REMARK    6  A    between atoms: C_15  and  C_14 
ROOT
ATOM      1  C   UNL d   1      53.212  31.663  53.667  0.00  0.00     0.082 C 
ENDROOT
BRANCH   1   2
ATOM      2  N   UNL d   1      53.210  30.837  53.622  0.00  0.00    -0.287 N 
ATOM      3  C   UNL d   1      53.140  30.535  52.838  0.00  0.00     0.183 A 
ATOM      4  N   UNL d   1      53.146  29.689  52.884  0.00  0.00    -0.224 NA
ATOM      5  C   UNL d   1      53.219  29.474  53.690  0.00  0.00     0.099 A 
ATOM      6  C   UNL d   1      53.258  30.187  54.144  0.00  0.00     0.083 A 
ATOM      7  C   UNL d   1      53.254  28.739  54.064  0.00  0.00     0.021 A 
ATOM      8  C   UNL d   1      53.333  30.134  54.973  0.00  0.00     0.019 A 
ATOM      9  C   UNL d   1      53.368  29.393  55.344  0.00  0.00     0.002 A 
ATOM     10  C   UNL d   1      53.328  28.695  54.883  0.00  0.00     0.002 A 
ENDBRANCH   1   2
BRANCH   1  11
ATOM     11  C   UNL d   1      52.987  32.113  53.017  0.00  0.00     0.021 C 
BRANCH  11  12
ATOM     12  C   UNL d   1      52.758  32.887  53.113  0.00  0.00     0.028 C 
BRANCH  12  13
ATOM     13  C   UNL d   1      52.062  33.172  52.751  0.00  0.00     0.123 C 
BRANCH  13  14
ATOM     14  O   UNL d   1      51.833  33.953  52.861  0.00  0.00    -0.305 OA
BRANCH  14  15
ATOM     15  C   UNL d   1      51.080  34.196  52.630  0.00  0.00     0.100 A 
ATOM     16  C   UNL d   1      50.871  34.176  51.829  0.00  0.00     0.025 A 
ATOM     17  C   UNL d   1      50.126  34.418  51.607  0.00  0.00     0.002 A 
ATOM     18  C   UNL d   1      49.584  34.679  52.160  0.00  0.00     0.000 A 
ATOM     19  C   UNL d   1      49.795  34.699  52.963  0.00  0.00     0.002 A 
ATOM     20  C   UNL d   1      50.544  34.457  53.197  0.00  0.00     0.025 A 
ENDBRANCH  14  15
ENDBRANCH  13  14
ENDBRANCH  12  13
ENDBRANCH  11  12
ENDBRANCH   1  11
TORSDOF 6
ENDMDL
