MODEL 1
REMARK VINA RESULT:      71.4      0.000      0.000
REMARK  10 active torsions:
REMARK  status: ('A' for Active; 'I' for Inactive)
REMARK    1  A    between atoms: N_9  and  C_1 
REMARK    2  A    between atoms: C_4  and  S_21 
REMARK    3  A    between atoms: C_23  and  C_8 
REMARK       I    between atoms: C_19  and  N_9 
REMARK    4  A    between atoms: O_26  and  C_10 
REMARK    5  A    between atoms: C_11  and  C_12 
REMARK       I    between atoms: C_12  and  N_20 
REMARK    6  A    between atoms: O_27  and  C_13 
REMARK    7  A    between atoms: O_28  and  C_14 
REMARK    8  A    between atoms: C_25  and  C_19 
REMARK    9  A    between atoms: N_20  and  C_23 
REMARK   10  A    between atoms: S_21  and  C_25 
ROOT
ATOM      1  O   UNL d   1     -54.961-101.808 -41.784  0.00  0.00    -0.262 OA
ATOM      2  C   UNL d   1     -54.884-101.062 -42.141  0.00  0.00     0.236 A 
ATOM      3  N   UNL d   1     -54.824-100.504 -41.545  0.00  0.00    -0.114 NA
ATOM      4  N   UNL d   1     -54.862-100.898 -40.822  0.00  0.00    -0.119 NA
ATOM      5  C   UNL d   1     -54.947-101.700 -40.969  0.00  0.00     0.224 A 
ENDROOT
BRANCH   5   6
ATOM      6  C   UNL d   1     -55.007-102.293 -40.400  0.00  0.00     0.149 C 
BRANCH   6   7
ATOM      7  N   UNL d   1     -54.884-102.122 -39.605  0.00  0.00    -0.203 NA
ATOM      8  C   UNL d   1     -55.528-101.953 -39.114  0.00  0.00     0.279 C 
ATOM      9  O   UNL d   1     -56.292-101.954 -39.416  0.00  0.00    -0.265 OA
BRANCH   8  10
ATOM     10  C   UNL d   1     -55.398-101.781 -38.315  0.00  0.00     0.062 A 
ATOM     11  C   UNL d   1     -55.372-100.990 -38.064  0.00  0.00     0.031 A 
ATOM     12  C   UNL d   1     -55.244-100.833 -37.274  0.00  0.00     0.118 A 
ATOM     13  C   UNL d   1     -55.142-101.429 -36.733  0.00  0.00     0.138 A 
ATOM     14  C   UNL d   1     -55.170-102.222 -36.996  0.00  0.00     0.118 A 
ATOM     15  C   UNL d   1     -55.299-102.381 -37.791  0.00  0.00     0.031 A 
BRANCH  12  16
ATOM     16  O   UNL d   1     -55.215-100.045 -37.009  0.00  0.00    -0.326 OA
ATOM     17  C   UNL d   1     -54.736 -99.852 -36.359  0.00  0.00     0.181 C 
ENDBRANCH  12  16
BRANCH  13  18
ATOM     18  O   UNL d   1     -55.013-101.274 -35.940  0.00  0.00    -0.324 OA
ATOM     19  C   UNL d   1     -55.089-100.497 -35.648  0.00  0.00     0.182 C 
ENDBRANCH  13  18
BRANCH  14  20
ATOM     20  O   UNL d   1     -55.066-102.839 -36.449  0.00  0.00    -0.326 OA
ATOM     21  C   UNL d   1     -54.719-102.700 -35.722  0.00  0.00     0.181 C 
ENDBRANCH  14  20
ENDBRANCH   8  10
ENDBRANCH   6   7
ENDBRANCH   5   6
BRANCH   2  22
ATOM     22  S   UNL d   1     -54.872-100.917 -42.953  0.00  0.00    -0.036 SA
BRANCH  22  23
ATOM     23  C   UNL d   1     -54.937-100.154 -43.236  0.00  0.00     0.101 C 
BRANCH  23  24
ATOM     24  C   UNL d   1     -55.694 -99.823 -43.388  0.00  0.00     0.288 C 
ATOM     25  N   UNL d   1     -56.154-100.122 -44.004  0.00  0.00    -0.182 NA
ATOM     26  O   UNL d   1     -55.972 -99.207 -42.927  0.00  0.00    -0.265 OA
BRANCH  25  27
ATOM     27  C   UNL d   1     -56.904 -99.801 -44.162  0.00  0.00     0.197 A 
ATOM     28  N   UNL d   1     -57.198 -99.619 -44.918  0.00  0.00    -0.221 NA
ATOM     29  C   UNL d   1     -57.959 -99.313 -44.825  0.00  0.00     0.090 A 
ATOM     30  C   UNL d   1     -58.512 -99.043 -45.361  0.00  0.00     0.020 A 
ATOM     31  C   UNL d   1     -58.135 -99.307 -44.007  0.00  0.00     0.050 A 
ATOM     32  C   UNL d   1     -59.249 -98.760 -45.107  0.00  0.00     0.002 A 
ATOM     33  C   UNL d   1     -59.419 -98.756 -44.294  0.00  0.00     0.001 A 
ATOM     34  C   UNL d   1     -58.865 -99.027 -43.756  0.00  0.00     0.008 A 
ATOM     35  S   UNL d   1     -57.481 -99.609 -43.598  0.00  0.00    -0.047 SA
ENDBRANCH  25  27
ENDBRANCH  23  24
ENDBRANCH  22  23
ENDBRANCH   2  22
TORSDOF 10
ENDMDL
