MODEL 1
REMARK VINA RESULT:      84.9      0.000      0.000
REMARK  9 active torsions:
REMARK  status: ('A' for Active; 'I' for Inactive)
REMARK    1  A    between atoms: C_14  and  N_1 
REMARK    2  A    between atoms: C_8  and  C_2 
REMARK    3  A    between atoms: C_3  and  N_11 
REMARK    4  A    between atoms: S_16  and  C_4 
REMARK    5  A    between atoms: C_10  and  C_8 
REMARK       I    between atoms: N_11  and  C_17 
REMARK    6  A    between atoms: C_23  and  C_14 
REMARK    7  A    between atoms: C_22  and  S_16 
REMARK    8  A    between atoms: C_17  and  C_22 
REMARK    9  A    between atoms: C_25  and  C_23 
ROOT
ATOM      1  N   UNL d   1     -51.076  26.265  34.531  0.00  0.00    -0.268 N 
ATOM      2  C   UNL d   1     -51.370  25.752  33.954  0.00  0.00     0.172 A 
ATOM      3  C   UNL d   1     -50.390  26.616  34.238  0.00  0.00     0.201 A 
ATOM      4  N   UNL d   1     -50.868  25.785  33.306  0.00  0.00    -0.128 NA
ATOM      5  N   UNL d   1     -50.260  26.316  33.474  0.00  0.00    -0.121 NA
ENDROOT
BRANCH   3   6
ATOM      6  S   UNL d   1     -49.918  27.162  34.627  0.00  0.00    -0.043 SA
BRANCH   6   7
ATOM      7  C   UNL d   1     -49.165  27.339  34.341  0.00  0.00     0.101 C 
BRANCH   7   8
ATOM      8  C   UNL d   1     -48.832  28.081  34.487  0.00  0.00     0.288 C 
ATOM      9  N   UNL d   1     -48.376  28.197  35.158  0.00  0.00    -0.182 NA
ATOM     10  O   UNL d   1     -48.959  28.701  33.958  0.00  0.00    -0.265 OA
BRANCH   9  11
ATOM     11  C   UNL d   1     -48.044  28.931  35.307  0.00  0.00     0.197 A 
ATOM     12  N   UNL d   1     -47.666  29.163  36.007  0.00  0.00    -0.221 NA
ATOM     13  C   UNL d   1     -47.417  29.940  35.917  0.00  0.00     0.090 A 
ATOM     14  C   UNL d   1     -47.020  30.450  36.418  0.00  0.00     0.020 A 
ATOM     15  C   UNL d   1     -47.637  30.199  35.164  0.00  0.00     0.050 A 
ATOM     16  C   UNL d   1     -46.838  31.217  36.177  0.00  0.00     0.002 A 
ATOM     17  C   UNL d   1     -47.061  31.470  35.421  0.00  0.00     0.001 A 
ATOM     18  C   UNL d   1     -47.455  30.966  34.922  0.00  0.00     0.008 A 
ATOM     19  S   UNL d   1     -48.027  29.580  34.775  0.00  0.00    -0.047 SA
ENDBRANCH   9  11
ENDBRANCH   7   8
ENDBRANCH   6   7
ENDBRANCH   3   6
BRANCH   1  20
ATOM     20  C   UNL d   1     -51.412  26.402  35.272  0.00  0.00     0.084 C 
BRANCH  20  21
ATOM     21  C   UNL d   1     -51.033  26.117  35.958  0.00  0.00     0.019 C 
BRANCH  21  22
ATOM     22  C   UNL d   1     -51.335  26.302  36.708  0.00  0.00     0.002 A 
ATOM     23  C   UNL d   1     -50.980  26.892  37.151  0.00  0.00     0.000 A 
ATOM     24  C   UNL d   1     -51.285  27.073  37.896  0.00  0.00     0.000 A 
ATOM     25  C   UNL d   1     -51.942  26.660  38.187  0.00  0.00     0.000 A 
ATOM     26  C   UNL d   1     -52.295  26.065  37.733  0.00  0.00     0.000 A 
ATOM     27  C   UNL d   1     -51.983  25.892  36.989  0.00  0.00     0.000 A 
ENDBRANCH  21  22
ENDBRANCH  20  21
ENDBRANCH   1  20
BRANCH   2  28
ATOM     28  C   UNL d   1     -52.051  25.286  34.018  0.00  0.00     0.057 C 
BRANCH  28  29
ATOM     29  C   UNL d   1     -52.043  24.505  33.763  0.00  0.00     0.067 A 
ATOM     30  N   UNL d   1     -52.694  23.998  33.714  0.00  0.00    -0.303 N 
ATOM     31  C   UNL d   1     -52.430  23.268  33.432  0.00  0.00     0.080 A 
ATOM     32  C   UNL d   1     -53.469  24.193  33.913  0.00  0.00     0.100 C 
ATOM     33  C   UNL d   1     -51.620  23.317  33.306  0.00  0.00     0.021 A 
ATOM     34  C   UNL d   1     -51.376  24.078  33.509  0.00  0.00     0.019 A 
ENDBRANCH  28  29
ENDBRANCH   2  28
TORSDOF 9
ENDMDL
