MODEL 1
REMARK VINA RESULT:      -5.8      0.000      0.000
REMARK  5 active torsions:
REMARK  status: ('A' for Active; 'I' for Inactive)
REMARK    1  A    between atoms: S_6  and  C_3 
REMARK    2  A    between atoms: C_10  and  C_4 
REMARK    3  A    between atoms: C_5  and  C_7 
REMARK    4  A    between atoms: C_9  and  C_5 
REMARK    5  A    between atoms: C_7  and  S_6 
ROOT
ATOM      1  N   UNL d   1     -46.494  10.736  23.647  0.00  0.00    -0.148 NA
ATOM      2  N   UNL d   1     -47.291  10.950  23.691  0.00  0.00    -0.141 NA
ATOM      3  C   UNL d   1     -47.529  11.714  23.492  0.00  0.00     0.133 A 
ATOM      4  C   UNL d   1     -45.933  11.294  23.402  0.00  0.00     0.103 A 
ATOM      5  C   UNL d   1     -46.162  12.056  23.203  0.00  0.00     0.023 A 
ATOM      6  C   UNL d   1     -46.955  12.273  23.245  0.00  0.00     0.029 A 
ENDROOT
BRANCH   3   7
ATOM      7  S   UNL d   1     -48.319  11.923  23.537  0.00  0.00    -0.062 SA
BRANCH   7   8
ATOM      8  C   UNL d   1     -48.733  12.125  22.853  0.00  0.00     0.079 C 
BRANCH   8   9
ATOM      9  C   UNL d   1     -49.568  12.063  22.833  0.00  0.00     0.202 C 
ATOM     10  O   UNL d   1     -49.940  11.468  23.246  0.00  0.00    -0.286 OA
BRANCH   9  11
ATOM     11  C   UNL d   1     -50.003  12.603  22.396  0.00  0.00     0.040 A 
ATOM     12  C   UNL d   1     -50.514  13.126  22.778  0.00  0.00     0.003 A 
ATOM     13  C   UNL d   1     -50.955  13.672  22.349  0.00  0.00     0.000 A 
ATOM     14  C   UNL d   1     -50.879  13.691  21.518  0.00  0.00     0.000 A 
ATOM     15  C   UNL d   1     -50.367  13.167  21.136  0.00  0.00     0.000 A 
ATOM     16  C   UNL d   1     -49.933  12.627  21.582  0.00  0.00     0.003 A 
ENDBRANCH   9  11
ENDBRANCH   8   9
ENDBRANCH   7   8
ENDBRANCH   3   7
BRANCH   4  17
ATOM     17  C   UNL d   1     -45.135  11.080  23.358  0.00  0.00     0.019 A 
ATOM     18  C   UNL d   1     -44.875  10.366  23.697  0.00  0.00     0.002 A 
ATOM     19  C   UNL d   1     -44.074  10.150  23.653  0.00  0.00     0.000 A 
ATOM     20  C   UNL d   1     -43.528  10.648  23.269  0.00  0.00     0.000 A 
ATOM     21  C   UNL d   1     -43.784  11.350  22.935  0.00  0.00     0.000 A 
ATOM     22  C   UNL d   1     -44.583  11.576  22.973  0.00  0.00     0.002 A 
ENDBRANCH   4  17
TORSDOF 5
ENDMDL
MODEL 2
REMARK VINA RESULT:      -5.8      2.116      5.522
REMARK  5 active torsions:
REMARK  status: ('A' for Active; 'I' for Inactive)
REMARK    1  A    between atoms: S_6  and  C_3 
REMARK    2  A    between atoms: C_10  and  C_4 
REMARK    3  A    between atoms: C_5  and  C_7 
REMARK    4  A    between atoms: C_9  and  C_5 
REMARK    5  A    between atoms: C_7  and  S_6 
ROOT
ATOM      1  N   UNL d   1     -47.762  13.461  21.964  0.00  0.00    -0.148 NA
ATOM      2  N   UNL d   1     -46.992  13.168  21.892  0.00  0.00    -0.141 NA
ATOM      3  C   UNL d   1     -46.410  13.388  22.432  0.00  0.00     0.133 A 
ATOM      4  C   UNL d   1     -47.946  13.979  22.584  0.00  0.00     0.103 A 
ATOM      5  C   UNL d   1     -47.371  14.202  23.126  0.00  0.00     0.023 A 
ATOM      6  C   UNL d   1     -46.604  13.912  23.057  0.00  0.00     0.029 A 
ENDROOT
BRANCH   3   7
ATOM      7  S   UNL d   1     -45.649  13.096  22.357  0.00  0.00    -0.062 SA
BRANCH   7   8
ATOM      8  C   UNL d   1     -45.453  12.365  22.686  0.00  0.00     0.079 C 
BRANCH   8   9
ATOM      9  C   UNL d   1     -44.687  12.047  22.575  0.00  0.00     0.202 C 
ATOM     10  O   UNL d   1     -44.151  12.434  22.098  0.00  0.00    -0.286 OA
BRANCH   9  11
ATOM     11  C   UNL d   1     -44.482  11.346  22.948  0.00  0.00     0.040 A 
ATOM     12  C   UNL d   1     -43.697  11.094  22.950  0.00  0.00     0.003 A 
ATOM     13  C   UNL d   1     -43.481  10.392  23.321  0.00  0.00     0.000 A 
ATOM     14  C   UNL d   1     -44.070   9.936  23.698  0.00  0.00     0.000 A 
ATOM     15  C   UNL d   1     -44.856  10.188  23.696  0.00  0.00     0.000 A 
ATOM     16  C   UNL d   1     -45.053  10.893  23.319  0.00  0.00     0.003 A 
ENDBRANCH   9  11
ENDBRANCH   8   9
ENDBRANCH   7   8
ENDBRANCH   3   7
BRANCH   4  17
ATOM     17  C   UNL d   1     -48.716  14.273  22.657  0.00  0.00     0.019 A 
ATOM     18  C   UNL d   1     -49.336  13.766  22.885  0.00  0.00     0.002 A 
ATOM     19  C   UNL d   1     -50.110  14.061  22.958  0.00  0.00     0.000 A 
ATOM     20  C   UNL d   1     -50.267  14.864  22.803  0.00  0.00     0.000 A 
ATOM     21  C   UNL d   1     -49.657  15.361  22.578  0.00  0.00     0.000 A 
ATOM     22  C   UNL d   1     -48.880  15.077  22.502  0.00  0.00     0.002 A 
ENDBRANCH   4  17
TORSDOF 5
ENDMDL
MODEL 3
REMARK VINA RESULT:      -5.7      1.787      2.220
REMARK  5 active torsions:
REMARK  status: ('A' for Active; 'I' for Inactive)
REMARK    1  A    between atoms: S_6  and  C_3 
REMARK    2  A    between atoms: C_10  and  C_4 
REMARK    3  A    between atoms: C_5  and  C_7 
REMARK    4  A    between atoms: C_9  and  C_5 
REMARK    5  A    between atoms: C_7  and  S_6 
ROOT
ATOM      1  N   UNL d   1     -45.586  13.399  23.124  0.00  0.00    -0.148 NA
ATOM      2  N   UNL d   1     -46.339  13.684  23.310  0.00  0.00    -0.141 NA
ATOM      3  C   UNL d   1     -46.945  13.657  22.751  0.00  0.00     0.133 A 
ATOM      4  C   UNL d   1     -45.442  13.085  22.371  0.00  0.00     0.103 A 
ATOM      5  C   UNL d   1     -46.041  13.055  21.810  0.00  0.00     0.023 A 
ATOM      6  C   UNL d   1     -46.792  13.338  21.992  0.00  0.00     0.029 A 
ENDROOT
BRANCH   3   7
ATOM      7  S   UNL d   1     -47.690  13.941  22.940  0.00  0.00    -0.062 SA
BRANCH   7   8
ATOM      8  C   UNL d   1     -48.299  13.414  23.120  0.00  0.00     0.079 C 
BRANCH   8   9
ATOM      9  C   UNL d   1     -49.083  13.695  23.214  0.00  0.00     0.202 C 
ATOM     10  O   UNL d   1     -49.224  14.496  23.261  0.00  0.00    -0.286 OA
BRANCH   9  11
ATOM     11  C   UNL d   1     -49.702  13.159  23.258  0.00  0.00     0.040 A 
ATOM     12  C   UNL d   1     -49.587  12.425  23.615  0.00  0.00     0.003 A 
ATOM     13  C   UNL d   1     -50.202  11.880  23.664  0.00  0.00     0.000 A 
ATOM     14  C   UNL d   1     -50.947  12.082  23.346  0.00  0.00     0.000 A 
ATOM     15  C   UNL d   1     -51.061  12.816  22.989  0.00  0.00     0.000 A 
ATOM     16  C   UNL d   1     -50.435  13.349  22.948  0.00  0.00     0.003 A 
ENDBRANCH   9  11
ENDBRANCH   8   9
ENDBRANCH   7   8
ENDBRANCH   3   7
BRANCH   4  17
ATOM     17  C   UNL d   1     -44.689  12.799  22.184  0.00  0.00     0.019 A 
ATOM     18  C   UNL d   1     -44.220  13.195  21.622  0.00  0.00     0.002 A 
ATOM     19  C   UNL d   1     -43.463  12.908  21.434  0.00  0.00     0.000 A 
ATOM     20  C   UNL d   1     -43.171  12.224  21.808  0.00  0.00     0.000 A 
ATOM     21  C   UNL d   1     -43.632  11.835  22.361  0.00  0.00     0.000 A 
ATOM     22  C   UNL d   1     -44.391  12.113  22.556  0.00  0.00     0.002 A 
ENDBRANCH   4  17
TORSDOF 5
ENDMDL
MODEL 4
REMARK VINA RESULT:      -5.5      8.595      9.731
REMARK  5 active torsions:
REMARK  status: ('A' for Active; 'I' for Inactive)
REMARK    1  A    between atoms: S_6  and  C_3 
REMARK    2  A    between atoms: C_10  and  C_4 
REMARK    3  A    between atoms: C_5  and  C_7 
REMARK    4  A    between atoms: C_9  and  C_5 
REMARK    5  A    between atoms: C_7  and  S_6 
ROOT
ATOM      1  N   UNL d   1     -39.015  14.045  20.762  0.00  0.00    -0.148 NA
ATOM      2  N   UNL d   1     -39.313  14.057  19.991  0.00  0.00    -0.141 NA
ATOM      3  C   UNL d   1     -40.034  14.423  19.828  0.00  0.00     0.133 A 
ATOM      4  C   UNL d   1     -39.445  14.404  21.373  0.00  0.00     0.103 A 
ATOM      5  C   UNL d   1     -40.163  14.771  21.218  0.00  0.00     0.023 A 
ATOM      6  C   UNL d   1     -40.463  14.784  20.451  0.00  0.00     0.029 A 
ENDROOT
BRANCH   3   7
ATOM      7  S   UNL d   1     -40.326  14.432  19.063  0.00  0.00    -0.062 SA
BRANCH   7   8
ATOM      8  C   UNL d   1     -39.832  14.635  18.435  0.00  0.00     0.079 C 
BRANCH   8   9
ATOM      9  C   UNL d   1     -40.130  14.646  17.653  0.00  0.00     0.202 C 
ATOM     10  O   UNL d   1     -40.900  14.421  17.509  0.00  0.00    -0.286 OA
BRANCH   9  11
ATOM     11  C   UNL d   1     -39.642  14.882  17.037  0.00  0.00     0.040 A 
ATOM     12  C   UNL d   1     -39.623  15.673  16.807  0.00  0.00     0.003 A 
ATOM     13  C   UNL d   1     -39.137  15.921  16.191  0.00  0.00     0.000 A 
ATOM     14  C   UNL d   1     -38.662  15.357  15.799  0.00  0.00     0.000 A 
ATOM     15  C   UNL d   1     -38.681  14.565  16.029  0.00  0.00     0.000 A 
ATOM     16  C   UNL d   1     -39.174  14.335  16.649  0.00  0.00     0.003 A 
ENDBRANCH   9  11
ENDBRANCH   8   9
ENDBRANCH   7   8
ENDBRANCH   3   7
BRANCH   4  17
ATOM     17  C   UNL d   1     -39.147  14.393  22.144  0.00  0.00     0.019 A 
ATOM     18  C   UNL d   1     -38.964  15.107  22.532  0.00  0.00     0.002 A 
ATOM     19  C   UNL d   1     -38.665  15.095  23.307  0.00  0.00     0.000 A 
ATOM     20  C   UNL d   1     -38.547  14.370  23.698  0.00  0.00     0.000 A 
ATOM     21  C   UNL d   1     -38.727  13.668  23.317  0.00  0.00     0.000 A 
ATOM     22  C   UNL d   1     -39.027  13.668  22.542  0.00  0.00     0.002 A 
ENDBRANCH   4  17
TORSDOF 5
ENDMDL
MODEL 5
REMARK VINA RESULT:      -5.1      1.812      5.471
REMARK  5 active torsions:
REMARK  status: ('A' for Active; 'I' for Inactive)
REMARK    1  A    between atoms: S_6  and  C_3 
REMARK    2  A    between atoms: C_10  and  C_4 
REMARK    3  A    between atoms: C_5  and  C_7 
REMARK    4  A    between atoms: C_9  and  C_5 
REMARK    5  A    between atoms: C_7  and  S_6 
ROOT
ATOM      1  N   UNL d   1     -48.233  14.125  22.946  0.00  0.00    -0.148 NA
ATOM      2  N   UNL d   1     -47.527  13.721  23.100  0.00  0.00    -0.141 NA
ATOM      3  C   UNL d   1     -47.525  12.900  23.171  0.00  0.00     0.133 A 
ATOM      4  C   UNL d   1     -48.939  13.700  22.864  0.00  0.00     0.103 A 
ATOM      5  C   UNL d   1     -48.943  12.882  22.934  0.00  0.00     0.023 A 
ATOM      6  C   UNL d   1     -48.243  12.476  23.086  0.00  0.00     0.029 A 
ENDROOT
BRANCH   3   7
ATOM      7  S   UNL d   1     -46.825  12.503  23.323  0.00  0.00    -0.062 SA
BRANCH   7   8
ATOM      8  C   UNL d   1     -46.153  12.665  22.873  0.00  0.00     0.079 C 
BRANCH   8   9
ATOM      9  C   UNL d   1     -45.455  12.215  22.983  0.00  0.00     0.202 C 
ATOM     10  O   UNL d   1     -45.425  11.651  23.571  0.00  0.00    -0.286 OA
BRANCH   9  11
ATOM     11  C   UNL d   1     -44.808  12.346  22.498  0.00  0.00     0.040 A 
ATOM     12  C   UNL d   1     -44.138  11.871  22.567  0.00  0.00     0.003 A 
ATOM     13  C   UNL d   1     -43.482  11.995  22.085  0.00  0.00     0.000 A 
ATOM     14  C   UNL d   1     -43.505  12.610  21.521  0.00  0.00     0.000 A 
ATOM     15  C   UNL d   1     -44.177  13.086  21.452  0.00  0.00     0.000 A 
ATOM     16  C   UNL d   1     -44.823  12.947  21.943  0.00  0.00     0.003 A 
ENDBRANCH   9  11
ENDBRANCH   8   9
ENDBRANCH   7   8
ENDBRANCH   3   7
BRANCH   4  17
ATOM     17  C   UNL d   1     -49.644  14.104  22.710  0.00  0.00     0.019 A 
ATOM     18  C   UNL d   1     -49.962  14.619  23.281  0.00  0.00     0.002 A 
ATOM     19  C   UNL d   1     -50.671  15.025  23.127  0.00  0.00     0.000 A 
ATOM     20  C   UNL d   1     -51.064  14.917  22.401  0.00  0.00     0.000 A 
ATOM     21  C   UNL d   1     -50.751  14.410  21.840  0.00  0.00     0.000 A 
ATOM     22  C   UNL d   1     -50.043  13.999  21.984  0.00  0.00     0.002 A 
ENDBRANCH   4  17
TORSDOF 5
ENDMDL
MODEL 6
REMARK VINA RESULT:      -3.7      4.076      6.737
REMARK  5 active torsions:
REMARK  status: ('A' for Active; 'I' for Inactive)
REMARK    1  A    between atoms: S_6  and  C_3 
REMARK    2  A    between atoms: C_10  and  C_4 
REMARK    3  A    between atoms: C_5  and  C_7 
REMARK    4  A    between atoms: C_9  and  C_5 
REMARK    5  A    between atoms: C_7  and  S_6 
ROOT
ATOM      1  N   UNL d   1     -44.731  13.589  21.922  0.00  0.00    -0.148 NA
ATOM      2  N   UNL d   1     -44.012  13.659  21.519  0.00  0.00    -0.141 NA
ATOM      3  C   UNL d   1     -43.491  13.021  21.483  0.00  0.00     0.133 A 
ATOM      4  C   UNL d   1     -44.926  12.873  22.290  0.00  0.00     0.103 A 
ATOM      5  C   UNL d   1     -44.411  12.234  22.257  0.00  0.00     0.023 A 
ATOM      6  C   UNL d   1     -43.695  12.300  21.857  0.00  0.00     0.029 A 
ENDROOT
BRANCH   3   7
ATOM      7  S   UNL d   1     -42.780  13.095  21.083  0.00  0.00    -0.062 SA
BRANCH   7   8
ATOM      8  C   UNL d   1     -42.289  13.741  21.228  0.00  0.00     0.079 C 
BRANCH   8   9
ATOM      9  C   UNL d   1     -41.621  13.879  20.743  0.00  0.00     0.202 C 
ATOM     10  O   UNL d   1     -41.524  13.452  20.055  0.00  0.00    -0.286 OA
BRANCH   9  11
ATOM     11  C   UNL d   1     -41.069  14.443  20.965  0.00  0.00     0.040 A 
ATOM     12  C   UNL d   1     -41.226  15.243  20.846  0.00  0.00     0.003 A 
ATOM     13  C   UNL d   1     -40.678  15.817  21.065  0.00  0.00     0.000 A 
ATOM     14  C   UNL d   1     -39.958  15.577  21.412  0.00  0.00     0.000 A 
ATOM     15  C   UNL d   1     -39.801  14.775  21.531  0.00  0.00     0.000 A 
ATOM     16  C   UNL d   1     -40.360  14.215  21.305  0.00  0.00     0.003 A 
ENDBRANCH   9  11
ENDBRANCH   8   9
ENDBRANCH   7   8
ENDBRANCH   3   7
BRANCH   4  17
ATOM     17  C   UNL d   1     -45.644  12.802  22.693  0.00  0.00     0.019 A 
ATOM     18  C   UNL d   1     -45.830  12.098  23.095  0.00  0.00     0.002 A 
ATOM     19  C   UNL d   1     -46.552  12.027  23.500  0.00  0.00     0.000 A 
ATOM     20  C   UNL d   1     -47.092  12.660  23.504  0.00  0.00     0.000 A 
ATOM     21  C   UNL d   1     -46.910  13.353  23.108  0.00  0.00     0.000 A 
ATOM     22  C   UNL d   1     -46.191  13.435  22.700  0.00  0.00     0.002 A 
ENDBRANCH   4  17
TORSDOF 5
ENDMDL
