MODEL 1
REMARK VINA RESULT:      -4.2      0.000      0.000
REMARK  1 active torsions:
REMARK  status: ('A' for Active; 'I' for Inactive)
REMARK    1  A    between atoms: C_2  and  C_1 
ROOT
ATOM      1  C   UNL d   1      56.481  -0.790  32.172  0.00  0.00     0.169 A 
ATOM      2  N   UNL d   1      56.800  -1.197  31.541  0.00  0.00    -0.142 NA
ATOM      3  N   UNL d   1      57.252  -0.674  31.088  0.00  0.00    -0.146 NA
ATOM      4  C   UNL d   1      56.728  -0.004  32.126  0.00  0.00     0.050 A 
ATOM      5  C   UNL d   1      57.204   0.068  31.457  0.00  0.00     0.124 A 
ENDROOT
BRANCH   1   6
ATOM      6  C   UNL d   1      55.994  -1.106  32.761  0.00  0.00     0.231 C 
ATOM      7  O   UNL d   1      56.111  -1.881  33.018  0.00  0.00    -0.643 OA
ATOM      8  O   UNL d   1      55.395  -0.648  33.090  0.00  0.00    -0.643 OA
ENDBRANCH   1   6
TORSDOF 1
ENDMDL
MODEL 2
REMARK VINA RESULT:      -4.0      1.528      1.955
REMARK  1 active torsions:
REMARK  status: ('A' for Active; 'I' for Inactive)
REMARK    1  A    between atoms: C_2  and  C_1 
ROOT
ATOM      1  C   UNL d   1      56.643  -0.633  32.074  0.00  0.00     0.169 A 
ATOM      2  N   UNL d   1      56.572  -1.445  32.094  0.00  0.00    -0.142 NA
ATOM      3  N   UNL d   1      56.048  -1.651  32.699  0.00  0.00    -0.146 NA
ATOM      4  C   UNL d   1      56.164  -0.315  32.666  0.00  0.00     0.050 A 
ATOM      5  C   UNL d   1      55.796  -0.944  33.052  0.00  0.00     0.124 A 
ENDROOT
BRANCH   1   6
ATOM      6  C   UNL d   1      57.112  -0.196  31.551  0.00  0.00     0.231 C 
ATOM      7  O   UNL d   1      57.315  -0.514  30.818  0.00  0.00    -0.643 OA
ATOM      8  O   UNL d   1      57.376   0.554  31.762  0.00  0.00    -0.643 OA
ENDBRANCH   1   6
TORSDOF 1
ENDMDL
MODEL 3
REMARK VINA RESULT:      -4.0      1.278      1.517
REMARK  1 active torsions:
REMARK  status: ('A' for Active; 'I' for Inactive)
REMARK    1  A    between atoms: C_2  and  C_1 
ROOT
ATOM      1  C   UNL d   1      55.947  -0.467  32.988  0.00  0.00     0.169 A 
ATOM      2  N   UNL d   1      55.894  -1.280  32.946  0.00  0.00    -0.142 NA
ATOM      3  N   UNL d   1      56.343  -1.543  32.304  0.00  0.00    -0.146 NA
ATOM      4  C   UNL d   1      56.431  -0.206  32.373  0.00  0.00     0.050 A 
ATOM      5  C   UNL d   1      56.676  -0.870  31.951  0.00  0.00     0.124 A 
ENDROOT
BRANCH   1   6
ATOM      6  C   UNL d   1      55.580   0.019  33.549  0.00  0.00     0.231 C 
ATOM      7  O   UNL d   1      56.040   0.495  34.041  0.00  0.00    -0.643 OA
ATOM      8  O   UNL d   1      54.761   0.026  33.615  0.00  0.00    -0.643 OA
ENDBRANCH   1   6
TORSDOF 1
ENDMDL
MODEL 4
REMARK VINA RESULT:      -4.0      1.670      1.899
REMARK  1 active torsions:
REMARK  status: ('A' for Active; 'I' for Inactive)
REMARK    1  A    between atoms: C_2  and  C_1 
ROOT
ATOM      1  C   UNL d   1      55.897  -0.582  32.933  0.00  0.00     0.169 A 
ATOM      2  N   UNL d   1      55.164  -0.464  33.271  0.00  0.00    -0.142 NA
ATOM      3  N   UNL d   1      55.118   0.315  33.542  0.00  0.00    -0.146 NA
ATOM      4  C   UNL d   1      56.324   0.123  32.987  0.00  0.00     0.050 A 
ATOM      5  C   UNL d   1      55.843   0.677  33.363  0.00  0.00     0.124 A 
ENDROOT
BRANCH   1   6
ATOM      6  C   UNL d   1      56.172  -1.284  32.594  0.00  0.00     0.231 C 
ATOM      7  O   UNL d   1      56.048  -2.002  32.980  0.00  0.00    -0.643 OA
ATOM      8  O   UNL d   1      56.567  -1.267  31.873  0.00  0.00    -0.643 OA
ENDBRANCH   1   6
TORSDOF 1
ENDMDL
MODEL 5
REMARK VINA RESULT:      -2.8      2.156      2.575
REMARK  1 active torsions:
REMARK  status: ('A' for Active; 'I' for Inactive)
REMARK    1  A    between atoms: C_2  and  C_1 
ROOT
ATOM      1  C   UNL d   1      57.526  -0.196  31.005  0.00  0.00     0.169 A 
ATOM      2  N   UNL d   1      57.424  -0.990  30.846  0.00  0.00    -0.142 NA
ATOM      3  N   UNL d   1      56.905  -1.309  31.404  0.00  0.00    -0.146 NA
ATOM      4  C   UNL d   1      57.071  -0.004  31.666  0.00  0.00     0.050 A 
ATOM      5  C   UNL d   1      56.688  -0.691  31.912  0.00  0.00     0.124 A 
ENDROOT
BRANCH   1   6
ATOM      6  C   UNL d   1      58.001   0.330  30.580  0.00  0.00     0.231 C 
ATOM      7  O   UNL d   1      57.729   0.645  29.868  0.00  0.00    -0.643 OA
ATOM      8  O   UNL d   1      58.743   0.539  30.866  0.00  0.00    -0.643 OA
ENDBRANCH   1   6
TORSDOF 1
ENDMDL
MODEL 6
REMARK VINA RESULT:      -2.1      4.413      4.772
REMARK  1 active torsions:
REMARK  status: ('A' for Active; 'I' for Inactive)
REMARK    1  A    between atoms: C_2  and  C_1 
ROOT
ATOM      1  C   UNL d   1      58.910  -2.798  28.881  0.00  0.00     0.169 A 
ATOM      2  N   UNL d   1      58.519  -2.472  29.518  0.00  0.00    -0.142 NA
ATOM      3  N   UNL d   1      58.624  -1.652  29.503  0.00  0.00    -0.146 NA
ATOM      4  C   UNL d   1      59.268  -2.188  28.455  0.00  0.00     0.050 A 
ATOM      5  C   UNL d   1      59.092  -1.481  28.840  0.00  0.00     0.124 A 
ENDROOT
BRANCH   1   6
ATOM      6  C   UNL d   1      58.945  -3.602  28.688  0.00  0.00     0.231 C 
ATOM      7  O   UNL d   1      58.250  -4.042  28.639  0.00  0.00    -0.643 OA
ATOM      8  O   UNL d   1      59.671  -3.960  28.546  0.00  0.00    -0.643 OA
ENDBRANCH   1   6
TORSDOF 1
ENDMDL
MODEL 7
REMARK VINA RESULT:      -2.0      4.043      4.462
REMARK  1 active torsions:
REMARK  status: ('A' for Active; 'I' for Inactive)
REMARK    1  A    between atoms: C_2  and  C_1 
ROOT
ATOM      1  C   UNL d   1      58.911  -1.939  29.069  0.00  0.00     0.169 A 
ATOM      2  N   UNL d   1      58.497  -2.504  29.486  0.00  0.00    -0.142 NA
ATOM      3  N   UNL d   1      58.633  -3.243  29.142  0.00  0.00    -0.146 NA
ATOM      4  C   UNL d   1      59.316  -2.315  28.455  0.00  0.00     0.050 A 
ATOM      5  C   UNL d   1      59.144  -3.120  28.500  0.00  0.00     0.124 A 
ENDROOT
BRANCH   1   6
ATOM      6  C   UNL d   1      58.928  -1.128  29.228  0.00  0.00     0.231 C 
ATOM      7  O   UNL d   1      58.229  -0.691  29.200  0.00  0.00    -0.643 OA
ATOM      8  O   UNL d   1      59.638  -0.759  29.413  0.00  0.00    -0.643 OA
ENDBRANCH   1   6
TORSDOF 1
ENDMDL
MODEL 8
REMARK VINA RESULT:      -1.7      3.305      3.761
REMARK  1 active torsions:
REMARK  status: ('A' for Active; 'I' for Inactive)
REMARK    1  A    between atoms: C_2  and  C_1 
ROOT
ATOM      1  C   UNL d   1      59.050   0.110  29.814  0.00  0.00     0.169 A 
ATOM      2  N   UNL d   1      59.688  -0.277  29.483  0.00  0.00    -0.142 NA
ATOM      3  N   UNL d   1      60.383   0.046  29.791  0.00  0.00    -0.146 NA
ATOM      4  C   UNL d   1      59.336   0.681  30.336  0.00  0.00     0.050 A 
ATOM      5  C   UNL d   1      60.159   0.642  30.322  0.00  0.00     0.124 A 
ENDROOT
BRANCH   1   6
ATOM      6  C   UNL d   1      58.252  -0.041  29.658  0.00  0.00     0.231 C 
ATOM      7  O   UNL d   1      57.938   0.141  28.917  0.00  0.00    -0.643 OA
ATOM      8  O   UNL d   1      57.773  -0.372  30.238  0.00  0.00    -0.643 OA
ENDBRANCH   1   6
TORSDOF 1
ENDMDL
MODEL 9
REMARK VINA RESULT:      -1.3      9.291      9.427
REMARK  1 active torsions:
REMARK  status: ('A' for Active; 'I' for Inactive)
REMARK    1  A    between atoms: C_2  and  C_1 
ROOT
ATOM      1  C   UNL d   1      57.877  -9.799  30.753  0.00  0.00     0.169 A 
ATOM      2  N   UNL d   1      58.590  -9.795  31.149  0.00  0.00    -0.142 NA
ATOM      3  N   UNL d   1      58.443  -9.806  31.962  0.00  0.00    -0.146 NA
ATOM      4  C   UNL d   1      57.270  -9.813  31.313  0.00  0.00     0.050 A 
ATOM      5  C   UNL d   1      57.619  -9.818  32.059  0.00  0.00     0.124 A 
ENDROOT
BRANCH   1   6
ATOM      6  C   UNL d   1      57.773  -9.790  29.933  0.00  0.00     0.231 C 
ATOM      7  O   UNL d   1      57.012  -9.754  29.617  0.00  0.00    -0.643 OA
ATOM      8  O   UNL d   1      58.426  -9.818  29.434  0.00  0.00    -0.643 OA
ENDBRANCH   1   6
TORSDOF 1
ENDMDL
