MODEL 1
REMARK VINA RESULT:      -7.4      0.000      0.000
REMARK  6 active torsions:
REMARK  status: ('A' for Active; 'I' for Inactive)
REMARK    1  A    between atoms: C_4  and  C_1 
REMARK       I    between atoms: N_6  and  C_1 
REMARK    2  A    between atoms: C_7  and  C_4 
REMARK    3  A    between atoms: O_20  and  C_5 
REMARK    4  A    between atoms: C_8  and  N_6 
REMARK    5  A    between atoms: C_13  and  C_7 
REMARK    6  A    between atoms: O_21  and  C_10 
ROOT
ATOM      1  C   UNL d   1     -48.422  11.582  23.044  0.00  0.00     0.076 C 
ENDROOT
BRANCH   1   2
ATOM      2  C   UNL d   1     -49.215  11.674  23.143  0.00  0.00     0.328 C 
ATOM      3  N   UNL d   1     -49.592  12.378  22.932  0.00  0.00    -0.365 NA
ATOM      4  O   UNL d   1     -49.667  11.058  23.461  0.00  0.00    -0.251 OA
BRANCH   3   5
ATOM      5  C   UNL d   1     -49.965  13.098  22.714  0.00  0.00     0.136 A 
ATOM      6  C   UNL d   1     -49.990  13.727  23.241  0.00  0.00     0.044 A 
ATOM      7  C   UNL d   1     -50.365  14.458  23.027  0.00  0.00     0.071 A 
ATOM      8 CL   UNL d   1     -50.390  15.078  23.547  0.00  0.00    -0.081 Cl
ATOM      9  C   UNL d   1     -50.702  14.510  22.270  0.00  0.00     0.069 A 
ATOM     10  C   UNL d   1     -50.677  13.881  21.743  0.00  0.00     0.015 A 
ATOM     11 CL   UNL d   1     -51.064  15.228  22.074  0.00  0.00    -0.082 Cl
ATOM     12  C   UNL d   1     -50.313  13.171  21.949  0.00  0.00     0.033 A 
ENDBRANCH   3   5
ENDBRANCH   1   2
BRANCH   1  13
ATOM     13  C   UNL d   1     -47.911  11.620  23.698  0.00  0.00     0.006 C 
BRANCH  13  14
ATOM     14  C   UNL d   1     -47.096  11.574  23.578  0.00  0.00     0.002 A 
ATOM     15  C   UNL d   1     -46.658  12.230  23.344  0.00  0.00     0.026 A 
ATOM     16  C   UNL d   1     -45.843  12.170  23.228  0.00  0.00     0.116 A 
ATOM     17  C   UNL d   1     -45.458  11.455  23.343  0.00  0.00     0.116 A 
ATOM     18  C   UNL d   1     -45.894  10.779  23.581  0.00  0.00     0.026 A 
ATOM     19  C   UNL d   1     -46.708  10.838  23.698  0.00  0.00     0.002 A 
BRANCH  16  20
ATOM     20  O   UNL d   1     -45.408  12.842  22.991  0.00  0.00    -0.326 OA
ATOM     21  C   UNL d   1     -45.748  13.391  22.484  0.00  0.00     0.181 C 
ENDBRANCH  16  20
BRANCH  17  22
ATOM     22  O   UNL d   1     -44.648  11.396  23.227  0.00  0.00    -0.326 OA
ATOM     23  C   UNL d   1     -44.274  10.659  23.342  0.00  0.00     0.181 C 
ENDBRANCH  17  22
ENDBRANCH  13  14
ENDBRANCH   1  13
TORSDOF 6
ENDMDL
MODEL 2
REMARK VINA RESULT:      -7.2      2.938      5.423
REMARK  6 active torsions:
REMARK  status: ('A' for Active; 'I' for Inactive)
REMARK    1  A    between atoms: C_4  and  C_1 
REMARK       I    between atoms: N_6  and  C_1 
REMARK    2  A    between atoms: C_7  and  C_4 
REMARK    3  A    between atoms: O_20  and  C_5 
REMARK    4  A    between atoms: C_8  and  N_6 
REMARK    5  A    between atoms: C_13  and  C_7 
REMARK    6  A    between atoms: O_21  and  C_10 
ROOT
ATOM      1  C   UNL d   1     -47.060  13.361  22.754  0.00  0.00     0.076 C 
ENDROOT
BRANCH   1   2
ATOM      2  C   UNL d   1     -46.299  13.319  23.010  0.00  0.00     0.328 C 
ATOM      3  N   UNL d   1     -45.929  12.591  23.132  0.00  0.00    -0.365 NA
ATOM      4  O   UNL d   1     -45.872  14.013  23.156  0.00  0.00    -0.251 OA
BRANCH   3   5
ATOM      5  C   UNL d   1     -45.563  11.845  23.253  0.00  0.00     0.136 A 
ATOM      6  C   UNL d   1     -44.775  11.733  23.052  0.00  0.00     0.044 A 
ATOM      7  C   UNL d   1     -44.399  10.981  23.171  0.00  0.00     0.071 A 
ATOM      8 CL   UNL d   1     -43.622  10.871  22.974  0.00  0.00    -0.081 Cl
ATOM      9  C   UNL d   1     -44.856  10.369  23.496  0.00  0.00     0.069 A 
ATOM     10  C   UNL d   1     -45.644  10.481  23.697  0.00  0.00     0.015 A 
ATOM     11 CL   UNL d   1     -44.478   9.642  23.607  0.00  0.00    -0.082 Cl
ATOM     12  C   UNL d   1     -46.010  11.210  23.582  0.00  0.00     0.033 A 
ENDBRANCH   3   5
ENDBRANCH   1   2
BRANCH   1  13
ATOM     13  C   UNL d   1     -47.496  14.060  22.851  0.00  0.00     0.006 C 
BRANCH  13  14
ATOM     14  C   UNL d   1     -48.290  14.077  22.627  0.00  0.00     0.002 A 
ATOM     15  C   UNL d   1     -48.814  14.630  22.938  0.00  0.00     0.026 A 
ATOM     16  C   UNL d   1     -49.605  14.636  22.706  0.00  0.00     0.116 A 
ATOM     17  C   UNL d   1     -49.882  14.089  22.160  0.00  0.00     0.116 A 
ATOM     18  C   UNL d   1     -49.359  13.520  21.834  0.00  0.00     0.026 A 
ATOM     19  C   UNL d   1     -48.567  13.514  22.067  0.00  0.00     0.002 A 
BRANCH  16  20
ATOM     20  O   UNL d   1     -50.128  15.201  23.028  0.00  0.00    -0.326 OA
ATOM     21  C   UNL d   1     -49.829  15.856  23.423  0.00  0.00     0.181 C 
ENDBRANCH  16  20
BRANCH  17  22
ATOM     22  O   UNL d   1     -50.670  14.095  21.929  0.00  0.00    -0.326 OA
ATOM     23  C   UNL d   1     -50.913  13.600  21.302  0.00  0.00     0.181 C 
ENDBRANCH  17  22
ENDBRANCH  13  14
ENDBRANCH   1  13
TORSDOF 6
ENDMDL
MODEL 3
REMARK VINA RESULT:      -6.7      1.819      2.331
REMARK  6 active torsions:
REMARK  status: ('A' for Active; 'I' for Inactive)
REMARK    1  A    between atoms: C_4  and  C_1 
REMARK       I    between atoms: N_6  and  C_1 
REMARK    2  A    between atoms: C_7  and  C_4 
REMARK    3  A    between atoms: O_20  and  C_5 
REMARK    4  A    between atoms: C_8  and  N_6 
REMARK    5  A    between atoms: C_13  and  C_7 
REMARK    6  A    between atoms: O_21  and  C_10 
ROOT
ATOM      1  C   UNL d   1     -46.557  13.821  22.823  0.00  0.00     0.076 C 
ENDROOT
BRANCH   1   2
ATOM      2  C   UNL d   1     -46.921  14.521  22.666  0.00  0.00     0.328 C 
ATOM      3  N   UNL d   1     -47.742  14.569  22.594  0.00  0.00    -0.365 NA
ATOM      4  O   UNL d   1     -46.471  15.210  22.572  0.00  0.00    -0.251 OA
BRANCH   3   5
ATOM      5  C   UNL d   1     -48.578  14.605  22.523  0.00  0.00     0.136 A 
ATOM      6  C   UNL d   1     -48.973  14.092  22.018  0.00  0.00     0.044 A 
ATOM      7  C   UNL d   1     -49.818  14.122  21.941  0.00  0.00     0.071 A 
ATOM      8 CL   UNL d   1     -50.207  13.617  21.443  0.00  0.00    -0.081 Cl
ATOM      9  C   UNL d   1     -50.225  14.686  22.393  0.00  0.00     0.069 A 
ATOM     10  C   UNL d   1     -49.830  15.199  22.898  0.00  0.00     0.015 A 
ATOM     11 CL   UNL d   1     -51.048  14.706  22.310  0.00  0.00    -0.082 Cl
ATOM     12  C   UNL d   1     -49.010  15.171  22.974  0.00  0.00     0.033 A 
ENDBRANCH   3   5
ENDBRANCH   1   2
BRANCH   1  13
ATOM     13  C   UNL d   1     -46.036  13.486  22.271  0.00  0.00     0.006 C 
BRANCH  13  14
ATOM     14  C   UNL d   1     -45.569  12.843  22.492  0.00  0.00     0.002 A 
ATOM     15  C   UNL d   1     -44.792  12.766  22.234  0.00  0.00     0.026 A 
ATOM     16  C   UNL d   1     -44.336  12.118  22.463  0.00  0.00     0.116 A 
ATOM     17  C   UNL d   1     -44.651  11.540  22.952  0.00  0.00     0.116 A 
ATOM     18  C   UNL d   1     -45.442  11.606  23.223  0.00  0.00     0.026 A 
ATOM     19  C   UNL d   1     -45.899  12.254  22.994  0.00  0.00     0.002 A 
BRANCH  16  20
ATOM     20  O   UNL d   1     -43.548  12.050  22.194  0.00  0.00    -0.326 OA
ATOM     21  C   UNL d   1     -43.274  12.549  21.603  0.00  0.00     0.181 C 
ENDBRANCH  16  20
BRANCH  17  22
ATOM     22  O   UNL d   1     -44.197  10.895  23.180  0.00  0.00    -0.326 OA
ATOM     23  C   UNL d   1     -44.526  10.329  23.697  0.00  0.00     0.181 C 
ENDBRANCH  17  22
ENDBRANCH  13  14
ENDBRANCH   1  13
TORSDOF 6
ENDMDL
MODEL 4
REMARK VINA RESULT:      -5.8      8.908     10.243
REMARK  6 active torsions:
REMARK  status: ('A' for Active; 'I' for Inactive)
REMARK    1  A    between atoms: C_4  and  C_1 
REMARK       I    between atoms: N_6  and  C_1 
REMARK    2  A    between atoms: C_7  and  C_4 
REMARK    3  A    between atoms: O_20  and  C_5 
REMARK    4  A    between atoms: C_8  and  N_6 
REMARK    5  A    between atoms: C_13  and  C_7 
REMARK    6  A    between atoms: O_21  and  C_10 
ROOT
ATOM      1  C   UNL d   1     -40.349  14.831  19.942  0.00  0.00     0.076 C 
ENDROOT
BRANCH   1   2
ATOM      2  C   UNL d   1     -40.503  14.993  20.714  0.00  0.00     0.328 C 
ATOM      3  N   UNL d   1     -40.000  14.730  21.315  0.00  0.00    -0.365 NA
ATOM      4  O   UNL d   1     -41.176  15.429  20.919  0.00  0.00    -0.251 OA
BRANCH   3   5
ATOM      5  C   UNL d   1     -39.481  14.458  21.916  0.00  0.00     0.136 A 
ATOM      6  C   UNL d   1     -39.078  14.994  22.388  0.00  0.00     0.044 A 
ATOM      7  C   UNL d   1     -38.551  14.727  22.998  0.00  0.00     0.071 A 
ATOM      8 CL   UNL d   1     -38.154  15.256  23.464  0.00  0.00    -0.081 Cl
ATOM      9  C   UNL d   1     -38.462  13.908  23.097  0.00  0.00     0.069 A 
ATOM     10  C   UNL d   1     -38.865  13.371  22.624  0.00  0.00     0.015 A 
ATOM     11 CL   UNL d   1     -37.946  13.659  23.694  0.00  0.00    -0.082 Cl
ATOM     12  C   UNL d   1     -39.376  13.630  22.032  0.00  0.00     0.033 A 
ENDBRANCH   3   5
ENDBRANCH   1   2
BRANCH   1  13
ATOM     13  C   UNL d   1     -40.223  15.448  19.402  0.00  0.00     0.006 C 
BRANCH  13  14
ATOM     14  C   UNL d   1     -40.024  15.269  18.621  0.00  0.00     0.002 A 
ATOM     15  C   UNL d   1     -40.472  15.545  17.989  0.00  0.00     0.026 A 
ATOM     16  C   UNL d   1     -40.262  15.359  17.213  0.00  0.00     0.116 A 
ATOM     17  C   UNL d   1     -39.602  14.896  17.061  0.00  0.00     0.116 A 
ATOM     18  C   UNL d   1     -39.136  14.609  17.697  0.00  0.00     0.026 A 
ATOM     19  C   UNL d   1     -39.346  14.795  18.473  0.00  0.00     0.002 A 
BRANCH  16  20
ATOM     20  O   UNL d   1     -40.724  15.643  16.579  0.00  0.00    -0.326 OA
ATOM     21  C   UNL d   1     -41.488  15.911  16.718  0.00  0.00     0.181 C 
ENDBRANCH  16  20
BRANCH  17  22
ATOM     22  O   UNL d   1     -39.393  14.711  16.289  0.00  0.00    -0.326 OA
ATOM     23  C   UNL d   1     -38.668  14.323  16.146  0.00  0.00     0.181 C 
ENDBRANCH  17  22
ENDBRANCH  13  14
ENDBRANCH   1  13
TORSDOF 6
ENDMDL
MODEL 5
REMARK VINA RESULT:      -5.7      3.000      5.388
REMARK  6 active torsions:
REMARK  status: ('A' for Active; 'I' for Inactive)
REMARK    1  A    between atoms: C_4  and  C_1 
REMARK       I    between atoms: N_6  and  C_1 
REMARK    2  A    between atoms: C_7  and  C_4 
REMARK    3  A    between atoms: O_20  and  C_5 
REMARK    4  A    between atoms: C_8  and  N_6 
REMARK    5  A    between atoms: C_13  and  C_7 
REMARK    6  A    between atoms: O_21  and  C_10 
ROOT
ATOM      1  C   UNL d   1     -47.172  13.038  23.034  0.00  0.00     0.076 C 
ENDROOT
BRANCH   1   2
ATOM      2  C   UNL d   1     -46.611  12.482  23.180  0.00  0.00     0.328 C 
ATOM      3  N   UNL d   1     -45.868  12.520  22.821  0.00  0.00    -0.365 NA
ATOM      4  O   UNL d   1     -46.772  11.856  23.698  0.00  0.00    -0.251 OA
BRANCH   3   5
ATOM      5  C   UNL d   1     -45.117  12.570  22.450  0.00  0.00     0.136 A 
ATOM      6  C   UNL d   1     -44.529  12.026  22.630  0.00  0.00     0.044 A 
ATOM      7  C   UNL d   1     -43.767  12.070  22.259  0.00  0.00     0.071 A 
ATOM      8 CL   UNL d   1     -43.188  11.533  22.436  0.00  0.00    -0.081 Cl
ATOM      9  C   UNL d   1     -43.641  12.681  21.711  0.00  0.00     0.069 A 
ATOM     10  C   UNL d   1     -44.228  13.226  21.532  0.00  0.00     0.015 A 
ATOM     11 CL   UNL d   1     -42.894  12.713  21.356  0.00  0.00    -0.082 Cl
ATOM     12  C   UNL d   1     -44.968  13.184  21.891  0.00  0.00     0.033 A 
ENDBRANCH   3   5
ENDBRANCH   1   2
BRANCH   1  13
ATOM     13  C   UNL d   1     -47.972  12.878  23.193  0.00  0.00     0.006 C 
BRANCH  13  14
ATOM     14  C   UNL d   1     -48.544  13.437  22.991  0.00  0.00     0.002 A 
ATOM     15  C   UNL d   1     -49.187  13.242  22.515  0.00  0.00     0.026 A 
ATOM     16  C   UNL d   1     -49.753  13.810  22.321  0.00  0.00     0.116 A 
ATOM     17  C   UNL d   1     -49.683  14.579  22.600  0.00  0.00     0.116 A 
ATOM     18  C   UNL d   1     -49.033  14.790  23.087  0.00  0.00     0.026 A 
ATOM     19  C   UNL d   1     -48.467  14.222  23.281  0.00  0.00     0.002 A 
BRANCH  16  20
ATOM     20  O   UNL d   1     -50.400  13.602  21.837  0.00  0.00    -0.326 OA
ATOM     21  C   UNL d   1     -50.435  12.854  21.502  0.00  0.00     0.181 C 
ENDBRANCH  16  20
BRANCH  17  22
ATOM     22  O   UNL d   1     -50.246  15.144  22.407  0.00  0.00    -0.326 OA
ATOM     23  C   UNL d   1     -50.359  15.795  22.916  0.00  0.00     0.181 C 
ENDBRANCH  17  22
ENDBRANCH  13  14
ENDBRANCH   1  13
TORSDOF 6
ENDMDL
MODEL 6
REMARK VINA RESULT:      -5.5      4.214      6.408
REMARK  6 active torsions:
REMARK  status: ('A' for Active; 'I' for Inactive)
REMARK    1  A    between atoms: C_4  and  C_1 
REMARK       I    between atoms: N_6  and  C_1 
REMARK    2  A    between atoms: C_7  and  C_4 
REMARK    3  A    between atoms: O_20  and  C_5 
REMARK    4  A    between atoms: C_8  and  N_6 
REMARK    5  A    between atoms: C_13  and  C_7 
REMARK    6  A    between atoms: O_21  and  C_10 
ROOT
ATOM      1  C   UNL d   1     -44.108  13.034  21.795  0.00  0.00     0.076 C 
ENDROOT
BRANCH   1   2
ATOM      2  C   UNL d   1     -43.364  12.756  21.668  0.00  0.00     0.328 C 
ATOM      3  N   UNL d   1     -42.767  13.250  21.382  0.00  0.00    -0.365 NA
ATOM      4  O   UNL d   1     -43.186  11.963  21.825  0.00  0.00    -0.251 OA
BRANCH   3   5
ATOM      5  C   UNL d   1     -42.168  13.762  21.092  0.00  0.00     0.136 A 
ATOM      6  C   UNL d   1     -42.226  14.573  21.205  0.00  0.00     0.044 A 
ATOM      7  C   UNL d   1     -41.625  15.097  20.914  0.00  0.00     0.071 A 
ATOM      8 CL   UNL d   1     -41.682  15.896  21.025  0.00  0.00    -0.081 Cl
ATOM      9  C   UNL d   1     -40.981  14.758  20.514  0.00  0.00     0.069 A 
ATOM     10  C   UNL d   1     -40.923  13.947  20.401  0.00  0.00     0.015 A 
ATOM     11 CL   UNL d   1     -40.402  15.279  20.235  0.00  0.00    -0.082 Cl
ATOM     12  C   UNL d   1     -41.506  13.438  20.683  0.00  0.00     0.033 A 
ENDBRANCH   3   5
ENDBRANCH   1   2
BRANCH   1  13
ATOM     13  C   UNL d   1     -44.668  12.567  22.192  0.00  0.00     0.006 C 
BRANCH  13  14
ATOM     14  C   UNL d   1     -45.379  12.907  22.437  0.00  0.00     0.002 A 
ATOM     15  C   UNL d   1     -45.911  12.496  22.912  0.00  0.00     0.026 A 
ATOM     16  C   UNL d   1     -46.618  12.847  23.151  0.00  0.00     0.116 A 
ATOM     17  C   UNL d   1     -46.801  13.612  22.918  0.00  0.00     0.116 A 
ATOM     18  C   UNL d   1     -46.267  14.042  22.434  0.00  0.00     0.026 A 
ATOM     19  C   UNL d   1     -45.560  13.691  22.195  0.00  0.00     0.002 A 
BRANCH  16  20
ATOM     20  O   UNL d   1     -47.151  12.421  23.632  0.00  0.00    -0.326 OA
ATOM     21  C   UNL d   1     -47.079  11.606  23.698  0.00  0.00     0.181 C 
ENDBRANCH  16  20
BRANCH  17  22
ATOM     22  O   UNL d   1     -47.505  13.961  23.156  0.00  0.00    -0.326 OA
ATOM     23  C   UNL d   1     -47.803  14.610  22.724  0.00  0.00     0.181 C 
ENDBRANCH  17  22
ENDBRANCH  13  14
ENDBRANCH   1  13
TORSDOF 6
ENDMDL
MODEL 7
REMARK VINA RESULT:      -5.4      4.111      5.750
REMARK  6 active torsions:
REMARK  status: ('A' for Active; 'I' for Inactive)
REMARK    1  A    between atoms: C_4  and  C_1 
REMARK       I    between atoms: N_6  and  C_1 
REMARK    2  A    between atoms: C_7  and  C_4 
REMARK    3  A    between atoms: O_20  and  C_5 
REMARK    4  A    between atoms: C_8  and  N_6 
REMARK    5  A    between atoms: C_13  and  C_7 
REMARK    6  A    between atoms: O_21  and  C_10 
ROOT
ATOM      1  C   UNL d   1     -43.089  13.127  21.442  0.00  0.00     0.076 C 
ENDROOT
BRANCH   1   2
ATOM      2  C   UNL d   1     -43.565  12.599  21.817  0.00  0.00     0.328 C 
ATOM      3  N   UNL d   1     -44.320  12.813  22.076  0.00  0.00    -0.365 NA
ATOM      4  O   UNL d   1     -43.302  11.825  21.949  0.00  0.00    -0.251 OA
BRANCH   3   5
ATOM      5  C   UNL d   1     -45.085  13.043  22.335  0.00  0.00     0.136 A 
ATOM      6  C   UNL d   1     -45.569  12.505  22.723  0.00  0.00     0.044 A 
ATOM      7  C   UNL d   1     -46.343  12.729  22.987  0.00  0.00     0.071 A 
ATOM      8 CL   UNL d   1     -46.821  12.200  23.370  0.00  0.00    -0.081 Cl
ATOM      9  C   UNL d   1     -46.590  13.508  22.839  0.00  0.00     0.069 A 
ATOM     10  C   UNL d   1     -46.105  14.046  22.451  0.00  0.00     0.015 A 
ATOM     11 CL   UNL d   1     -47.347  13.715  23.102  0.00  0.00    -0.082 Cl
ATOM     12  C   UNL d   1     -45.353  13.829  22.194  0.00  0.00     0.033 A 
ENDBRANCH   3   5
ENDBRANCH   1   2
BRANCH   1  13
ATOM     13  C   UNL d   1     -42.285  12.955  21.323  0.00  0.00     0.006 C 
BRANCH  13  14
ATOM     14  C   UNL d   1     -41.767  13.564  21.119  0.00  0.00     0.002 A 
ATOM     15  C   UNL d   1     -41.041  13.655  21.495  0.00  0.00     0.026 A 
ATOM     16  C   UNL d   1     -40.531  14.268  21.281  0.00  0.00     0.116 A 
ATOM     17  C   UNL d   1     -40.742  14.796  20.690  0.00  0.00     0.116 A 
ATOM     18  C   UNL d   1     -41.480  14.715  20.299  0.00  0.00     0.026 A 
ATOM     19  C   UNL d   1     -41.989  14.102  20.512  0.00  0.00     0.002 A 
BRANCH  16  20
ATOM     20  O   UNL d   1     -39.797  14.351  21.669  0.00  0.00    -0.326 OA
ATOM     21  C   UNL d   1     -39.463  13.707  22.053  0.00  0.00     0.181 C 
ENDBRANCH  16  20
BRANCH  17  22
ATOM     22  O   UNL d   1     -40.235  15.406  20.478  0.00  0.00    -0.326 OA
ATOM     23  C   UNL d   1     -40.456  15.921  19.859  0.00  0.00     0.181 C 
ENDBRANCH  17  22
ENDBRANCH  13  14
ENDBRANCH   1  13
TORSDOF 6
ENDMDL
