MODEL 1
REMARK VINA RESULT:      -4.7      0.000      0.000
REMARK  1 active torsions:
REMARK  status: ('A' for Active; 'I' for Inactive)
REMARK    1  A    between atoms: C_15  and  C_10 
ROOT
ATOM      1  C   UNL d   1      55.900   0.266  33.791  0.00  0.00     0.111 A 
ATOM      2  C   UNL d   1      56.986   0.327  32.870  0.00  0.00     0.062 A 
ATOM      3  C   UNL d   1      56.496   0.084  32.276  0.00  0.00     0.105 A 
ATOM      4  C   UNL d   1      55.410   0.023  33.196  0.00  0.00     0.213 A 
ATOM      5  C   UNL d   1      56.691   0.420  33.635  0.00  0.00     0.018 A 
ATOM      6  O   UNL d   1      55.701  -0.071  32.435  0.00  0.00    -0.287 OA
ATOM      7  C   UNL d   1      57.818   0.493  32.725  0.00  0.00     0.198 A 
ATOM      8  C   UNL d   1      55.601   0.360  34.559  0.00  0.00     0.105 C 
ATOM      9  C   UNL d   1      56.785  -0.020  31.472  0.00  0.00     0.025 A 
ATOM     10  C   UNL d   1      57.600   0.141  31.321  0.00  0.00     0.005 A 
ATOM     11  C   UNL d   1      58.115   0.397  31.946  0.00  0.00     0.042 A 
ATOM     12  N   UNL d   1      55.305   0.447  35.299  0.00  0.00    -0.191 NA
ATOM     13  O   UNL d   1      58.198   0.682  33.187  0.00  0.00    -0.286 OA
ATOM     14  N   UNL d   1      54.611  -0.131  33.359  0.00  0.00    -0.120 N 
ATOM     15  C   UNL d   1      57.239   0.682  34.251  0.00  0.00     0.001 C 
ENDROOT
BRANCH  10  16
ATOM     16  C   UNL d   1      57.884   0.047  30.567  0.00  0.00     0.000 A 
ATOM     17  C   UNL d   1      58.230  -0.659  30.321  0.00  0.00     0.000 A 
ATOM     18  C   UNL d   1      58.507  -0.737  29.567  0.00  0.00     0.000 A 
ATOM     19  C   UNL d   1      58.451  -0.106  29.021  0.00  0.00     0.000 A 
ATOM     20  C   UNL d   1      58.105   0.591  29.274  0.00  0.00     0.000 A 
ATOM     21  C   UNL d   1      57.818   0.676  30.052  0.00  0.00     0.000 A 
ENDBRANCH  10  16
TORSDOF 1
ENDMDL
MODEL 2
REMARK VINA RESULT:      -4.3      0.977      1.444
REMARK  1 active torsions:
REMARK  status: ('A' for Active; 'I' for Inactive)
REMARK    1  A    between atoms: C_15  and  C_10 
ROOT
ATOM      1  C   UNL d   1      56.287  -0.456  32.985  0.00  0.00     0.111 A 
ATOM      2  C   UNL d   1      57.289  -0.264  31.990  0.00  0.00     0.062 A 
ATOM      3  C   UNL d   1      57.005  -0.902  31.582  0.00  0.00     0.105 A 
ATOM      4  C   UNL d   1      56.004  -1.093  32.577  0.00  0.00     0.213 A 
ATOM      5  C   UNL d   1      56.931  -0.035  32.697  0.00  0.00     0.018 A 
ATOM      6  O   UNL d   1      56.358  -1.322  31.874  0.00  0.00    -0.287 OA
ATOM      7  C   UNL d   1      57.963   0.187  31.703  0.00  0.00     0.198 A 
ATOM      8  C   UNL d   1      55.926  -0.227  33.696  0.00  0.00     0.105 C 
ATOM      9  C   UNL d   1      57.365  -1.156  30.843  0.00  0.00     0.025 A 
ATOM     10  C   UNL d   1      58.027  -0.718  30.554  0.00  0.00     0.005 A 
ATOM     11  C   UNL d   1      58.325  -0.048  30.983  0.00  0.00     0.042 A 
ATOM     12  N   UNL d   1      55.571  -0.013  34.382  0.00  0.00    -0.191 NA
ATOM     13  O   UNL d   1      58.183   0.682  32.019  0.00  0.00    -0.286 OA
ATOM     14  N   UNL d   1      55.353  -1.514  32.873  0.00  0.00    -0.120 N 
ATOM     15  C   UNL d   1      57.256   0.650  33.112  0.00  0.00     0.001 C 
ENDROOT
BRANCH  10  16
ATOM     16  C   UNL d   1      58.374  -0.948  29.858  0.00  0.00     0.000 A 
ATOM     17  C   UNL d   1      58.465  -0.425  29.228  0.00  0.00     0.000 A 
ATOM     18  C   UNL d   1      58.813  -0.670  28.542  0.00  0.00     0.000 A 
ATOM     19  C   UNL d   1      59.088  -1.455  28.455  0.00  0.00     0.000 A 
ATOM     20  C   UNL d   1      58.993  -1.967  29.087  0.00  0.00     0.000 A 
ATOM     21  C   UNL d   1      58.634  -1.718  29.797  0.00  0.00     0.000 A 
ENDBRANCH  10  16
TORSDOF 1
ENDMDL
MODEL 3
REMARK VINA RESULT:      -3.8      2.497      4.474
REMARK  1 active torsions:
REMARK  status: ('A' for Active; 'I' for Inactive)
REMARK    1  A    between atoms: C_15  and  C_10 
ROOT
ATOM      1  C   UNL d   1      59.522   0.647  29.954  0.00  0.00     0.111 A 
ATOM      2  C   UNL d   1      58.242   0.636  30.580  0.00  0.00     0.062 A 
ATOM      3  C   UNL d   1      58.597   0.656  31.306  0.00  0.00     0.105 A 
ATOM      4  C   UNL d   1      59.877   0.666  30.680  0.00  0.00     0.213 A 
ATOM      5  C   UNL d   1      58.703   0.631  29.896  0.00  0.00     0.018 A 
ATOM      6  O   UNL d   1      59.419   0.671  31.361  0.00  0.00    -0.287 OA
ATOM      7  C   UNL d   1      57.385   0.619  30.500  0.00  0.00     0.198 A 
ATOM      8  C   UNL d   1      59.988   0.642  29.268  0.00  0.00     0.105 C 
ATOM      9  C   UNL d   1      58.133   0.661  32.030  0.00  0.00     0.025 A 
ATOM     10  C   UNL d   1      57.291   0.645  31.961  0.00  0.00     0.005 A 
ATOM     11  C   UNL d   1      56.918   0.624  31.198  0.00  0.00     0.042 A 
ATOM     12  N   UNL d   1      60.445   0.638  28.609  0.00  0.00    -0.191 NA
ATOM     13  O   UNL d   1      57.110   0.604  29.937  0.00  0.00    -0.286 OA
ATOM     14  N   UNL d   1      60.704   0.682  30.733  0.00  0.00    -0.120 N 
ATOM     15  C   UNL d   1      58.296   0.610  29.133  0.00  0.00     0.001 C 
ENDROOT
BRANCH  10  16
ATOM     16  C   UNL d   1      56.843   0.649  32.637  0.00  0.00     0.000 A 
ATOM     17  C   UNL d   1      57.190   0.634  33.384  0.00  0.00     0.000 A 
ATOM     18  C   UNL d   1      56.731   0.639  34.048  0.00  0.00     0.000 A 
ATOM     19  C   UNL d   1      55.897   0.660  33.993  0.00  0.00     0.000 A 
ATOM     20  C   UNL d   1      55.561   0.675  33.247  0.00  0.00     0.000 A 
ATOM     21  C   UNL d   1      56.032   0.670  32.560  0.00  0.00     0.000 A 
ENDBRANCH  10  16
TORSDOF 1
ENDMDL
MODEL 4
REMARK VINA RESULT:      -2.6     10.200     10.383
REMARK  1 active torsions:
REMARK  status: ('A' for Active; 'I' for Inactive)
REMARK    1  A    between atoms: C_15  and  C_10 
ROOT
ATOM      1  C   UNL d   1      59.639  -9.771  33.014  0.00  0.00     0.111 A 
ATOM      2  C   UNL d   1      58.473  -9.785  32.195  0.00  0.00     0.062 A 
ATOM      3  C   UNL d   1      58.937  -9.765  31.534  0.00  0.00     0.105 A 
ATOM      4  C   UNL d   1      60.103  -9.751  32.353  0.00  0.00     0.213 A 
ATOM      5  C   UNL d   1      58.821  -9.788  32.943  0.00  0.00     0.018 A 
ATOM      6  O   UNL d   1      59.758  -9.748  31.609  0.00  0.00    -0.287 OA
ATOM      7  C   UNL d   1      57.614  -9.803  32.139  0.00  0.00     0.198 A 
ATOM      8  C   UNL d   1      59.991  -9.774  33.765  0.00  0.00     0.105 C 
ATOM      9  C   UNL d   1      58.593  -9.762  30.745  0.00  0.00     0.025 A 
ATOM     10  C   UNL d   1      57.750  -9.779  30.681  0.00  0.00     0.005 A 
ATOM     11  C   UNL d   1      57.263  -9.800  31.376  0.00  0.00     0.042 A 
ATOM     12  N   UNL d   1      60.339  -9.776  34.487  0.00  0.00    -0.191 NA
ATOM     13  O   UNL d   1      57.254  -9.818  32.652  0.00  0.00    -0.286 OA
ATOM     14  N   UNL d   1      60.928  -9.734  32.431  0.00  0.00    -0.120 N 
ATOM     15  C   UNL d   1      58.299  -9.809  33.632  0.00  0.00     0.001 C 
ENDROOT
BRANCH  10  16
ATOM     16  C   UNL d   1      57.415  -9.776  29.943  0.00  0.00     0.000 A 
ATOM     17  C   UNL d   1      57.875  -9.747  29.260  0.00  0.00     0.000 A 
ATOM     18  C   UNL d   1      57.526  -9.745  28.532  0.00  0.00     0.000 A 
ATOM     19  C   UNL d   1      56.693  -9.772  28.455  0.00  0.00     0.000 A 
ATOM     20  C   UNL d   1      56.245  -9.801  29.139  0.00  0.00     0.000 A 
ATOM     21  C   UNL d   1      56.602  -9.803  29.892  0.00  0.00     0.000 A 
ENDBRANCH  10  16
TORSDOF 1
ENDMDL
MODEL 5
REMARK VINA RESULT:      -2.6      1.447      2.063
REMARK  1 active torsions:
REMARK  status: ('A' for Active; 'I' for Inactive)
REMARK    1  A    between atoms: C_15  and  C_10 
ROOT
ATOM      1  C   UNL d   1      56.729   0.638  33.165  0.00  0.00     0.111 A 
ATOM      2  C   UNL d   1      57.344   0.632  31.879  0.00  0.00     0.062 A 
ATOM      3  C   UNL d   1      58.073   0.657  32.228  0.00  0.00     0.105 A 
ATOM      4  C   UNL d   1      57.458   0.663  33.513  0.00  0.00     0.213 A 
ATOM      5  C   UNL d   1      56.664   0.622  32.347  0.00  0.00     0.018 A 
ATOM      6  O   UNL d   1      58.135   0.673  33.050  0.00  0.00    -0.287 OA
ATOM      7  C   UNL d   1      57.258   0.615  31.023  0.00  0.00     0.198 A 
ATOM      8  C   UNL d   1      56.047   0.628  33.636  0.00  0.00     0.105 C 
ATOM      9  C   UNL d   1      58.793   0.668  31.758  0.00  0.00     0.025 A 
ATOM     10  C   UNL d   1      58.717   0.651  30.917  0.00  0.00     0.005 A 
ATOM     11  C   UNL d   1      57.951   0.625  30.550  0.00  0.00     0.042 A 
ATOM     12  N   UNL d   1      55.392   0.619  34.099  0.00  0.00    -0.191 NA
ATOM     13  O   UNL d   1      56.692   0.596  30.753  0.00  0.00    -0.286 OA
ATOM     14  N   UNL d   1      57.517   0.678  34.340  0.00  0.00    -0.120 N 
ATOM     15  C   UNL d   1      55.898   0.596  31.946  0.00  0.00     0.001 C 
ENDROOT
BRANCH  10  16
ATOM     16  C   UNL d   1      59.389   0.661  30.463  0.00  0.00     0.000 A 
ATOM     17  C   UNL d   1      59.355   0.660  29.640  0.00  0.00     0.000 A 
ATOM     18  C   UNL d   1      60.033   0.670  29.202  0.00  0.00     0.000 A 
ATOM     19  C   UNL d   1      60.783   0.681  29.573  0.00  0.00     0.000 A 
ATOM     20  C   UNL d   1      60.807   0.682  30.391  0.00  0.00     0.000 A 
ATOM     21  C   UNL d   1      60.109   0.672  30.846  0.00  0.00     0.000 A 
ENDBRANCH  10  16
TORSDOF 1
ENDMDL
MODEL 6
REMARK VINA RESULT:      -2.4     10.226     10.894
REMARK  1 active torsions:
REMARK  status: ('A' for Active; 'I' for Inactive)
REMARK    1  A    between atoms: C_15  and  C_10 
ROOT
ATOM      1  C   UNL d   1      58.386  -9.815  30.638  0.00  0.00     0.111 A 
ATOM      2  C   UNL d   1      59.340  -9.813  31.696  0.00  0.00     0.062 A 
ATOM      3  C   UNL d   1      58.740  -9.812  32.237  0.00  0.00     0.105 A 
ATOM      4  C   UNL d   1      57.785  -9.814  31.179  0.00  0.00     0.213 A 
ATOM      5  C   UNL d   1      59.167  -9.814  30.889  0.00  0.00     0.018 A 
ATOM      6  O   UNL d   1      57.956  -9.813  31.982  0.00  0.00    -0.287 OA
ATOM      7  C   UNL d   1      60.165  -9.812  31.942  0.00  0.00     0.198 A 
ATOM      8  C   UNL d   1      58.209  -9.816  29.827  0.00  0.00     0.105 C 
ATOM      9  C   UNL d   1      58.900  -9.811  33.082  0.00  0.00     0.025 A 
ATOM     10  C   UNL d   1      59.707  -9.810  33.332  0.00  0.00     0.005 A 
ATOM     11  C   UNL d   1      60.338  -9.811  32.764  0.00  0.00     0.042 A 
ATOM     12  N   UNL d   1      58.031  -9.818  29.046  0.00  0.00    -0.191 NA
ATOM     13  O   UNL d   1      60.630  -9.813  31.522  0.00  0.00    -0.286 OA
ATOM     14  N   UNL d   1      56.998  -9.815  30.920  0.00  0.00    -0.120 N 
ATOM     15  C   UNL d   1      59.829  -9.815  30.334  0.00  0.00     0.001 C 
ENDROOT
BRANCH  10  16
ATOM     16  C   UNL d   1      59.870  -9.809  34.127  0.00  0.00     0.000 A 
ATOM     17  C   UNL d   1      60.645  -9.802  34.408  0.00  0.00     0.000 A 
ATOM     18  C   UNL d   1      60.791  -9.801  35.202  0.00  0.00     0.000 A 
ATOM     19  C   UNL d   1      60.162  -9.807  35.755  0.00  0.00     0.000 A 
ATOM     20  C   UNL d   1      59.397  -9.813  35.465  0.00  0.00     0.000 A 
ATOM     21  C   UNL d   1      59.242  -9.814  34.647  0.00  0.00     0.000 A 
ENDBRANCH  10  16
TORSDOF 1
ENDMDL
MODEL 7
REMARK VINA RESULT:      -2.3      1.806      4.037
REMARK  1 active torsions:
REMARK  status: ('A' for Active; 'I' for Inactive)
REMARK    1  A    between atoms: C_15  and  C_10 
ROOT
ATOM      1  C   UNL d   1      58.199   0.369  31.214  0.00  0.00     0.111 A 
ATOM      2  C   UNL d   1      57.602   0.475  32.504  0.00  0.00     0.062 A 
ATOM      3  C   UNL d   1      56.868   0.448  32.167  0.00  0.00     0.105 A 
ATOM      4  C   UNL d   1      57.465   0.342  30.877  0.00  0.00     0.213 A 
ATOM      5  C   UNL d   1      58.275   0.436  32.029  0.00  0.00     0.018 A 
ATOM      6  O   UNL d   1      56.794   0.381  31.348  0.00  0.00    -0.287 OA
ATOM      7  C   UNL d   1      57.701   0.545  33.356  0.00  0.00     0.198 A 
ATOM      8  C   UNL d   1      58.874   0.329  30.735  0.00  0.00     0.105 C 
ATOM      9  C   UNL d   1      56.154   0.488  32.645  0.00  0.00     0.025 A 
ATOM     10  C   UNL d   1      56.243   0.556  33.483  0.00  0.00     0.005 A 
ATOM     11  C   UNL d   1      57.014   0.585  33.837  0.00  0.00     0.042 A 
ATOM     12  N   UNL d   1      59.522   0.290  30.264  0.00  0.00    -0.191 NA
ATOM     13  O   UNL d   1      58.270   0.566  33.618  0.00  0.00    -0.286 OA
ATOM     14  N   UNL d   1      57.393   0.275  30.054  0.00  0.00    -0.120 N 
ATOM     15  C   UNL d   1      59.047   0.467  32.418  0.00  0.00     0.001 C 
ENDROOT
BRANCH  10  16
ATOM     16  C   UNL d   1      55.577   0.595  33.944  0.00  0.00     0.000 A 
ATOM     17  C   UNL d   1      55.623   0.644  34.765  0.00  0.00     0.000 A 
ATOM     18  C   UNL d   1      54.951   0.682  35.211  0.00  0.00     0.000 A 
ATOM     19  C   UNL d   1      54.195   0.671  34.851  0.00  0.00     0.000 A 
ATOM     20  C   UNL d   1      54.160   0.622  34.034  0.00  0.00     0.000 A 
ATOM     21  C   UNL d   1      54.852   0.583  33.571  0.00  0.00     0.000 A 
ENDBRANCH  10  16
TORSDOF 1
ENDMDL
MODEL 8
REMARK VINA RESULT:      -2.1     10.005     10.186
REMARK  1 active torsions:
REMARK  status: ('A' for Active; 'I' for Inactive)
REMARK    1  A    between atoms: C_15  and  C_10 
ROOT
ATOM      1  C   UNL d   1      59.821  -9.104  34.628  0.00  0.00     0.111 A 
ATOM      2  C   UNL d   1      59.487  -9.429  33.281  0.00  0.00     0.062 A 
ATOM      3  C   UNL d   1      60.244  -9.262  33.053  0.00  0.00     0.105 A 
ATOM      4  C   UNL d   1      60.578  -8.938  34.400  0.00  0.00     0.213 A 
ATOM      5  C   UNL d   1      59.269  -9.351  34.073  0.00  0.00     0.018 A 
ATOM      6  O   UNL d   1      60.797  -9.014  33.613  0.00  0.00    -0.287 OA
ATOM      7  C   UNL d   1      58.895  -9.688  32.713  0.00  0.00     0.198 A 
ATOM      8  C   UNL d   1      59.604  -9.025  35.424  0.00  0.00     0.105 C 
ATOM      9  C   UNL d   1      60.490  -9.337  32.232  0.00  0.00     0.025 A 
ATOM     10  C   UNL d   1      59.915  -9.592  31.668  0.00  0.00     0.005 A 
ATOM     11  C   UNL d   1      59.120  -9.767  31.908  0.00  0.00     0.042 A 
ATOM     12  N   UNL d   1      59.402  -8.946  36.196  0.00  0.00    -0.191 NA
ATOM     13  O   UNL d   1      58.307  -9.817  32.890  0.00  0.00    -0.286 OA
ATOM     14  N   UNL d   1      61.132  -8.689  34.964  0.00  0.00    -0.120 N 
ATOM     15  C   UNL d   1      58.452  -9.536  34.288  0.00  0.00     0.001 C 
ENDROOT
BRANCH  10  16
ATOM     16  C   UNL d   1      60.136  -9.666  30.891  0.00  0.00     0.000 A 
ATOM     17  C   UNL d   1      60.929  -9.712  30.671  0.00  0.00     0.000 A 
ATOM     18  C   UNL d   1      61.133  -9.786  29.893  0.00  0.00     0.000 A 
ATOM     19  C   UNL d   1      60.548  -9.818  29.297  0.00  0.00     0.000 A 
ATOM     20  C   UNL d   1      59.763  -9.771  29.525  0.00  0.00     0.000 A 
ATOM     21  C   UNL d   1      59.549  -9.695  30.327  0.00  0.00     0.000 A 
ENDBRANCH  10  16
TORSDOF 1
ENDMDL
