MODEL 1
REMARK VINA RESULT:      44.0      0.000      0.000
REMARK  4 active torsions:
REMARK  status: ('A' for Active; 'I' for Inactive)
REMARK    1  A    between atoms: C_2  and  S_1 
REMARK    2  A    between atoms: C_5  and  S_1 
REMARK    3  A    between atoms: C_7  and  C_5 
REMARK       I    between atoms: N_9  and  C_7 
REMARK    4  A    between atoms: C_8  and  N_9 
ROOT
ATOM      1  S   UNL d   1     -57.044 -98.954 -43.952  0.00  0.00     0.217 S 
ATOM      2  O   UNL d   1     -57.014 -99.152 -43.146  0.00  0.00    -0.217 OA
ATOM      3  O   UNL d   1     -57.076 -98.755 -44.761  0.00  0.00    -0.217 OA
ENDROOT
BRANCH   1   4
ATOM      4  C   UNL d   1     -57.867 -98.892 -43.909  0.00  0.00     0.109 A 
ATOM      5  C   UNL d   1     -58.315 -98.851 -43.218  0.00  0.00     0.110 A 
ATOM      6  N   UNL d   1     -59.107 -98.794 -43.429  0.00  0.00    -0.243 NA
ATOM      7  C   UNL d   1     -59.150 -98.800 -44.255  0.00  0.00     0.082 A 
ATOM      8  C   UNL d   1     -58.383 -98.860 -44.544  0.00  0.00     0.030 A 
ATOM      9  C   UNL d   1     -59.790 -98.758 -44.774  0.00  0.00     0.019 A 
ATOM     10  C   UNL d   1     -58.250 -98.879 -45.359  0.00  0.00     0.002 A 
ATOM     11  C   UNL d   1     -58.889 -98.837 -45.878  0.00  0.00     0.000 A 
ATOM     12  C   UNL d   1     -59.653 -98.777 -45.586  0.00  0.00     0.002 A 
ENDBRANCH   1   4
BRANCH   1  13
ATOM     13  C   UNL d   1     -56.209 -99.015 -44.003  0.00  0.00     0.161 C 
BRANCH  13  14
ATOM     14  C   UNL d   1     -55.870 -99.732 -44.244  0.00  0.00     0.291 C 
ATOM     15  N   UNL d   1     -55.733-100.319 -43.680  0.00  0.00    -0.207 NA
ATOM     16  O   UNL d   1     -55.672 -99.860 -45.027  0.00  0.00    -0.264 OA
BRANCH  15  17
ATOM     17  C   UNL d   1     -55.394-101.036 -43.915  0.00  0.00     0.085 A 
ATOM     18  C   UNL d   1     -55.053-101.533 -43.354  0.00  0.00     0.018 A 
ATOM     19  C   UNL d   1     -54.712-102.251 -43.580  0.00  0.00     0.002 A 
ATOM     20  C   UNL d   1     -55.051-101.309 -42.551  0.00  0.00     0.002 C 
ATOM     21  C   UNL d   1     -54.714-102.472 -44.373  0.00  0.00     0.000 A 
ATOM     22  C   UNL d   1     -55.054-101.979 -44.940  0.00  0.00     0.002 A 
ATOM     23  C   UNL d   1     -55.394-101.261 -44.709  0.00  0.00     0.019 A 
ATOM     24  C   UNL d   1     -55.059-102.198 -45.751  0.00  0.00     0.000 C 
ENDBRANCH  15  17
ENDBRANCH  13  14
ENDBRANCH   1  13
TORSDOF 4
ENDMDL
