MODEL 1
REMARK VINA RESULT:      38.0      0.000      0.000
REMARK  2 active torsions:
REMARK  status: ('A' for Active; 'I' for Inactive)
REMARK    1  A    between atoms: N_4  and  C_2 
REMARK       I    between atoms: C_3  and  N_4 
REMARK    2  A    between atoms: C_5  and  C_3 
ROOT
ATOM      1  C   UNL d   1     -55.409 -99.245 -45.216  0.00  0.00     0.282 C 
ATOM      2  N   UNL d   1     -56.137 -98.867 -45.326  0.00  0.00    -0.182 NA
ATOM      3  O   UNL d   1     -54.870 -99.275 -45.842  0.00  0.00    -0.265 OA
ENDROOT
BRANCH   1   4
ATOM      4  C   UNL d   1     -55.235 -99.587 -44.483  0.00  0.00     0.069 A 
ATOM      5  C   UNL d   1     -55.087-100.391 -44.447  0.00  0.00     0.063 A 
ATOM      6  C   UNL d   1     -54.913-100.737 -43.717  0.00  0.00     0.023 A 
ATOM      7 CL   UNL d   1     -55.107-100.857 -45.120  0.00  0.00    -0.082 Cl
ATOM      8  C   UNL d   1     -54.891-100.270 -43.036  0.00  0.00     0.059 A 
ATOM      9  C   UNL d   1     -55.041 -99.466 -43.084  0.00  0.00     0.012 A 
ATOM     10 CL   UNL d   1     -54.713-100.627 -42.297  0.00  0.00    -0.082 Cl
ATOM     11  C   UNL d   1     -55.213 -99.133 -43.813  0.00  0.00     0.006 A 
ENDBRANCH   1   4
BRANCH   2  12
ATOM     12  C   UNL d   1     -56.678 -98.834 -44.709  0.00  0.00     0.204 A 
ATOM     13  N   UNL d   1     -57.502 -98.858 -44.787  0.00  0.00    -0.203 NA
ATOM     14  C   UNL d   1     -57.839 -98.810 -44.026  0.00  0.00     0.174 A 
ATOM     15  S   UNL d   1     -57.207 -98.756 -43.489  0.00  0.00    -0.018 SA
ATOM     16  S   UNL d   1     -58.643 -98.815 -43.845  0.00  0.00    -0.050 SA
ATOM     17  S   UNL d   1     -56.466 -98.771 -43.917  0.00  0.00    -0.010 SA
ENDBRANCH   2  12
TORSDOF 2
ENDMDL
MODEL 2
REMARK VINA RESULT:      38.1      2.117      3.127
REMARK  2 active torsions:
REMARK  status: ('A' for Active; 'I' for Inactive)
REMARK    1  A    between atoms: N_4  and  C_2 
REMARK       I    between atoms: C_3  and  N_4 
REMARK    2  A    between atoms: C_5  and  C_3 
ROOT
ATOM      1  C   UNL d   1     -57.723 -98.917 -45.271  0.00  0.00     0.282 C 
ATOM      2  N   UNL d   1     -56.918 -99.087 -45.354  0.00  0.00    -0.182 NA
ATOM      3  O   UNL d   1     -58.181 -98.790 -45.947  0.00  0.00    -0.265 OA
ENDROOT
BRANCH   1   4
ATOM      4  C   UNL d   1     -58.054 -98.879 -44.514  0.00  0.00     0.069 A 
ATOM      5  C   UNL d   1     -58.868 -98.928 -44.436  0.00  0.00     0.063 A 
ATOM      6  C   UNL d   1     -59.204 -98.890 -43.682  0.00  0.00     0.023 A 
ATOM      7 CL   UNL d   1     -59.353 -99.013 -45.090  0.00  0.00    -0.082 Cl
ATOM      8  C   UNL d   1     -58.718 -98.805 -43.019  0.00  0.00     0.059 A 
ATOM      9  C   UNL d   1     -57.905 -98.757 -43.110  0.00  0.00     0.012 A 
ATOM     10 CL   UNL d   1     -59.065 -98.767 -42.256  0.00  0.00    -0.082 Cl
ATOM     11  C   UNL d   1     -57.582 -98.795 -43.862  0.00  0.00     0.006 A 
ENDBRANCH   1   4
BRANCH   2  12
ATOM     12  C   UNL d   1     -56.455 -99.215 -44.687  0.00  0.00     0.204 A 
ATOM     13  N   UNL d   1     -55.807 -98.756 -44.453  0.00  0.00    -0.203 NA
ATOM     14  C   UNL d   1     -55.499 -99.078 -43.748  0.00  0.00     0.174 A 
ATOM     15  S   UNL d   1     -55.970 -99.736 -43.561  0.00  0.00    -0.018 SA
ATOM     16  S   UNL d   1     -54.852 -98.795 -43.323  0.00  0.00    -0.050 SA
ATOM     17  S   UNL d   1     -56.581 -99.828 -44.154  0.00  0.00    -0.010 SA
ENDBRANCH   2  12
TORSDOF 2
ENDMDL
MODEL 3
REMARK VINA RESULT:      38.5      1.327      1.715
REMARK  2 active torsions:
REMARK  status: ('A' for Active; 'I' for Inactive)
REMARK    1  A    between atoms: N_4  and  C_2 
REMARK       I    between atoms: C_3  and  N_4 
REMARK    2  A    between atoms: C_5  and  C_3 
ROOT
ATOM      1  C   UNL d   1     -54.994-101.310 -44.786  0.00  0.00     0.282 C 
ATOM      2  N   UNL d   1     -55.345-100.691 -45.208  0.00  0.00    -0.182 NA
ATOM      3  O   UNL d   1     -54.720-101.974 -45.194  0.00  0.00    -0.265 OA
ENDROOT
BRANCH   1   4
ATOM      4  C   UNL d   1     -54.924-101.252 -43.963  0.00  0.00     0.069 A 
ATOM      5  C   UNL d   1     -54.827-101.938 -43.526  0.00  0.00     0.063 A 
ATOM      6  C   UNL d   1     -54.757-101.886 -42.705  0.00  0.00     0.023 A 
ATOM      7 CL   UNL d   1     -54.798-102.672 -43.888  0.00  0.00    -0.082 Cl
ATOM      8  C   UNL d   1     -54.785-101.147 -42.335  0.00  0.00     0.059 A 
ATOM      9  C   UNL d   1     -54.883-100.468 -42.783  0.00  0.00     0.012 A 
ATOM     10 CL   UNL d   1     -54.713-101.100 -41.501  0.00  0.00    -0.082 Cl
ATOM     11  C   UNL d   1     -54.952-100.530 -43.598  0.00  0.00     0.006 A 
ENDBRANCH   1   4
BRANCH   2  12
ATOM     12  C   UNL d   1     -55.620-100.027 -44.809  0.00  0.00     0.204 A 
ATOM     13  N   UNL d   1     -56.412 -99.861 -44.634  0.00  0.00    -0.203 NA
ATOM     14  C   UNL d   1     -56.444 -99.135 -44.226  0.00  0.00     0.174 A 
ATOM     15  S   UNL d   1     -55.661 -98.866 -44.156  0.00  0.00    -0.018 SA
ATOM     16  S   UNL d   1     -57.123 -98.761 -43.946  0.00  0.00    -0.050 SA
ATOM     17  S   UNL d   1     -55.132 -99.429 -44.525  0.00  0.00    -0.010 SA
ENDBRANCH   2  12
TORSDOF 2
ENDMDL
