MODEL 1
REMARK VINA RESULT:      13.6      0.000      0.000
REMARK  1 active torsions:
REMARK  status: ('A' for Active; 'I' for Inactive)
REMARK    1  A    between atoms: C_6  and  C_1 
ROOT
ATOM      1  C   UNL d   1      44.267 -15.401  36.665  0.00  0.00     0.162 A 
ATOM      2  N   UNL d   1      43.992 -16.152  36.507  0.00  0.00    -0.225 NA
ATOM      3  N   UNL d   1      43.619 -14.897  36.728  0.00  0.00    -0.225 NA
ATOM      4  C   UNL d   1      43.161 -16.116  36.473  0.00  0.00     0.101 A 
ATOM      5  C   UNL d   1      42.931 -15.342  36.609  0.00  0.00     0.101 A 
ATOM      6  C   UNL d   1      42.603 -16.704  36.333  0.00  0.00     0.021 A 
ATOM      7  C   UNL d   1      42.136 -15.138  36.609  0.00  0.00     0.021 A 
ATOM      8  C   UNL d   1      41.571 -15.722  36.469  0.00  0.00     0.002 A 
ATOM      9  C   UNL d   1      41.806 -16.510  36.330  0.00  0.00     0.002 A 
ENDROOT
BRANCH   1  10
ATOM     10  C   UNL d   1      45.060 -15.179  36.746  0.00  0.00     0.037 A 
ATOM     11  C   UNL d   1      45.273 -14.542  37.231  0.00  0.00     0.024 A 
ATOM     12  C   UNL d   1      46.061 -14.321  37.312  0.00  0.00     0.103 A 
ATOM     13  N   UNL d   1      46.260 -13.676  37.805  0.00  0.00    -0.148 N 
ATOM     14  C   UNL d   1      46.647 -14.731  36.913  0.00  0.00     0.021 A 
ATOM     15  C   UNL d   1      46.448 -15.376  36.421  0.00  0.00     0.002 A 
ATOM     16  C   UNL d   1      45.645 -15.601  36.338  0.00  0.00     0.003 A 
ENDBRANCH   1  10
TORSDOF 1
ENDMDL
MODEL 2
REMARK VINA RESULT:      14.1      0.750      3.681
REMARK  1 active torsions:
REMARK  status: ('A' for Active; 'I' for Inactive)
REMARK    1  A    between atoms: C_6  and  C_1 
ROOT
ATOM      1  C   UNL d   1      43.969 -15.419  36.677  0.00  0.00     0.162 A 
ATOM      2  N   UNL d   1      44.213 -14.792  37.137  0.00  0.00    -0.225 NA
ATOM      3  N   UNL d   1      44.635 -15.770  36.344  0.00  0.00    -0.225 NA
ATOM      4  C   UNL d   1      45.043 -14.751  37.090  0.00  0.00     0.101 A 
ATOM      5  C   UNL d   1      45.304 -15.354  36.601  0.00  0.00     0.101 A 
ATOM      6  C   UNL d   1      45.577 -14.232  37.440  0.00  0.00     0.021 A 
ATOM      7  C   UNL d   1      46.104 -15.452  36.450  0.00  0.00     0.021 A 
ATOM      8  C   UNL d   1      46.645 -14.935  36.798  0.00  0.00     0.002 A 
ATOM      9  C   UNL d   1      46.380 -14.321  37.296  0.00  0.00     0.002 A 
ENDROOT
BRANCH   1  10
ATOM     10  C   UNL d   1      43.186 -15.664  36.562  0.00  0.00     0.037 A 
ATOM     11  C   UNL d   1      42.571 -15.111  36.538  0.00  0.00     0.024 A 
ATOM     12  C   UNL d   1      41.793 -15.355  36.424  0.00  0.00     0.103 A 
ATOM     13  N   UNL d   1      41.182 -14.785  36.402  0.00  0.00    -0.148 N 
ATOM     14  C   UNL d   1      41.619 -16.149  36.333  0.00  0.00     0.021 A 
ATOM     15  C   UNL d   1      42.230 -16.719  36.355  0.00  0.00     0.002 A 
ATOM     16  C   UNL d   1      43.022 -16.471  36.471  0.00  0.00     0.003 A 
ENDBRANCH   1  10
TORSDOF 1
ENDMDL
MODEL 3
REMARK VINA RESULT:      14.3      7.621      8.299
REMARK  1 active torsions:
REMARK  status: ('A' for Active; 'I' for Inactive)
REMARK    1  A    between atoms: C_6  and  C_1 
ROOT
ATOM      1  C   UNL d   1      45.848 -16.762  44.323  0.00  0.00     0.162 A 
ATOM      2  N   UNL d   1      45.991 -17.354  44.865  0.00  0.00    -0.225 NA
ATOM      3  N   UNL d   1      45.991 -17.063  43.570  0.00  0.00    -0.225 NA
ATOM      4  C   UNL d   1      46.225 -18.033  44.445  0.00  0.00     0.101 A 
ATOM      5  C   UNL d   1      46.225 -17.853  43.646  0.00  0.00     0.101 A 
ATOM      6  C   UNL d   1      46.435 -18.784  44.709  0.00  0.00     0.021 A 
ATOM      7  C   UNL d   1      46.435 -18.421  43.092  0.00  0.00     0.021 A 
ATOM      8  C   UNL d   1      46.647 -19.175  43.349  0.00  0.00     0.002 A 
ATOM      9  C   UNL d   1      46.647 -19.358  44.163  0.00  0.00     0.002 A 
ENDROOT
BRANCH   1  10
ATOM     10  C   UNL d   1      45.602 -15.991  44.496  0.00  0.00     0.037 A 
ATOM     11  C   UNL d   1      46.127 -15.355  44.426  0.00  0.00     0.024 A 
ATOM     12  C   UNL d   1      45.883 -14.588  44.598  0.00  0.00     0.103 A 
ATOM     13  N   UNL d   1      46.424 -13.956  44.522  0.00  0.00    -0.148 N 
ATOM     14  C   UNL d   1      45.115 -14.445  44.841  0.00  0.00     0.021 A 
ATOM     15  C   UNL d   1      44.573 -15.077  44.917  0.00  0.00     0.002 A 
ATOM     16  C   UNL d   1      44.822 -15.858  44.742  0.00  0.00     0.003 A 
ENDBRANCH   1  10
TORSDOF 1
ENDMDL
MODEL 4
REMARK VINA RESULT:      14.4      7.615      8.341
REMARK  1 active torsions:
REMARK  status: ('A' for Active; 'I' for Inactive)
REMARK    1  A    between atoms: C_6  and  C_1 
ROOT
ATOM      1  C   UNL d   1      45.894 -16.691  44.352  0.00  0.00     0.162 A 
ATOM      2  N   UNL d   1      45.179 -16.427  44.640  0.00  0.00    -0.225 NA
ATOM      3  N   UNL d   1      46.375 -16.037  44.216  0.00  0.00    -0.225 NA
ATOM      4  C   UNL d   1      45.215 -15.596  44.685  0.00  0.00     0.101 A 
ATOM      5  C   UNL d   1      45.953 -15.356  44.424  0.00  0.00     0.101 A 
ATOM      6  C   UNL d   1      44.655 -15.046  44.935  0.00  0.00     0.021 A 
ATOM      7  C   UNL d   1      46.149 -14.559  44.406  0.00  0.00     0.021 A 
ATOM      8  C   UNL d   1      45.593 -14.002  44.654  0.00  0.00     0.002 A 
ATOM      9  C   UNL d   1      44.842 -14.247  44.920  0.00  0.00     0.002 A 
ENDROOT
BRANCH   1  10
ATOM     10  C   UNL d   1      46.104 -17.480  44.217  0.00  0.00     0.037 A 
ATOM     11  C   UNL d   1      46.184 -17.770  43.446  0.00  0.00     0.024 A 
ATOM     12  C   UNL d   1      46.393 -18.555  43.313  0.00  0.00     0.103 A 
ATOM     13  N   UNL d   1      46.470 -18.833  42.528  0.00  0.00    -0.148 N 
ATOM     14  C   UNL d   1      46.523 -19.060  43.943  0.00  0.00     0.021 A 
ATOM     15  C   UNL d   1      46.445 -18.782  44.727  0.00  0.00     0.002 A 
ATOM     16  C   UNL d   1      46.233 -17.983  44.864  0.00  0.00     0.003 A 
ENDBRANCH   1  10
TORSDOF 1
ENDMDL
MODEL 5
REMARK VINA RESULT:      15.2      7.448      8.094
REMARK  1 active torsions:
REMARK  status: ('A' for Active; 'I' for Inactive)
REMARK    1  A    between atoms: C_6  and  C_1 
ROOT
ATOM      1  C   UNL d   1      45.582 -14.550  44.380  0.00  0.00     0.162 A 
ATOM      2  N   UNL d   1      46.172 -15.063  44.149  0.00  0.00    -0.225 NA
ATOM      3  N   UNL d   1      44.975 -14.991  44.720  0.00  0.00    -0.225 NA
ATOM      4  C   UNL d   1      45.930 -15.834  44.347  0.00  0.00     0.101 A 
ATOM      5  C   UNL d   1      45.192 -15.790  44.699  0.00  0.00     0.101 A 
ATOM      6  C   UNL d   1      46.305 -16.559  44.242  0.00  0.00     0.021 A 
ATOM      7  C   UNL d   1      44.812 -16.470  44.955  0.00  0.00     0.021 A 
ATOM      8  C   UNL d   1      45.181 -17.200  44.853  0.00  0.00     0.002 A 
ATOM      9  C   UNL d   1      45.932 -17.245  44.494  0.00  0.00     0.002 A 
ENDROOT
BRANCH   1  10
ATOM     10  C   UNL d   1      45.588 -13.727  44.291  0.00  0.00     0.037 A 
ATOM     11  C   UNL d   1      45.225 -13.371  43.638  0.00  0.00     0.024 A 
ATOM     12  C   UNL d   1      45.232 -12.552  43.549  0.00  0.00     0.103 A 
ATOM     13  N   UNL d   1      44.861 -12.207  42.884  0.00  0.00    -0.148 N 
ATOM     14  C   UNL d   1      45.598 -12.080  44.108  0.00  0.00     0.021 A 
ATOM     15  C   UNL d   1      45.969 -12.425  44.772  0.00  0.00     0.002 A 
ATOM     16  C   UNL d   1      45.963 -13.258  44.863  0.00  0.00     0.003 A 
ENDBRANCH   1  10
TORSDOF 1
ENDMDL
