MODEL 1
REMARK VINA RESULT:      -6.5      0.000      0.000
REMARK  5 active torsions:
REMARK  status: ('A' for Active; 'I' for Inactive)
REMARK    1  A    between atoms: C_7  and  N_1 
REMARK    2  A    between atoms: C_15  and  C_5 
REMARK    3  A    between atoms: C_14  and  C_6 
REMARK    4  A    between atoms: C_8  and  C_7 
REMARK       I    between atoms: N_11  and  C_8 
REMARK    5  A    between atoms: C_13  and  N_11 
ROOT
ATOM      1  N   UNL d   1     -48.939  13.581  23.140  0.00  0.00    -0.235 N 
ATOM      2  C   UNL d   1     -49.311  12.851  23.278  0.00  0.00     0.273 A 
ATOM      3  C   UNL d   1     -49.340  14.175  22.719  0.00  0.00     0.273 A 
ATOM      4  S   UNL d   1     -50.470  13.305  22.580  0.00  0.00    -0.077 SA
ATOM      5  C   UNL d   1     -50.105  14.029  22.442  0.00  0.00     0.086 A 
ATOM      6  C   UNL d   1     -50.069  12.723  22.997  0.00  0.00     0.086 A 
ATOM      7  O   UNL d   1     -48.971  14.899  22.582  0.00  0.00    -0.266 OA
ATOM      8  O   UNL d   1     -48.914  12.257  23.698  0.00  0.00    -0.266 OA
ENDROOT
BRANCH   1   9
ATOM      9  C   UNL d   1     -48.173  13.711  23.424  0.00  0.00     0.148 C 
BRANCH   9  10
ATOM     10  C   UNL d   1     -47.524  13.468  22.977  0.00  0.00     0.297 C 
ATOM     11  N   UNL d   1     -46.773  13.449  23.318  0.00  0.00    -0.207 NA
ATOM     12  O   UNL d   1     -47.633  13.244  22.188  0.00  0.00    -0.264 OA
BRANCH  11  13
ATOM     13  C   UNL d   1     -46.124  13.205  22.871  0.00  0.00     0.085 A 
ATOM     14  C   UNL d   1     -45.776  13.721  22.340  0.00  0.00     0.019 A 
ATOM     15  C   UNL d   1     -45.130  13.473  21.898  0.00  0.00     0.002 A 
ATOM     16  C   UNL d   1     -44.827  12.710  21.981  0.00  0.00     0.000 A 
ATOM     17  C   UNL d   1     -45.183  12.190  22.521  0.00  0.00     0.002 A 
ATOM     18  C   UNL d   1     -45.827  12.441  22.960  0.00  0.00     0.019 A 
ENDBRANCH  11  13
ENDBRANCH   9  10
ENDBRANCH   1   9
BRANCH   6  19
ATOM     19  C   UNL d   1     -50.442  11.990  23.135  0.00  0.00     0.011 C 
ATOM     20  C   UNL d   1     -51.061  11.937  23.680  0.00  0.00     0.001 C 
ENDBRANCH   6  19
BRANCH   5  21
ATOM     21  C   UNL d   1     -50.502  14.620  22.023  0.00  0.00     0.011 C 
ATOM     22  C   UNL d   1     -51.056  14.413  21.445  0.00  0.00     0.001 C 
ENDBRANCH   5  21
TORSDOF 5
ENDMDL
MODEL 2
REMARK VINA RESULT:      -6.5      1.366      4.139
REMARK  5 active torsions:
REMARK  status: ('A' for Active; 'I' for Inactive)
REMARK    1  A    between atoms: C_7  and  N_1 
REMARK    2  A    between atoms: C_15  and  C_5 
REMARK    3  A    between atoms: C_14  and  C_6 
REMARK    4  A    between atoms: C_8  and  C_7 
REMARK       I    between atoms: N_11  and  C_8 
REMARK    5  A    between atoms: C_13  and  N_11 
ROOT
ATOM      1  N   UNL d   1     -47.092  13.212  23.078  0.00  0.00    -0.235 N 
ATOM      2  C   UNL d   1     -47.063  12.418  23.321  0.00  0.00     0.273 A 
ATOM      3  C   UNL d   1     -46.434  13.552  22.700  0.00  0.00     0.273 A 
ATOM      4  S   UNL d   1     -45.734  12.307  22.813  0.00  0.00    -0.077 SA
ATOM      5  C   UNL d   1     -45.759  13.092  22.571  0.00  0.00     0.086 A 
ATOM      6  C   UNL d   1     -46.387  11.977  23.186  0.00  0.00     0.086 A 
ATOM      7  O   UNL d   1     -46.462  14.340  22.459  0.00  0.00    -0.266 OA
ATOM      8  O   UNL d   1     -47.718  12.077  23.698  0.00  0.00    -0.266 OA
ENDROOT
BRANCH   1   9
ATOM      9  C   UNL d   1     -47.775  13.659  23.214  0.00  0.00     0.148 C 
BRANCH   9  10
ATOM     10  C   UNL d   1     -48.405  13.614  22.684  0.00  0.00     0.297 C 
ATOM     11  N   UNL d   1     -49.170  13.786  22.941  0.00  0.00    -0.207 NA
ATOM     12  O   UNL d   1     -48.263  13.397  21.899  0.00  0.00    -0.264 OA
BRANCH  11  13
ATOM     13  C   UNL d   1     -49.801  13.741  22.411  0.00  0.00     0.085 A 
ATOM     14  C   UNL d   1     -50.292  13.087  22.413  0.00  0.00     0.019 A 
ATOM     15  C   UNL d   1     -50.919  13.048  21.883  0.00  0.00     0.002 A 
ATOM     16  C   UNL d   1     -51.060  13.660  21.349  0.00  0.00     0.000 A 
ATOM     17  C   UNL d   1     -50.559  14.322  21.349  0.00  0.00     0.002 A 
ATOM     18  C   UNL d   1     -49.936  14.357  21.879  0.00  0.00     0.019 A 
ENDBRANCH  11  13
ENDBRANCH   9  10
ENDBRANCH   1   9
BRANCH   6  19
ATOM     19  C   UNL d   1     -46.359  11.180  23.430  0.00  0.00     0.011 C 
ATOM     20  C   UNL d   1     -45.635  10.833  23.624  0.00  0.00     0.001 C 
ENDBRANCH   6  19
BRANCH   5  21
ATOM     21  C   UNL d   1     -45.106  13.431  22.196  0.00  0.00     0.011 C 
ATOM     22  C   UNL d   1     -44.704  13.008  21.609  0.00  0.00     0.001 C 
ENDBRANCH   5  21
TORSDOF 5
ENDMDL
MODEL 3
REMARK VINA RESULT:      -6.3      0.329      1.807
REMARK  5 active torsions:
REMARK  status: ('A' for Active; 'I' for Inactive)
REMARK    1  A    between atoms: C_7  and  N_1 
REMARK    2  A    between atoms: C_15  and  C_5 
REMARK    3  A    between atoms: C_14  and  C_6 
REMARK    4  A    between atoms: C_8  and  C_7 
REMARK       I    between atoms: N_11  and  C_8 
REMARK    5  A    between atoms: C_13  and  N_11 
ROOT
ATOM      1  N   UNL d   1     -48.719  13.403  22.994  0.00  0.00    -0.235 N 
ATOM      2  C   UNL d   1     -49.098  13.949  22.495  0.00  0.00     0.273 A 
ATOM      3  C   UNL d   1     -49.103  12.694  23.197  0.00  0.00     0.273 A 
ATOM      4  S   UNL d   1     -50.231  13.087  22.406  0.00  0.00    -0.077 SA
ATOM      5  C   UNL d   1     -49.859  12.544  22.899  0.00  0.00     0.086 A 
ATOM      6  C   UNL d   1     -49.847  13.785  22.209  0.00  0.00     0.086 A 
ATOM      7  O   UNL d   1     -48.727  12.152  23.691  0.00  0.00    -0.266 OA
ATOM      8  O   UNL d   1     -48.717  14.656  22.291  0.00  0.00    -0.266 OA
ENDROOT
BRANCH   1   9
ATOM      9  C   UNL d   1     -47.962  13.569  23.283  0.00  0.00     0.148 C 
BRANCH   9  10
ATOM     10  C   UNL d   1     -47.299  13.277  22.888  0.00  0.00     0.297 C 
ATOM     11  N   UNL d   1     -46.543  13.454  23.167  0.00  0.00    -0.207 NA
ATOM     12  O   UNL d   1     -47.401  12.808  22.214  0.00  0.00    -0.264 OA
BRANCH  11  13
ATOM     13  C   UNL d   1     -45.881  13.162  22.772  0.00  0.00     0.085 A 
ATOM     14  C   UNL d   1     -45.586  12.422  22.958  0.00  0.00     0.019 A 
ATOM     15  C   UNL d   1     -44.926  12.136  22.561  0.00  0.00     0.002 A 
ATOM     16  C   UNL d   1     -44.556  12.586  21.977  0.00  0.00     0.000 A 
ATOM     17  C   UNL d   1     -44.858  13.336  21.791  0.00  0.00     0.002 A 
ATOM     18  C   UNL d   1     -45.516  13.617  22.189  0.00  0.00     0.019 A 
ENDBRANCH  11  13
ENDBRANCH   9  10
ENDBRANCH   1   9
BRANCH   6  19
ATOM     19  C   UNL d   1     -50.227  14.333  21.709  0.00  0.00     0.011 C 
ATOM     20  C   UNL d   1     -51.029  14.243  21.529  0.00  0.00     0.001 C 
ENDBRANCH   6  19
BRANCH   5  21
ATOM     21  C   UNL d   1     -50.240  11.840  23.102  0.00  0.00     0.011 C 
ATOM     22  C   UNL d   1     -50.955  11.863  23.518  0.00  0.00     0.001 C 
ENDBRANCH   5  21
TORSDOF 5
ENDMDL
MODEL 4
REMARK VINA RESULT:      -5.6      9.307     10.280
REMARK  5 active torsions:
REMARK  status: ('A' for Active; 'I' for Inactive)
REMARK    1  A    between atoms: C_7  and  N_1 
REMARK    2  A    between atoms: C_15  and  C_5 
REMARK    3  A    between atoms: C_14  and  C_6 
REMARK    4  A    between atoms: C_8  and  C_7 
REMARK       I    between atoms: N_11  and  C_8 
REMARK    5  A    between atoms: C_13  and  N_11 
ROOT
ATOM      1  N   UNL d   1     -39.384  15.507  18.446  0.00  0.00    -0.235 N 
ATOM      2  C   UNL d   1     -40.185  15.576  18.237  0.00  0.00     0.273 A 
ATOM      3  C   UNL d   1     -38.825  15.291  17.870  0.00  0.00     0.273 A 
ATOM      4  S   UNL d   1     -39.869  15.220  16.892  0.00  0.00    -0.077 SA
ATOM      5  C   UNL d   1     -39.075  15.150  17.095  0.00  0.00     0.086 A 
ATOM      6  C   UNL d   1     -40.417  15.433  17.466  0.00  0.00     0.086 A 
ATOM      7  O   UNL d   1     -38.030  15.222  18.077  0.00  0.00    -0.266 OA
ATOM      8  O   UNL d   1     -40.745  15.791  18.810  0.00  0.00    -0.266 OA
ENDROOT
BRANCH   1   9
ATOM      9  C   UNL d   1     -39.149  15.651  19.226  0.00  0.00     0.148 C 
BRANCH   9  10
ATOM     10  C   UNL d   1     -39.111  15.028  19.765  0.00  0.00     0.297 C 
ATOM     11  N   UNL d   1     -38.734  15.134  20.491  0.00  0.00    -0.207 NA
ATOM     12  O   UNL d   1     -39.454  14.301  19.571  0.00  0.00    -0.264 OA
BRANCH  11  13
ATOM     13  C   UNL d   1     -38.697  14.511  21.030  0.00  0.00     0.085 A 
ATOM     14  C   UNL d   1     -39.308  14.391  21.560  0.00  0.00     0.019 A 
ATOM     15  C   UNL d   1     -39.266  13.768  22.094  0.00  0.00     0.002 A 
ATOM     16  C   UNL d   1     -38.614  13.263  22.104  0.00  0.00     0.000 A 
ATOM     17  C   UNL d   1     -37.995  13.388  21.566  0.00  0.00     0.002 A 
ATOM     18  C   UNL d   1     -38.042  14.010  21.034  0.00  0.00     0.019 A 
ENDBRANCH  11  13
ENDBRANCH   9  10
ENDBRANCH   1   9
BRANCH   6  19
ATOM     19  C   UNL d   1     -41.221  15.503  17.257  0.00  0.00     0.011 C 
ATOM     20  C   UNL d   1     -41.437  15.922  16.578  0.00  0.00     0.001 C 
ENDBRANCH   6  19
BRANCH   5  21
ATOM     21  C   UNL d   1     -38.519  14.936  16.523  0.00  0.00     0.011 C 
ATOM     22  C   UNL d   1     -38.610  14.229  16.105  0.00  0.00     0.001 C 
ENDBRANCH   5  21
TORSDOF 5
ENDMDL
MODEL 5
REMARK VINA RESULT:      -4.9      1.719      2.457
REMARK  5 active torsions:
REMARK  status: ('A' for Active; 'I' for Inactive)
REMARK    1  A    between atoms: C_7  and  N_1 
REMARK    2  A    between atoms: C_15  and  C_5 
REMARK    3  A    between atoms: C_14  and  C_6 
REMARK    4  A    between atoms: C_8  and  C_7 
REMARK       I    between atoms: N_11  and  C_8 
REMARK    5  A    between atoms: C_13  and  N_11 
ROOT
ATOM      1  N   UNL d   1     -47.856  12.459  23.046  0.00  0.00    -0.235 N 
ATOM      2  C   UNL d   1     -47.765  13.284  23.075  0.00  0.00     0.273 A 
ATOM      3  C   UNL d   1     -48.342  12.118  22.463  0.00  0.00     0.273 A 
ATOM      4  S   UNL d   1     -48.634  13.424  21.952  0.00  0.00    -0.077 SA
ATOM      5  C   UNL d   1     -48.727  12.608  21.920  0.00  0.00     0.086 A 
ATOM      6  C   UNL d   1     -48.153  13.755  22.530  0.00  0.00     0.086 A 
ATOM      7  O   UNL d   1     -48.433  11.300  22.434  0.00  0.00    -0.266 OA
ATOM      8  O   UNL d   1     -47.281  13.627  23.655  0.00  0.00    -0.266 OA
ENDROOT
BRANCH   1   9
ATOM      9  C   UNL d   1     -47.464  11.983  23.596  0.00  0.00     0.148 C 
BRANCH   9  10
ATOM     10  C   UNL d   1     -46.648  11.876  23.538  0.00  0.00     0.297 C 
ATOM     11  N   UNL d   1     -46.344  11.141  23.321  0.00  0.00    -0.207 NA
ATOM     12  O   UNL d   1     -46.142  12.510  23.698  0.00  0.00    -0.264 OA
BRANCH  11  13
ATOM     13  C   UNL d   1     -45.528  11.034  23.262  0.00  0.00     0.085 A 
ATOM     14  C   UNL d   1     -45.086  11.518  22.773  0.00  0.00     0.019 A 
ATOM     15  C   UNL d   1     -44.274  11.407  22.718  0.00  0.00     0.002 A 
ATOM     16  C   UNL d   1     -43.898  10.814  23.151  0.00  0.00     0.000 A 
ATOM     17  C   UNL d   1     -44.350  10.325  23.646  0.00  0.00     0.002 A 
ATOM     18  C   UNL d   1     -45.159  10.439  23.697  0.00  0.00     0.019 A 
ENDBRANCH  11  13
ENDBRANCH   9  10
ENDBRANCH   1   9
BRANCH   6  19
ATOM     19  C   UNL d   1     -48.061  14.583  22.560  0.00  0.00     0.011 C 
ATOM     20  C   UNL d   1     -48.714  15.067  22.710  0.00  0.00     0.001 C 
ENDBRANCH   6  19
BRANCH   5  21
ATOM     21  C   UNL d   1     -49.209  12.269  21.342  0.00  0.00     0.011 C 
ATOM     22  C   UNL d   1     -49.986  12.535  21.245  0.00  0.00     0.001 C 
ENDBRANCH   5  21
TORSDOF 5
ENDMDL
MODEL 6
REMARK VINA RESULT:      -4.8      7.907     10.169
REMARK  5 active torsions:
REMARK  status: ('A' for Active; 'I' for Inactive)
REMARK    1  A    between atoms: C_7  and  N_1 
REMARK    2  A    between atoms: C_15  and  C_5 
REMARK    3  A    between atoms: C_14  and  C_6 
REMARK    4  A    between atoms: C_8  and  C_7 
REMARK       I    between atoms: N_11  and  C_8 
REMARK    5  A    between atoms: C_13  and  N_11 
ROOT
ATOM      1  N   UNL d   1     -39.250  15.056  19.773  0.00  0.00    -0.235 N 
ATOM      2  C   UNL d   1     -38.830  14.580  20.308  0.00  0.00     0.273 A 
ATOM      3  C   UNL d   1     -40.049  15.233  19.919  0.00  0.00     0.273 A 
ATOM      4  S   UNL d   1     -39.994  14.459  21.123  0.00  0.00    -0.077 SA
ATOM      5  C   UNL d   1     -40.414  14.931  20.596  0.00  0.00     0.086 A 
ATOM      6  C   UNL d   1     -39.205  14.288  20.974  0.00  0.00     0.086 A 
ATOM      7  O   UNL d   1     -40.467  15.705  19.388  0.00  0.00    -0.266 OA
ATOM      8  O   UNL d   1     -38.032  14.402  20.166  0.00  0.00    -0.266 OA
ENDROOT
BRANCH   1   9
ATOM      9  C   UNL d   1     -38.870  15.351  19.100  0.00  0.00     0.148 C 
BRANCH   9  10
ATOM     10  C   UNL d   1     -38.885  14.917  18.399  0.00  0.00     0.297 C 
ATOM     11  N   UNL d   1     -38.260  14.979  17.864  0.00  0.00    -0.207 NA
ATOM     12  O   UNL d   1     -39.528  14.423  18.239  0.00  0.00    -0.264 OA
BRANCH  11  13
ATOM     13  C   UNL d   1     -38.275  14.546  17.162  0.00  0.00     0.085 A 
ATOM     14  C   UNL d   1     -38.622  14.862  16.492  0.00  0.00     0.019 A 
ATOM     15  C   UNL d   1     -38.633  14.425  15.796  0.00  0.00     0.002 A 
ATOM     16  C   UNL d   1     -38.300  13.671  15.764  0.00  0.00     0.000 A 
ATOM     17  C   UNL d   1     -37.949  13.354  16.446  0.00  0.00     0.002 A 
ATOM     18  C   UNL d   1     -37.940  13.792  17.137  0.00  0.00     0.019 A 
ENDBRANCH  11  13
ENDBRANCH   9  10
ENDBRANCH   1   9
BRANCH   6  19
ATOM     19  C   UNL d   1     -38.782  13.810  21.511  0.00  0.00     0.011 C 
ATOM     20  C   UNL d   1     -38.970  13.826  22.315  0.00  0.00     0.001 C 
ENDBRANCH   6  19
BRANCH   5  21
ATOM     21  C   UNL d   1     -41.208  15.107  20.740  0.00  0.00     0.011 C 
ATOM     22  C   UNL d   1     -41.705  14.531  21.064  0.00  0.00     0.001 C 
ENDBRANCH   5  21
TORSDOF 5
ENDMDL
MODEL 7
REMARK VINA RESULT:      -4.5      8.333     10.894
REMARK  5 active torsions:
REMARK  status: ('A' for Active; 'I' for Inactive)
REMARK    1  A    between atoms: C_7  and  N_1 
REMARK    2  A    between atoms: C_15  and  C_5 
REMARK    3  A    between atoms: C_14  and  C_6 
REMARK    4  A    between atoms: C_8  and  C_7 
REMARK       I    between atoms: N_11  and  C_8 
REMARK    5  A    between atoms: C_13  and  N_11 
ROOT
ATOM      1  N   UNL d   1     -38.309  14.377  18.322  0.00  0.00    -0.235 N 
ATOM      2  C   UNL d   1     -38.272  14.777  17.595  0.00  0.00     0.273 A 
ATOM      3  C   UNL d   1     -38.197  13.554  18.345  0.00  0.00     0.273 A 
ATOM      4  S   UNL d   1     -38.016  13.545  16.924  0.00  0.00    -0.077 SA
ATOM      5  C   UNL d   1     -38.051  13.145  17.642  0.00  0.00     0.086 A 
ATOM      6  C   UNL d   1     -38.126  14.358  16.908  0.00  0.00     0.086 A 
ATOM      7  O   UNL d   1     -38.234  13.156  19.066  0.00  0.00    -0.266 OA
ATOM      8  O   UNL d   1     -38.382  15.599  17.569  0.00  0.00    -0.266 OA
ENDROOT
BRANCH   1   9
ATOM      9  C   UNL d   1     -38.456  14.801  19.017  0.00  0.00     0.148 C 
BRANCH   9  10
ATOM     10  C   UNL d   1     -39.230  14.886  19.289  0.00  0.00     0.297 C 
ATOM     11  N   UNL d   1     -39.371  15.048  20.085  0.00  0.00    -0.207 NA
ATOM     12  O   UNL d   1     -39.859  14.808  18.757  0.00  0.00    -0.264 OA
BRANCH  11  13
ATOM     13  C   UNL d   1     -40.145  15.134  20.357  0.00  0.00     0.085 A 
ATOM     14  C   UNL d   1     -40.498  14.532  20.784  0.00  0.00     0.019 A 
ATOM     15  C   UNL d   1     -41.269  14.622  21.051  0.00  0.00     0.002 A 
ATOM     16  C   UNL d   1     -41.693  15.313  20.896  0.00  0.00     0.000 A 
ATOM     17  C   UNL d   1     -41.332  15.921  20.463  0.00  0.00     0.002 A 
ATOM     18  C   UNL d   1     -40.563  15.827  20.197  0.00  0.00     0.019 A 
ENDBRANCH  11  13
ENDBRANCH   9  10
ENDBRANCH   1   9
BRANCH   6  19
ATOM     19  C   UNL d   1     -38.089  14.761  16.179  0.00  0.00     0.011 C 
ATOM     20  C   UNL d   1     -38.347  14.389  15.487  0.00  0.00     0.001 C 
ENDBRANCH   6  19
BRANCH   5  21
ATOM     21  C   UNL d   1     -37.941  12.327  17.666  0.00  0.00     0.011 C 
ATOM     22  C   UNL d   1     -38.405  11.835  17.190  0.00  0.00     0.001 C 
ENDBRANCH   5  21
TORSDOF 5
ENDMDL
