MODEL 1
REMARK VINA RESULT:      -7.1      0.000      0.000
REMARK  4 active torsions:
REMARK  status: ('A' for Active; 'I' for Inactive)
REMARK    1  A    between atoms: N_10  and  C_2 
REMARK    2  A    between atoms: N_11  and  C_6 
REMARK    3  A    between atoms: C_12  and  N_11 
REMARK    4  A    between atoms: O_19  and  C_15 
ROOT
ATOM      1  N   UNL d   1     -49.398  13.099  23.042  0.00  0.00    -0.041 NA
ATOM      2  C   UNL d   1     -49.045  13.788  23.155  0.00  0.00     0.738 A 
ATOM      3  C   UNL d   1     -48.997  12.434  23.143  0.00  0.00     0.187 A 
ATOM      4  N   UNL d   1     -48.287  13.813  23.370  0.00  0.00    -0.041 NA
ATOM      5  C   UNL d   1     -48.239  12.455  23.358  0.00  0.00     0.094 A 
ATOM      6  C   UNL d   1     -47.879  13.149  23.473  0.00  0.00     0.185 A 
ATOM      7  N   UNL d   1     -48.949  11.065  23.130  0.00  0.00    -0.162 NA
ATOM      8  N   UNL d   1     -49.358  11.741  23.027  0.00  0.00    -0.208 N 
ATOM      9  C   UNL d   1     -48.191  11.090  23.346  0.00  0.00     0.127 A 
ATOM     10  C   UNL d   1     -50.111  11.716  22.813  0.00  0.00     0.123 C 
ENDROOT
BRANCH   6  11
ATOM     11  N   UNL d   1     -47.090  13.183  23.697  0.00  0.00    -0.226 NA
BRANCH  11  12
ATOM     12  C   UNL d   1     -46.526  13.487  23.184  0.00  0.00     0.085 A 
ATOM     13  C   UNL d   1     -46.035  12.982  22.742  0.00  0.00     0.043 A 
ATOM     14  C   UNL d   1     -45.467  13.287  22.226  0.00  0.00     0.096 A 
ATOM     15  C   UNL d   1     -45.386  14.111  22.148  0.00  0.00     0.024 A 
ATOM     16  C   UNL d   1     -45.869  14.614  22.583  0.00  0.00     0.004 A 
ATOM     17  C   UNL d   1     -46.440  14.303  23.102  0.00  0.00     0.019 A 
BRANCH  14  18
ATOM     18  O   UNL d   1     -44.982  12.783  21.789  0.00  0.00    -0.328 OA
ATOM     19  C   UNL d   1     -44.164  12.747  21.656  0.00  0.00     0.181 C 
ENDBRANCH  14  18
ENDBRANCH  11  12
ENDBRANCH   6  11
BRANCH   2  20
ATOM     20  N   UNL d   1     -49.466  14.496  23.049  0.00  0.00    -0.133 N 
ATOM     21  C   UNL d   1     -49.861  14.843  23.683  0.00  0.00     0.125 A 
ATOM     22  C   UNL d   1     -50.280  15.547  23.575  0.00  0.00     0.142 A 
ATOM     23  O   UNL d   1     -50.305  15.909  22.826  0.00  0.00    -0.300 OA
ATOM     24  C   UNL d   1     -49.908  15.561  22.187  0.00  0.00     0.142 A 
ATOM     25  C   UNL d   1     -49.489  14.854  22.298  0.00  0.00     0.125 A 
ENDBRANCH   2  20
TORSDOF 4
ENDMDL
MODEL 2
REMARK VINA RESULT:      -6.4      1.422      2.758
REMARK  4 active torsions:
REMARK  status: ('A' for Active; 'I' for Inactive)
REMARK    1  A    between atoms: N_10  and  C_2 
REMARK    2  A    between atoms: N_11  and  C_6 
REMARK    3  A    between atoms: C_12  and  N_11 
REMARK    4  A    between atoms: O_19  and  C_15 
ROOT
ATOM      1  N   UNL d   1     -49.307  13.843  22.652  0.00  0.00    -0.041 NA
ATOM      2  C   UNL d   1     -48.935  13.222  22.950  0.00  0.00     0.738 A 
ATOM      3  C   UNL d   1     -48.927  14.522  22.567  0.00  0.00     0.187 A 
ATOM      4  N   UNL d   1     -48.180  13.280  23.165  0.00  0.00    -0.041 NA
ATOM      5  C   UNL d   1     -48.171  14.584  22.781  0.00  0.00     0.094 A 
ATOM      6  C   UNL d   1     -47.792  13.959  23.083  0.00  0.00     0.185 A 
ATOM      7  N   UNL d   1     -48.918  15.836  22.180  0.00  0.00    -0.162 NA
ATOM      8  N   UNL d   1     -49.306  15.146  22.266  0.00  0.00    -0.208 N 
ATOM      9  C   UNL d   1     -48.162  15.894  22.395  0.00  0.00     0.127 A 
ATOM     10  C   UNL d   1     -50.058  15.088  22.052  0.00  0.00     0.123 C 
ENDROOT
BRANCH   6  11
ATOM     11  N   UNL d   1     -47.005  14.012  23.308  0.00  0.00    -0.226 NA
BRANCH  11  12
ATOM     12  C   UNL d   1     -46.439  13.531  22.957  0.00  0.00     0.085 A 
ATOM     13  C   UNL d   1     -46.175  12.838  23.335  0.00  0.00     0.043 A 
ATOM     14  C   UNL d   1     -45.607  12.353  22.984  0.00  0.00     0.096 A 
ATOM     15  C   UNL d   1     -45.295  12.562  22.242  0.00  0.00     0.024 A 
ATOM     16  C   UNL d   1     -45.552  13.245  21.865  0.00  0.00     0.004 A 
ATOM     17  C   UNL d   1     -46.125  13.731  22.222  0.00  0.00     0.019 A 
BRANCH  14  18
ATOM     18  O   UNL d   1     -45.348  11.667  23.361  0.00  0.00    -0.328 OA
ATOM     19  C   UNL d   1     -45.736  11.016  23.698  0.00  0.00     0.181 C 
ENDBRANCH  14  18
ENDBRANCH  11  12
ENDBRANCH   6  11
BRANCH   2  20
ATOM     20  N   UNL d   1     -49.335  12.500  23.042  0.00  0.00    -0.133 N 
ATOM     21  C   UNL d   1     -49.129  11.850  22.580  0.00  0.00     0.125 A 
ATOM     22  C   UNL d   1     -49.528  11.132  22.672  0.00  0.00     0.142 A 
ATOM     23  O   UNL d   1     -50.140  11.063  23.232  0.00  0.00    -0.300 OA
ATOM     24  C   UNL d   1     -50.348  11.716  23.698  0.00  0.00     0.142 A 
ATOM     25  C   UNL d   1     -49.946  12.435  23.603  0.00  0.00     0.125 A 
ENDBRANCH   2  20
TORSDOF 4
ENDMDL
MODEL 3
REMARK VINA RESULT:      -5.1      1.389      4.142
REMARK  4 active torsions:
REMARK  status: ('A' for Active; 'I' for Inactive)
REMARK    1  A    between atoms: N_10  and  C_2 
REMARK    2  A    between atoms: N_11  and  C_6 
REMARK    3  A    between atoms: C_12  and  N_11 
REMARK    4  A    between atoms: O_19  and  C_15 
ROOT
ATOM      1  N   UNL d   1     -46.644  12.839  22.704  0.00  0.00    -0.041 NA
ATOM      2  C   UNL d   1     -47.375  12.779  22.974  0.00  0.00     0.738 A 
ATOM      3  C   UNL d   1     -46.312  13.545  22.627  0.00  0.00     0.187 A 
ATOM      4  N   UNL d   1     -47.778  13.428  23.169  0.00  0.00    -0.041 NA
ATOM      5  C   UNL d   1     -46.713  14.196  22.820  0.00  0.00     0.094 A 
ATOM      6  C   UNL d   1     -47.452  14.139  23.094  0.00  0.00     0.185 A 
ATOM      7  N   UNL d   1     -45.238  14.319  22.275  0.00  0.00    -0.162 NA
ATOM      8  N   UNL d   1     -45.574  13.600  22.353  0.00  0.00    -0.208 N 
ATOM      9  C   UNL d   1     -45.641  14.967  22.470  0.00  0.00     0.127 A 
ATOM     10  C   UNL d   1     -45.172  12.955  22.159  0.00  0.00     0.123 C 
ENDROOT
BRANCH   6  11
ATOM     11  N   UNL d   1     -47.878  14.810  23.298  0.00  0.00    -0.226 NA
BRANCH  11  12
ATOM     12  C   UNL d   1     -48.604  14.963  22.946  0.00  0.00     0.085 A 
ATOM     13  C   UNL d   1     -49.315  14.770  23.332  0.00  0.00     0.043 A 
ATOM     14  C   UNL d   1     -50.045  14.923  22.980  0.00  0.00     0.096 A 
ATOM     15  C   UNL d   1     -50.069  15.277  22.228  0.00  0.00     0.024 A 
ATOM     16  C   UNL d   1     -49.370  15.471  21.842  0.00  0.00     0.004 A 
ATOM     17  C   UNL d   1     -48.636  15.314  22.201  0.00  0.00     0.019 A 
BRANCH  14  18
ATOM     18  O   UNL d   1     -50.748  14.730  23.366  0.00  0.00    -0.328 OA
ATOM     19  C   UNL d   1     -51.052  14.028  23.686  0.00  0.00     0.181 C 
ENDBRANCH  14  18
ENDBRANCH  11  12
ENDBRANCH   6  11
BRANCH   2  20
ATOM     20  N   UNL d   1     -47.730  12.033  23.057  0.00  0.00    -0.133 N 
ATOM     21  C   UNL d   1     -48.380  11.829  22.596  0.00  0.00     0.125 A 
ATOM     22  C   UNL d   1     -48.732  11.086  22.680  0.00  0.00     0.142 A 
ATOM     23  O   UNL d   1     -48.430  10.541  23.231  0.00  0.00    -0.300 OA
ATOM     24  C   UNL d   1     -47.776  10.745  23.697  0.00  0.00     0.142 A 
ATOM     25  C   UNL d   1     -47.425  11.491  23.610  0.00  0.00     0.125 A 
ENDBRANCH   2  20
TORSDOF 4
ENDMDL
MODEL 4
REMARK VINA RESULT:      -4.5      9.058     10.318
REMARK  4 active torsions:
REMARK  status: ('A' for Active; 'I' for Inactive)
REMARK    1  A    between atoms: N_10  and  C_2 
REMARK    2  A    between atoms: N_11  and  C_6 
REMARK    3  A    between atoms: C_12  and  N_11 
REMARK    4  A    between atoms: O_19  and  C_15 
ROOT
ATOM      1  N   UNL d   1     -38.431  13.362  19.157  0.00  0.00    -0.041 NA
ATOM      2  C   UNL d   1     -38.671  13.976  19.579  0.00  0.00     0.738 A 
ATOM      3  C   UNL d   1     -38.420  13.405  18.376  0.00  0.00     0.187 A 
ATOM      4  N   UNL d   1     -38.900  14.637  19.217  0.00  0.00    -0.041 NA
ATOM      5  C   UNL d   1     -38.648  14.065  18.010  0.00  0.00     0.094 A 
ATOM      6  C   UNL d   1     -38.891  14.688  18.433  0.00  0.00     0.185 A 
ATOM      7  N   UNL d   1     -38.166  12.829  17.159  0.00  0.00    -0.162 NA
ATOM      8  N   UNL d   1     -38.177  12.783  17.954  0.00  0.00    -0.208 N 
ATOM      9  C   UNL d   1     -38.395  13.490  16.798  0.00  0.00     0.127 A 
ATOM     10  C   UNL d   1     -37.948  12.125  18.314  0.00  0.00     0.123 C 
ENDROOT
BRANCH   6  11
ATOM     11  N   UNL d   1     -39.132  15.380  18.063  0.00  0.00    -0.226 NA
BRANCH  11  12
ATOM     12  C   UNL d   1     -39.931  15.539  17.962  0.00  0.00     0.085 A 
ATOM     13  C   UNL d   1     -40.285  15.484  17.211  0.00  0.00     0.043 A 
ATOM     14  C   UNL d   1     -41.088  15.644  17.107  0.00  0.00     0.096 A 
ATOM     15  C   UNL d   1     -41.548  15.864  17.764  0.00  0.00     0.024 A 
ATOM     16  C   UNL d   1     -41.204  15.921  18.507  0.00  0.00     0.004 A 
ATOM     17  C   UNL d   1     -40.394  15.758  18.607  0.00  0.00     0.019 A 
BRANCH  14  18
ATOM     18  O   UNL d   1     -41.435  15.587  16.361  0.00  0.00    -0.328 OA
ATOM     19  C   UNL d   1     -42.212  15.671  16.082  0.00  0.00     0.181 C 
ENDBRANCH  14  18
ENDBRANCH  11  12
ENDBRANCH   6  11
BRANCH   2  20
ATOM     20  N   UNL d   1     -38.684  13.933  20.408  0.00  0.00    -0.133 N 
ATOM     21  C   UNL d   1     -39.363  13.680  20.799  0.00  0.00     0.125 A 
ATOM     22  C   UNL d   1     -39.375  13.638  21.625  0.00  0.00     0.142 A 
ATOM     23  O   UNL d   1     -38.701  13.853  22.064  0.00  0.00    -0.300 OA
ATOM     24  C   UNL d   1     -38.017  14.108  21.671  0.00  0.00     0.142 A 
ATOM     25  C   UNL d   1     -38.009  14.149  20.843  0.00  0.00     0.125 A 
ENDBRANCH   2  20
TORSDOF 4
ENDMDL
MODEL 5
REMARK VINA RESULT:      -4.3      8.697     10.647
REMARK  4 active torsions:
REMARK  status: ('A' for Active; 'I' for Inactive)
REMARK    1  A    between atoms: N_10  and  C_2 
REMARK    2  A    between atoms: N_11  and  C_6 
REMARK    3  A    between atoms: C_12  and  N_11 
REMARK    4  A    between atoms: O_19  and  C_15 
ROOT
ATOM      1  N   UNL d   1     -39.839  15.138  17.079  0.00  0.00    -0.041 NA
ATOM      2  C   UNL d   1     -39.090  14.917  17.110  0.00  0.00     0.738 A 
ATOM      3  C   UNL d   1     -40.197  15.397  17.725  0.00  0.00     0.187 A 
ATOM      4  N   UNL d   1     -38.695  14.954  17.791  0.00  0.00    -0.041 NA
ATOM      5  C   UNL d   1     -39.806  15.436  18.408  0.00  0.00     0.094 A 
ATOM      6  C   UNL d   1     -39.048  15.214  18.444  0.00  0.00     0.185 A 
ATOM      7  N   UNL d   1     -41.317  15.884  18.347  0.00  0.00    -0.162 NA
ATOM      8  N   UNL d   1     -40.954  15.620  17.688  0.00  0.00    -0.208 N 
ATOM      9  C   UNL d   1     -40.923  15.921  19.028  0.00  0.00     0.127 A 
ATOM     10  C   UNL d   1     -41.347  15.583  17.011  0.00  0.00     0.123 C 
ENDROOT
BRANCH   6  11
ATOM     11  N   UNL d   1     -38.631  15.250  19.149  0.00  0.00    -0.226 NA
BRANCH  11  12
ATOM     12  C   UNL d   1     -38.520  14.573  19.601  0.00  0.00     0.085 A 
ATOM     13  C   UNL d   1     -38.873  14.497  20.350  0.00  0.00     0.043 A 
ATOM     14  C   UNL d   1     -38.763  13.818  20.805  0.00  0.00     0.096 A 
ATOM     15  C   UNL d   1     -38.291  13.200  20.508  0.00  0.00     0.024 A 
ATOM     16  C   UNL d   1     -37.940  13.270  19.769  0.00  0.00     0.004 A 
ATOM     17  C   UNL d   1     -38.054  13.957  19.314  0.00  0.00     0.019 A 
BRANCH  14  18
ATOM     18  O   UNL d   1     -39.115  13.746  21.548  0.00  0.00    -0.328 OA
ATOM     19  C   UNL d   1     -39.666  14.201  21.967  0.00  0.00     0.181 C 
ENDBRANCH  14  18
ENDBRANCH  11  12
ENDBRANCH   6  11
BRANCH   2  20
ATOM     20  N   UNL d   1     -38.707  14.641  16.427  0.00  0.00    -0.133 N 
ATOM     21  C   UNL d   1     -38.663  13.834  16.273  0.00  0.00     0.125 A 
ATOM     22  C   UNL d   1     -38.281  13.561  15.592  0.00  0.00     0.142 A 
ATOM     23  O   UNL d   1     -37.940  14.102  15.060  0.00  0.00    -0.300 OA
ATOM     24  C   UNL d   1     -37.983  14.915  15.213  0.00  0.00     0.142 A 
ATOM     25  C   UNL d   1     -38.366  15.185  15.897  0.00  0.00     0.125 A 
ENDBRANCH   2  20
TORSDOF 4
ENDMDL
MODEL 6
REMARK VINA RESULT:      -4.1      8.577     10.230
REMARK  4 active torsions:
REMARK  status: ('A' for Active; 'I' for Inactive)
REMARK    1  A    between atoms: N_10  and  C_2 
REMARK    2  A    between atoms: N_11  and  C_6 
REMARK    3  A    between atoms: C_12  and  N_11 
REMARK    4  A    between atoms: O_19  and  C_15 
ROOT
ATOM      1  N   UNL d   1     -40.459  15.433  18.866  0.00  0.00    -0.041 NA
ATOM      2  C   UNL d   1     -39.775  15.248  19.199  0.00  0.00     0.738 A 
ATOM      3  C   UNL d   1     -40.512  15.483  18.087  0.00  0.00     0.187 A 
ATOM      4  N   UNL d   1     -39.142  15.113  18.751  0.00  0.00    -0.041 NA
ATOM      5  C   UNL d   1     -39.881  15.348  17.635  0.00  0.00     0.094 A 
ATOM      6  C   UNL d   1     -39.188  15.161  17.967  0.00  0.00     0.185 A 
ATOM      7  N   UNL d   1     -41.257  15.721  16.962  0.00  0.00    -0.162 NA
ATOM      8  N   UNL d   1     -41.204  15.670  17.755  0.00  0.00    -0.208 N 
ATOM      9  C   UNL d   1     -40.624  15.585  16.513  0.00  0.00     0.127 A 
ATOM     10  C   UNL d   1     -41.835  15.805  18.201  0.00  0.00     0.123 C 
ENDROOT
BRANCH   6  11
ATOM     11  N   UNL d   1     -38.524  15.019  17.507  0.00  0.00    -0.226 NA
BRANCH  11  12
ATOM     12  C   UNL d   1     -38.332  14.253  17.283  0.00  0.00     0.085 A 
ATOM     13  C   UNL d   1     -38.324  14.032  16.481  0.00  0.00     0.043 A 
ATOM     14  C   UNL d   1     -38.131  13.263  16.253  0.00  0.00     0.096 A 
ATOM     15  C   UNL d   1     -37.941  12.701  16.836  0.00  0.00     0.024 A 
ATOM     16  C   UNL d   1     -37.947  12.913  17.630  0.00  0.00     0.004 A 
ATOM     17  C   UNL d   1     -38.143  13.690  17.854  0.00  0.00     0.019 A 
BRANCH  14  18
ATOM     18  O   UNL d   1     -38.124  13.048  15.457  0.00  0.00    -0.328 OA
ATOM     19  C   UNL d   1     -37.971  13.460  14.753  0.00  0.00     0.181 C 
ENDBRANCH  14  18
ENDBRANCH  11  12
ENDBRANCH   6  11
BRANCH   2  20
ATOM     20  N   UNL d   1     -39.714  15.194  20.025  0.00  0.00    -0.133 N 
ATOM     21  C   UNL d   1     -40.020  14.540  20.422  0.00  0.00     0.125 A 
ATOM     22  C   UNL d   1     -39.958  14.488  21.245  0.00  0.00     0.142 A 
ATOM     23  O   UNL d   1     -39.588  15.095  21.676  0.00  0.00    -0.300 OA
ATOM     24  C   UNL d   1     -39.280  15.754  21.278  0.00  0.00     0.142 A 
ATOM     25  C   UNL d   1     -39.343  15.804  20.453  0.00  0.00     0.125 A 
ENDBRANCH   2  20
TORSDOF 4
ENDMDL
