MODEL 1
REMARK VINA RESULT:      61.5      0.000      0.000
REMARK  5 active torsions:
REMARK  status: ('A' for Active; 'I' for Inactive)
REMARK    1  A    between atoms: N_10  and  C_4 
REMARK    2  A    between atoms: C_11  and  N_5 
REMARK    3  A    between atoms: C_14  and  N_10 
REMARK    4  A    between atoms: C_15  and  C_11 
REMARK    5  A    between atoms: C_18  and  C_14 
ROOT
ATOM      1  C   UNL d   1      45.706 -17.193  42.199  0.00  0.00     0.191 A 
ATOM      2  C   UNL d   1      46.064 -17.863  42.392  0.00  0.00     0.174 A 
ATOM      3  N   UNL d   1      45.517 -16.650  42.749  0.00  0.00    -0.042 NA
ATOM      4  C   UNL d   1      45.695 -16.796  43.499  0.00  0.00     0.722 A 
ATOM      5  N   UNL d   1      46.064 -17.484  43.709  0.00  0.00    -0.132 N 
ATOM      6  N   UNL d   1      45.523 -17.042  41.431  0.00  0.00    -0.239 N 
ATOM      7  C   UNL d   1      45.701 -17.565  40.865  0.00  0.00     0.358 A 
ATOM      8  N   UNL d   1      46.065 -18.246  41.062  0.00  0.00    -0.152 NA
ATOM      9  C   UNL d   1      46.246 -18.397  41.821  0.00  0.00     0.303 A 
ATOM     10  O   UNL d   1      45.518 -17.413  40.098  0.00  0.00    -0.244 OA
ATOM     11  O   UNL d   1      46.619 -19.096  42.022  0.00  0.00    -0.263 OA
ATOM     12  C   UNL d   1      45.155 -16.353  41.232  0.00  0.00     0.105 C 
ENDROOT
BRANCH   4  13
ATOM     13  N   UNL d   1      45.513 -16.265  44.061  0.00  0.00    -0.137 N 
ATOM     14  C   UNL d   1      45.681 -16.187  44.864  0.00  0.00     0.118 C 
BRANCH  13  15
ATOM     15  C   UNL d   1      45.050 -15.611  43.876  0.00  0.00     0.098 C 
BRANCH  15  16
ATOM     16  C   UNL d   1      45.333 -14.847  44.026  0.00  0.00     0.018 A 
ATOM     17  C   UNL d   1      44.974 -14.197  43.653  0.00  0.00     0.002 A 
ATOM     18  C   UNL d   1      45.257 -13.433  43.803  0.00  0.00     0.000 A 
ATOM     19  C   UNL d   1      45.894 -13.323  44.322  0.00  0.00     0.000 A 
ATOM     20  C   UNL d   1      46.248 -13.978  44.691  0.00  0.00     0.000 A 
ATOM     21  C   UNL d   1      45.965 -14.742  44.541  0.00  0.00     0.002 A 
ENDBRANCH  15  16
ENDBRANCH  13  15
ENDBRANCH   4  13
BRANCH   5  22
ATOM     22  C   UNL d   1      46.389 -17.979  44.284  0.00  0.00     0.098 C 
BRANCH  22  23
ATOM     23  C   UNL d   1      46.130 -18.760  44.354  0.00  0.00     0.018 A 
ATOM     24  C   UNL d   1      45.368 -18.902  44.618  0.00  0.00     0.002 A 
ATOM     25  C   UNL d   1      45.110 -19.683  44.688  0.00  0.00     0.000 A 
ATOM     26  C   UNL d   1      44.408 -20.046  44.925  0.00  0.00     0.000 C 
ATOM     27  C   UNL d   1      45.617 -20.311  44.493  0.00  0.00     0.000 A 
ATOM     28  C   UNL d   1      46.382 -20.146  44.229  0.00  0.00     0.000 A 
ATOM     29  C   UNL d   1      46.639 -19.372  44.159  0.00  0.00     0.002 A 
ENDBRANCH  22  23
ENDBRANCH   5  22
TORSDOF 5
ENDMDL
