MODEL 1
REMARK VINA RESULT:      45.7      0.000      0.000
REMARK  4 active torsions:
REMARK  status: ('A' for Active; 'I' for Inactive)
REMARK       I    between atoms: C_3  and  N_1 
REMARK    1  A    between atoms: C_5  and  N_2 
REMARK    2  A    between atoms: C_4  and  C_3 
REMARK    3  A    between atoms: C_7  and  C_4 
REMARK    4  A    between atoms: C_13  and  C_7 
ROOT
ATOM      1  N   UNL d   1     -54.852-101.922 -40.915  0.00  0.00    -0.269 N 
ATOM      2  N   UNL d   1     -54.847-102.041 -39.265  0.00  0.00    -0.301 N 
ATOM      3  C   UNL d   1     -54.855-101.873 -41.734  0.00  0.00     0.265 C 
ATOM      4  C   UNL d   1     -54.859-102.672 -40.546  0.00  0.00     0.102 A 
ATOM      5  C   UNL d   1     -54.843-101.242 -40.450  0.00  0.00     0.102 A 
ATOM      6  C   UNL d   1     -54.856-102.731 -39.720  0.00  0.00     0.100 A 
ATOM      7  C   UNL d   1     -54.840-101.295 -39.627  0.00  0.00     0.100 A 
ATOM      8  O   UNL d   1     -54.864-102.549 -42.195  0.00  0.00    -0.267 OA
ENDROOT
BRANCH   3   9
ATOM      9  C   UNL d   1     -54.848-101.130 -42.101  0.00  0.00     0.061 C 
BRANCH   9  10
ATOM     10  C   UNL d   1     -54.721-101.069 -42.916  0.00  0.00     0.005 C 
BRANCH  10  11
ATOM     11  C   UNL d   1     -55.135-100.513 -43.355  0.00  0.00     0.000 A 
ATOM     12  C   UNL d   1     -55.471-100.733 -44.071  0.00  0.00     0.002 A 
ATOM     13  C   UNL d   1     -55.887-100.179 -44.516  0.00  0.00     0.030 A 
ATOM     14  C   UNL d   1     -55.964 -99.401 -44.236  0.00  0.00     0.140 A 
ATOM     15  C   UNL d   1     -55.624 -99.193 -43.520  0.00  0.00     0.030 A 
ATOM     16  F   UNL d   1     -56.381 -98.847 -44.681  0.00  0.00    -0.204 F 
ATOM     17  C   UNL d   1     -55.210 -99.749 -43.081  0.00  0.00     0.002 A 
ENDBRANCH  10  11
ENDBRANCH   9  10
ENDBRANCH   3   9
BRANCH   2  18
ATOM     18  C   UNL d   1     -54.844-102.094 -38.439  0.00  0.00     0.065 A 
ATOM     19  C   UNL d   1     -54.784-101.407 -37.983  0.00  0.00     0.029 A 
ATOM     20  C   UNL d   1     -54.781-101.456 -37.160  0.00  0.00     0.059 A 
ATOM     21 CL   UNL d   1     -54.720-100.769 -36.705  0.00  0.00    -0.082 Cl
ATOM     22  C   UNL d   1     -54.838-102.193 -36.789  0.00  0.00     0.011 A 
ATOM     23  C   UNL d   1     -54.899-102.879 -37.251  0.00  0.00     0.002 A 
ATOM     24  C   UNL d   1     -54.902-102.829 -38.078  0.00  0.00     0.018 A 
ENDBRANCH   2  18
TORSDOF 4
ENDMDL
