MODEL 1
REMARK VINA RESULT:       4.8      0.000      0.000
REMARK  4 active torsions:
REMARK  status: ('A' for Active; 'I' for Inactive)
REMARK    1  A    between atoms: C_11  and  C_4 
REMARK    2  A    between atoms: C_12  and  C_5 
REMARK    3  A    between atoms: C_7  and  C_11 
REMARK    4  A    between atoms: C_8  and  C_12 
ROOT
ATOM      1  N   UNL d   1     -54.714-101.325 -37.154  0.00  0.00    -0.246 NA
ATOM      2  C   UNL d   1     -55.034-102.365 -35.924  0.00  0.00     0.003 A 
ATOM      3  C   UNL d   1     -54.953-102.648 -36.693  0.00  0.00     0.019 A 
ATOM      4  C   UNL d   1     -54.792-102.124 -37.311  0.00  0.00     0.081 A 
ATOM      5  C   UNL d   1     -54.794-101.036 -36.391  0.00  0.00     0.081 A 
ATOM      6  C   UNL d   1     -54.955-101.560 -35.773  0.00  0.00     0.019 A 
ATOM      7  C   UNL d   1     -55.193-102.880 -35.316  0.00  0.00     0.000 C 
ENDROOT
BRANCH   4   8
ATOM      8  C   UNL d   1     -54.712-102.432 -38.090  0.00  0.00     0.019 C 
BRANCH   8   9
ATOM      9  C   UNL d   1     -55.335-102.813 -38.450  0.00  0.00     0.002 C 
ATOM     10  C   UNL d   1     -55.390-102.869 -39.280  0.00  0.00     0.000 C 
ENDBRANCH   8   9
ENDBRANCH   4   8
BRANCH   5  11
ATOM     11  C   UNL d   1     -54.712-100.213 -36.241  0.00  0.00     0.019 C 
BRANCH  11  12
ATOM     12  C   UNL d   1     -54.729 -99.931 -35.475  0.00  0.00     0.002 C 
ATOM     13  C   UNL d   1     -54.735 -99.113 -35.336  0.00  0.00     0.000 C 
ENDBRANCH  11  12
ENDBRANCH   5  11
TORSDOF 4
ENDMDL
MODEL 2
REMARK VINA RESULT:       6.1      0.419      2.979
REMARK  4 active torsions:
REMARK  status: ('A' for Active; 'I' for Inactive)
REMARK    1  A    between atoms: C_11  and  C_4 
REMARK    2  A    between atoms: C_12  and  C_5 
REMARK    3  A    between atoms: C_7  and  C_11 
REMARK    4  A    between atoms: C_8  and  C_12 
ROOT
ATOM      1  N   UNL d   1     -54.838-101.527 -37.362  0.00  0.00    -0.246 NA
ATOM      2  C   UNL d   1     -54.774-102.432 -35.993  0.00  0.00     0.003 A 
ATOM      3  C   UNL d   1     -54.729-101.611 -35.948  0.00  0.00     0.019 A 
ATOM      4  C   UNL d   1     -54.761-101.157 -36.636  0.00  0.00     0.081 A 
ATOM      5  C   UNL d   1     -54.883-102.344 -37.415  0.00  0.00     0.081 A 
ATOM      6  C   UNL d   1     -54.851-102.799 -36.726  0.00  0.00     0.019 A 
ATOM      7  C   UNL d   1     -54.742-102.879 -35.316  0.00  0.00     0.000 C 
ENDROOT
BRANCH   4   8
ATOM      8  C   UNL d   1     -54.713-100.319 -36.570  0.00  0.00     0.019 C 
BRANCH   8   9
ATOM      9  C   UNL d   1     -54.715 -99.961 -35.838  0.00  0.00     0.002 C 
ATOM     10  C   UNL d   1     -54.822 -99.139 -35.756  0.00  0.00     0.000 C 
ENDBRANCH   8   9
ENDBRANCH   4   8
BRANCH   5  11
ATOM     11  C   UNL d   1     -54.962-102.714 -38.166  0.00  0.00     0.019 C 
BRANCH  11  12
ATOM     12  C   UNL d   1     -54.749-102.314 -38.846  0.00  0.00     0.002 C 
ATOM     13  C   UNL d   1     -54.801-102.694 -39.582  0.00  0.00     0.000 C 
ENDBRANCH  11  12
ENDBRANCH   5  11
TORSDOF 4
ENDMDL
