MODEL 1
REMARK VINA RESULT:      -3.8      0.000      0.000
REMARK  2 active torsions:
REMARK  status: ('A' for Active; 'I' for Inactive)
REMARK    1  A    between atoms: C_8  and  N_1 
REMARK    2  A    between atoms: O_15  and  C_14 
ROOT
ATOM      1  N   UNL d   1      57.962  -0.438  30.747  0.00  0.00    -0.243 N 
ATOM      2  C   UNL d   1      57.600  -1.125  30.596  0.00  0.00     0.251 A 
ATOM      3  C   UNL d   1      57.656  -0.092  31.402  0.00  0.00     0.264 A 
ATOM      4  C   UNL d   1      57.015  -1.237  31.193  0.00  0.00     0.129 A 
ATOM      5  C   UNL d   1      57.050  -0.597  31.693  0.00  0.00     0.047 A 
ATOM      6  C   UNL d   1      56.634  -0.352  32.393  0.00  0.00     0.001 A 
ATOM      7  C   UNL d   1      56.603  -0.685  32.149  0.00  0.00    -0.009 A 
ATOM      8  C   UNL d   1      55.955  -0.703  32.901  0.00  0.00    -0.000 A 
ATOM      9  C   UNL d   1      55.937  -1.034  32.643  0.00  0.00    -0.004 A 
ATOM     10  C   UNL d   1      57.051   0.332  32.479  0.00  0.00    -0.004 A 
ATOM     11  O   UNL d   1      57.779  -1.639  29.948  0.00  0.00    -0.271 OA
ATOM     12  O   UNL d   1      58.007   0.682  31.642  0.00  0.00    -0.267 OA
ENDROOT
BRANCH   1  13
ATOM     13  C   UNL d   1      58.566  -0.137  30.287  0.00  0.00     0.092 A 
ATOM     14  C   UNL d   1      58.393   0.257  29.580  0.00  0.00     0.110 A 
ATOM     15  C   UNL d   1      59.000   0.556  29.124  0.00  0.00     0.026 A 
ATOM     16  C   UNL d   1      59.784   0.466  29.364  0.00  0.00     0.002 A 
ATOM     17  C   UNL d   1      59.947   0.079  30.058  0.00  0.00     0.002 A 
ATOM     18  C   UNL d   1      59.339  -0.224  30.521  0.00  0.00     0.020 A 
BRANCH  14  19
ATOM     19  O   UNL d   1      57.607   0.334  29.361  0.00  0.00    -0.327 OA
ATOM     20  C   UNL d   1      57.406   0.682  28.731  0.00  0.00     0.181 C 
ENDBRANCH  14  19
ENDBRANCH   1  13
TORSDOF 2
ENDMDL
MODEL 2
REMARK VINA RESULT:      -2.9      1.272      1.949
REMARK  2 active torsions:
REMARK  status: ('A' for Active; 'I' for Inactive)
REMARK    1  A    between atoms: C_8  and  N_1 
REMARK    2  A    between atoms: O_15  and  C_14 
ROOT
ATOM      1  N   UNL d   1      58.818   0.201  29.681  0.00  0.00    -0.243 N 
ATOM      2  C   UNL d   1      58.122   0.271  29.310  0.00  0.00     0.251 A 
ATOM      3  C   UNL d   1      58.728   0.284  30.473  0.00  0.00     0.264 A 
ATOM      4  C   UNL d   1      57.536   0.411  29.901  0.00  0.00     0.129 A 
ATOM      5  C   UNL d   1      57.912   0.418  30.621  0.00  0.00     0.047 A 
ATOM      6  C   UNL d   1      57.670   0.526  31.430  0.00  0.00     0.001 A 
ATOM      7  C   UNL d   1      57.463   0.525  31.071  0.00  0.00    -0.009 A 
ATOM      8  C   UNL d   1      56.870   0.682  31.852  0.00  0.00    -0.000 A 
ATOM      9  C   UNL d   1      56.676   0.678  31.480  0.00  0.00    -0.004 A 
ATOM     10  C   UNL d   1      58.413   0.442  31.731  0.00  0.00    -0.004 A 
ATOM     11  O   UNL d   1      58.007   0.215  28.474  0.00  0.00    -0.271 OA
ATOM     12  O   UNL d   1      59.460   0.218  30.963  0.00  0.00    -0.267 OA
ENDROOT
BRANCH   1  13
ATOM     13  C   UNL d   1      59.522   0.062  29.293  0.00  0.00     0.092 A 
ATOM     14  C   UNL d   1      59.737  -0.711  29.084  0.00  0.00     0.110 A 
ATOM     15  C   UNL d   1      60.443  -0.844  28.696  0.00  0.00     0.026 A 
ATOM     16  C   UNL d   1      60.941  -0.213  28.511  0.00  0.00     0.002 A 
ATOM     17  C   UNL d   1      60.725   0.541  28.718  0.00  0.00     0.002 A 
ATOM     18  C   UNL d   1      60.015   0.681  29.109  0.00  0.00     0.020 A 
BRANCH  14  19
ATOM     19  O   UNL d   1      59.227  -1.321  29.279  0.00  0.00    -0.327 OA
ATOM     20  C   UNL d   1      59.385  -2.033  29.118  0.00  0.00     0.181 C 
ENDBRANCH  14  19
ENDBRANCH   1  13
TORSDOF 2
ENDMDL
MODEL 3
REMARK VINA RESULT:      -2.8      1.374      3.843
REMARK  2 active torsions:
REMARK  status: ('A' for Active; 'I' for Inactive)
REMARK    1  A    between atoms: C_8  and  N_1 
REMARK    2  A    between atoms: O_15  and  C_14 
ROOT
ATOM      1  N   UNL d   1      56.899   0.213  32.447  0.00  0.00    -0.243 N 
ATOM      2  C   UNL d   1      57.582   0.341  32.827  0.00  0.00     0.251 A 
ATOM      3  C   UNL d   1      57.003   0.250  31.653  0.00  0.00     0.264 A 
ATOM      4  C   UNL d   1      58.174   0.471  32.241  0.00  0.00     0.129 A 
ATOM      5  C   UNL d   1      57.815   0.414  31.513  0.00  0.00     0.047 A 
ATOM      6  C   UNL d   1      58.070   0.482  30.705  0.00  0.00     0.001 A 
ATOM      7  C   UNL d   1      58.269   0.514  31.067  0.00  0.00    -0.009 A 
ATOM      8  C   UNL d   1      58.871   0.650  30.289  0.00  0.00    -0.000 A 
ATOM      9  C   UNL d   1      59.057   0.679  30.665  0.00  0.00    -0.004 A 
ATOM     10  C   UNL d   1      57.340   0.342  30.395  0.00  0.00    -0.004 A 
ATOM     11  O   UNL d   1      57.680   0.344  33.667  0.00  0.00    -0.271 OA
ATOM     12  O   UNL d   1      56.286   0.117  31.154  0.00  0.00    -0.267 OA
ENDROOT
BRANCH   1  13
ATOM     13  C   UNL d   1      56.193   0.065  32.830  0.00  0.00     0.092 A 
ATOM     14  C   UNL d   1      55.955  -0.715  32.977  0.00  0.00     0.110 A 
ATOM     15  C   UNL d   1      55.248  -0.857  33.360  0.00  0.00     0.026 A 
ATOM     16  C   UNL d   1      54.771  -0.229  33.599  0.00  0.00     0.002 A 
ATOM     17  C   UNL d   1      55.010   0.533  33.452  0.00  0.00     0.002 A 
ATOM     18  C   UNL d   1      55.721   0.682  33.067  0.00  0.00     0.020 A 
BRANCH  14  19
ATOM     19  O   UNL d   1      56.445  -1.323  32.730  0.00  0.00    -0.327 OA
ATOM     20  C   UNL d   1      56.276  -2.040  32.853  0.00  0.00     0.181 C 
ENDBRANCH  14  19
ENDBRANCH   1  13
TORSDOF 2
ENDMDL
MODEL 4
REMARK VINA RESULT:      -1.2      1.065      3.463
REMARK  2 active torsions:
REMARK  status: ('A' for Active; 'I' for Inactive)
REMARK    1  A    between atoms: C_8  and  N_1 
REMARK    2  A    between atoms: O_15  and  C_14 
ROOT
ATOM      1  N   UNL d   1      57.378  -0.615  30.966  0.00  0.00    -0.243 N 
ATOM      2  C   UNL d   1      57.295   0.002  30.477  0.00  0.00     0.251 A 
ATOM      3  C   UNL d   1      57.873  -1.163  30.653  0.00  0.00     0.264 A 
ATOM      4  C   UNL d   1      57.770  -0.152  29.797  0.00  0.00     0.129 A 
ATOM      5  C   UNL d   1      58.128  -0.874  29.906  0.00  0.00     0.047 A 
ATOM      6  C   UNL d   1      58.664  -1.358  29.458  0.00  0.00     0.001 A 
ATOM      7  C   UNL d   1      58.490  -0.989  29.386  0.00  0.00    -0.009 A 
ATOM      8  C   UNL d   1      59.080  -1.282  28.643  0.00  0.00    -0.000 A 
ATOM      9  C   UNL d   1      58.896  -0.909  28.587  0.00  0.00    -0.004 A 
ATOM     10  C   UNL d   1      58.694  -1.946  30.008  0.00  0.00    -0.004 A 
ATOM     11  O   UNL d   1      56.815   0.682  30.627  0.00  0.00    -0.271 OA
ATOM     12  O   UNL d   1      58.019  -1.886  31.138  0.00  0.00    -0.267 OA
ENDROOT
BRANCH   1  13
ATOM     13  C   UNL d   1      57.001  -0.671  31.688  0.00  0.00     0.092 A 
ATOM     14  C   UNL d   1      57.232  -0.183  32.317  0.00  0.00     0.110 A 
ATOM     15  C   UNL d   1      56.852  -0.243  33.036  0.00  0.00     0.026 A 
ATOM     16  C   UNL d   1      56.239  -0.785  33.139  0.00  0.00     0.002 A 
ATOM     17  C   UNL d   1      56.017  -1.260  32.520  0.00  0.00     0.002 A 
ATOM     18  C   UNL d   1      56.396  -1.204  31.793  0.00  0.00     0.020 A 
BRANCH  14  19
ATOM     19  O   UNL d   1      57.843   0.348  32.191  0.00  0.00    -0.327 OA
ATOM     20  C   UNL d   1      58.197   0.681  32.758  0.00  0.00     0.181 C 
ENDBRANCH  14  19
ENDBRANCH   1  13
TORSDOF 2
ENDMDL
MODEL 5
REMARK VINA RESULT:      -1.1      0.846      3.522
REMARK  2 active torsions:
REMARK  status: ('A' for Active; 'I' for Inactive)
REMARK    1  A    between atoms: C_8  and  N_1 
REMARK    2  A    between atoms: O_15  and  C_14 
ROOT
ATOM      1  N   UNL d   1      58.450   0.146  30.135  0.00  0.00    -0.243 N 
ATOM      2  C   UNL d   1      58.352   0.089  29.351  0.00  0.00     0.251 A 
ATOM      3  C   UNL d   1      59.211   0.321  30.315  0.00  0.00     0.264 A 
ATOM      4  C   UNL d   1      59.101   0.236  28.994  0.00  0.00     0.129 A 
ATOM      5  C   UNL d   1      59.634   0.380  29.591  0.00  0.00     0.047 A 
ATOM      6  C   UNL d   1      60.463   0.564  29.633  0.00  0.00     0.001 A 
ATOM      7  C   UNL d   1      60.205   0.493  29.316  0.00  0.00    -0.009 A 
ATOM      8  C   UNL d   1      61.133   0.682  29.016  0.00  0.00    -0.000 A 
ATOM      9  C   UNL d   1      60.858   0.607  28.707  0.00  0.00    -0.004 A 
ATOM     10  C   UNL d   1      60.480   0.605  30.437  0.00  0.00    -0.004 A 
ATOM     11  O   UNL d   1      57.622  -0.089  28.962  0.00  0.00    -0.271 OA
ATOM     12  O   UNL d   1      59.405   0.404  31.173  0.00  0.00    -0.267 OA
ENDROOT
BRANCH   1  13
ATOM     13  C   UNL d   1      57.845   0.039  30.672  0.00  0.00     0.092 A 
ATOM     14  C   UNL d   1      57.591  -0.725  30.867  0.00  0.00     0.110 A 
ATOM     15  C   UNL d   1      56.986  -0.827  31.405  0.00  0.00     0.026 A 
ATOM     16  C   UNL d   1      56.627  -0.172  31.754  0.00  0.00     0.002 A 
ATOM     17  C   UNL d   1      56.879   0.574  31.560  0.00  0.00     0.002 A 
ATOM     18  C   UNL d   1      57.488   0.682  31.019  0.00  0.00     0.020 A 
BRANCH  14  19
ATOM     19  O   UNL d   1      57.963  -1.360  30.507  0.00  0.00    -0.327 OA
ATOM     20  C   UNL d   1      57.717  -2.060  30.591  0.00  0.00     0.181 C 
ENDBRANCH  14  19
ENDBRANCH   1  13
TORSDOF 2
ENDMDL
