MODEL 1
REMARK VINA RESULT:      62.4      0.000      0.000
REMARK  8 active torsions:
REMARK  status: ('A' for Active; 'I' for Inactive)
REMARK    1  A    between atoms: C_11  and  N_1 
REMARK    2  A    between atoms: S_7  and  C_2 
REMARK    3  A    between atoms: C_18  and  S_7 
REMARK    4  A    between atoms: C_8  and  C_10 
REMARK       I    between atoms: N_14  and  C_8 
REMARK    5  A    between atoms: C_13  and  C_11 
REMARK    6  A    between atoms: C_25  and  N_14 
REMARK    7  A    between atoms: C_19  and  C_18 
REMARK    8  A    between atoms: C_26  and  C_25 
ROOT
ATOM      1  N   UNL d   1     -55.366-100.442 -43.472  0.00  0.00    -0.253 N 
ATOM      2  C   UNL d   1     -55.489-100.016 -42.817  0.00  0.00     0.182 A 
ATOM      3  C   UNL d   1     -55.136-101.237 -43.429  0.00  0.00     0.268 A 
ATOM      4  N   UNL d   1     -55.392-100.351 -42.065  0.00  0.00    -0.222 NA
ATOM      5  C   UNL d   1     -55.036-101.580 -42.704  0.00  0.00     0.074 A 
ATOM      6  C   UNL d   1     -55.167-101.128 -42.008  0.00  0.00     0.088 A 
ATOM      7  O   UNL d   1     -55.009-101.677 -44.107  0.00  0.00    -0.267 OA
ATOM      8  C   UNL d   1     -54.810-102.361 -42.639  0.00  0.00     0.006 A 
ATOM      9  C   UNL d   1     -55.066-101.475 -41.274  0.00  0.00     0.019 A 
ATOM     10  C   UNL d   1     -54.713-102.692 -41.890  0.00  0.00     0.000 A 
ATOM     11  C   UNL d   1     -54.836-102.266 -41.234  0.00  0.00     0.002 A 
ENDROOT
BRANCH   2  12
ATOM     12  S   UNL d   1     -55.720 -99.220 -42.881  0.00  0.00    -0.049 SA
BRANCH  12  13
ATOM     13  C   UNL d   1     -55.871 -98.900 -43.632  0.00  0.00     0.038 C 
BRANCH  13  14
ATOM     14  C   UNL d   1     -56.632 -98.890 -43.950  0.00  0.00     0.007 A 
ATOM     15  C   UNL d   1     -57.284 -98.788 -43.431  0.00  0.00     0.001 A 
ATOM     16  C   UNL d   1     -58.038 -98.776 -43.727  0.00  0.00     0.005 A 
ATOM     17  C   UNL d   1     -58.167 -98.863 -44.542  0.00  0.00     0.058 A 
ATOM     18  C   UNL d   1     -57.526 -98.961 -45.040  0.00  0.00     0.005 A 
ATOM     19  C   UNL d   1     -56.768 -98.972 -44.731  0.00  0.00     0.001 A 
BRANCH  17  20
ATOM     20  C   UNL d   1     -58.940 -98.853 -44.874  0.00  0.00     0.279 C 
ATOM     21  O   UNL d   1     -59.606 -98.760 -44.372  0.00  0.00    -0.265 OA
ATOM     22  N   UNL d   1     -59.046 -98.935 -45.691  0.00  0.00    -0.203 NA
BRANCH  22  23
ATOM     23  C   UNL d   1     -59.832 -98.924 -46.025  0.00  0.00     0.148 C 
BRANCH  23  24
ATOM     24  C   UNL d   1     -59.944 -98.843 -46.823  0.00  0.00     0.255 C 
ATOM     25  O   UNL d   1     -59.304 -98.757 -47.323  0.00  0.00    -0.281 OA
ENDBRANCH  23  24
ENDBRANCH  22  23
ENDBRANCH  17  20
ENDBRANCH  13  14
ENDBRANCH  12  13
ENDBRANCH   2  12
BRANCH   1  26
ATOM     26  C   UNL d   1     -55.469-100.090 -44.221  0.00  0.00     0.085 C 
BRANCH  26  27
ATOM     27  C   UNL d   1     -54.829 -99.671 -44.555  0.00  0.00     0.019 C 
ATOM     28  C   UNL d   1     -54.803 -99.526 -45.371  0.00  0.00     0.002 C 
ENDBRANCH  26  27
ENDBRANCH   1  26
TORSDOF 8
ENDMDL
