MODEL 1
REMARK VINA RESULT:      63.0      0.000      0.000
REMARK  6 active torsions:
REMARK  status: ('A' for Active; 'I' for Inactive)
REMARK    1  A    between atoms: C_14  and  N_1 
REMARK    2  A    between atoms: S_12  and  C_3 
REMARK    3  A    between atoms: C_4  and  N_11 
REMARK    4  A    between atoms: C_15  and  C_8 
REMARK       I    between atoms: N_11  and  C_13 
REMARK    5  A    between atoms: C_17  and  S_12 
REMARK    6  A    between atoms: C_13  and  C_17 
ROOT
ATOM      1  N   UNL d   1     -54.714-101.776 -40.921  0.00  0.00    -0.018 NA
ATOM      2  C   UNL d   1     -55.065-101.851 -41.666  0.00  0.00     0.302 C 
ATOM      3  O   UNL d   1     -55.753-102.272 -41.757  0.00  0.00    -0.264 OA
ENDROOT
BRANCH   2   4
ATOM      4  C   UNL d   1     -54.712-101.496 -42.317  0.00  0.00     0.101 C 
BRANCH   4   5
ATOM      5  S   UNL d   1     -55.019-100.798 -42.627  0.00  0.00    -0.041 SA
BRANCH   5   6
ATOM      6  C   UNL d   1     -54.925-100.089 -42.222  0.00  0.00     0.219 A 
ATOM      7  N   UNL d   1     -55.049 -99.364 -42.616  0.00  0.00    -0.186 N 
ATOM      8  N   UNL d   1     -54.918 -98.759 -42.083  0.00  0.00    -0.038 NA
ATOM      9  N   UNL d   1     -54.714 -99.094 -41.362  0.00  0.00    -0.022 NA
ATOM     10  N   UNL d   1     -54.718 -99.919 -41.445  0.00  0.00    -0.101 NA
BRANCH   7  11
ATOM     11  C   UNL d   1     -55.267 -99.244 -43.406  0.00  0.00     0.087 A 
ATOM     12  C   UNL d   1     -54.711 -99.325 -44.007  0.00  0.00     0.019 A 
ATOM     13  C   UNL d   1     -54.932 -99.206 -44.794  0.00  0.00     0.002 A 
ATOM     14  C   UNL d   1     -55.709 -99.004 -44.978  0.00  0.00     0.000 A 
ATOM     15  C   UNL d   1     -56.271 -98.922 -44.368  0.00  0.00     0.002 A 
ATOM     16  C   UNL d   1     -56.040 -99.045 -43.582  0.00  0.00     0.019 A 
ENDBRANCH   7  11
ENDBRANCH   5   6
ENDBRANCH   4   5
ENDBRANCH   2   4
BRANCH   1  17
ATOM     17  C   UNL d   1     -55.067-102.134 -40.256  0.00  0.00     0.760 A 
ATOM     18  N   UNL d   1     -54.854-102.025 -39.460  0.00  0.00    -0.051 NA
ATOM     19  C   UNL d   1     -55.356-102.490 -39.001  0.00  0.00     0.147 A 
ATOM     20  S   UNL d   1     -55.869-102.879 -39.503  0.00  0.00     0.052 SA
ATOM     21  N   UNL d   1     -55.687-102.656 -40.273  0.00  0.00    -0.019 NA
BRANCH  19  22
ATOM     22  C   UNL d   1     -55.404-102.605 -38.179  0.00  0.00     0.026 A 
ATOM     23  C   UNL d   1     -56.141-102.653 -37.810  0.00  0.00     0.002 A 
ATOM     24  C   UNL d   1     -56.183-102.767 -36.993  0.00  0.00     0.000 A 
ATOM     25  C   UNL d   1     -55.505-102.830 -36.556  0.00  0.00     0.000 A 
ATOM     26  C   UNL d   1     -54.757-102.783 -36.917  0.00  0.00     0.000 A 
ATOM     27  C   UNL d   1     -54.714-102.669 -37.735  0.00  0.00     0.002 A 
ENDBRANCH  19  22
ENDBRANCH   1  17
TORSDOF 6
ENDMDL
