MODEL 1
REMARK VINA RESULT:      51.4      0.000      0.000
REMARK  6 active torsions:
REMARK  status: ('A' for Active; 'I' for Inactive)
REMARK    1  A    between atoms: C_9  and  C_3 
REMARK    2  A    between atoms: C_8  and  C_5 
REMARK    3  A    between atoms: O_19  and  C_9 
REMARK    4  A    between atoms: C_22  and  O_19 
REMARK    5  A    between atoms: O_21  and  C_23 
REMARK    6  A    between atoms: C_23  and  C_22 
ROOT
ATOM      1  N   UNL d   1      58.379  49.673  51.099  0.00  0.00    -0.254 N 
ATOM      2  C   UNL d   1      58.062  49.669  50.335  0.00  0.00     0.182 A 
ATOM      3  C   UNL d   1      59.697  49.638  50.550  0.00  0.00     0.098 A 
ATOM      4  N   UNL d   1      58.565  49.650  49.682  0.00  0.00    -0.222 NA
ATOM      5  C   UNL d   1      59.196  49.658  51.210  0.00  0.00     0.081 A 
ATOM      6  C   UNL d   1      59.383  49.634  49.785  0.00  0.00     0.090 A 
ATOM      7  C   UNL d   1      57.875  49.692  51.752  0.00  0.00     0.267 A 
ATOM      8  S   UNL d   1      57.248  49.684  50.222  0.00  0.00    -0.049 SA
ATOM      9  C   UNL d   1      57.058  49.707  51.640  0.00  0.00     0.068 A 
ATOM     10  O   UNL d   1      58.189  49.696  52.517  0.00  0.00    -0.267 OA
ATOM     11  C   UNL d   1      56.744  49.703  50.875  0.00  0.00     0.043 A 
ATOM     12  C   UNL d   1      59.881  49.615  49.129  0.00  0.00     0.021 C 
ENDROOT
BRANCH   3  13
ATOM     13  C   UNL d   1      60.513  49.623  50.658  0.00  0.00     0.303 C 
ATOM     14  O   UNL d   1      60.836  49.672  51.417  0.00  0.00    -0.259 OA
BRANCH  13  15
ATOM     15  O   UNL d   1      61.015  49.559  50.006  0.00  0.00    -0.269 OA
BRANCH  15  16
ATOM     16  C   UNL d   1      61.164  48.821  49.661  0.00  0.00     0.152 C 
BRANCH  16  17
ATOM     17  C   UNL d   1      61.496  48.210  50.109  0.00  0.00     0.143 C 
BRANCH  17  18
ATOM     18  O   UNL d   1      61.724  47.504  49.739  0.00  0.00    -0.324 OA
ATOM     19  C   UNL d   1      62.051  46.890  50.183  0.00  0.00     0.182 C 
ENDBRANCH  17  18
ENDBRANCH  16  17
ENDBRANCH  15  16
ENDBRANCH  13  15
ENDBRANCH   3  13
BRANCH   5  20
ATOM     20  C   UNL d   1      59.510  49.662  51.975  0.00  0.00     0.046 A 
ATOM     21  S   UNL d   1      59.152  49.630  52.718  0.00  0.00    -0.085 SA
ATOM     22  C   UNL d   1      59.750  49.653  53.286  0.00  0.00     0.035 A 
ATOM     23  C   UNL d   1      60.473  49.698  52.894  0.00  0.00     0.007 A 
ATOM     24  C   UNL d   1      60.326  49.704  52.087  0.00  0.00     0.009 A 
ENDBRANCH   5  20
TORSDOF 6
ENDMDL
