MODEL 1
REMARK VINA RESULT:      -9.0      0.000      0.000
REMARK  3 active torsions:
REMARK  status: ('A' for Active; 'I' for Inactive)
REMARK    1  A    between atoms: N_2  and  S_1 
REMARK    2  A    between atoms: C_3  and  S_1 
REMARK    3  A    between atoms: C_10  and  C_9 
ROOT
ATOM      1  C   UNL d   1      54.440  33.143  54.559  0.00  0.00     0.104 A 
ATOM      2  C   UNL d   1      53.785  31.728  53.996  0.00  0.00     0.000 A 
ATOM      3  C   UNL d   1      53.985  32.671  55.058  0.00  0.00     0.013 A 
ATOM      4  C   UNL d   1      54.568  32.910  53.780  0.00  0.00     0.013 A 
ATOM      5  C   UNL d   1      54.239  32.199  53.497  0.00  0.00     0.001 A 
ATOM      6  C   UNL d   1      53.656  31.960  54.775  0.00  0.00     0.001 A 
ENDROOT
BRANCH   1   7
ATOM      7  S   UNL d   1      54.764  33.846  54.843  0.00  0.00     0.271 S 
ATOM      8  O   UNL d   1      55.444  33.448  55.068  0.00  0.00    -0.200 OA
ATOM      9  O   UNL d   1      55.087  34.541  55.126  0.00  0.00    -0.200 OA
BRANCH   7  10
ATOM     10  N   UNL d   1      54.086  34.243  54.619  0.00  0.00    -0.226 N 
ATOM     11  C   UNL d   1      54.009  34.529  53.850  0.00  0.00     0.111 A 
ATOM     12  C   UNL d   1      53.320  34.928  53.636  0.00  0.00     0.100 A 
ATOM     13  N   UNL d   1      52.715  35.042  54.179  0.00  0.00    -0.299 N 
ATOM     14  C   UNL d   1      52.787  34.759  54.947  0.00  0.00     0.100 A 
ATOM     15  C   UNL d   1      52.031  35.443  53.953  0.00  0.00     0.100 C 
ATOM     16  C   UNL d   1      53.476  34.356  55.174  0.00  0.00     0.111 A 
ENDBRANCH   7  10
ENDBRANCH   1   7
BRANCH   2  17
ATOM     17  C   UNL d   1      53.460  31.030  53.722  0.00  0.00     0.000 A 
ATOM     18  C   UNL d   1      52.940  31.036  53.076  0.00  0.00     0.000 A 
ATOM     19  C   UNL d   1      52.615  30.328  52.804  0.00  0.00     0.000 A 
ATOM     20  C   UNL d   1      52.805  29.618  53.173  0.00  0.00     0.000 A 
ATOM     21  C   UNL d   1      53.328  29.609  53.823  0.00  0.00     0.000 A 
ATOM     22  C   UNL d   1      52.480  28.911  52.900  0.00  0.00     0.000 C 
ATOM     23  C   UNL d   1      53.651  30.318  54.092  0.00  0.00     0.000 A 
ENDBRANCH   2  17
TORSDOF 3
ENDMDL
MODEL 2
REMARK VINA RESULT:      -8.9      1.891      3.759
REMARK  3 active torsions:
REMARK  status: ('A' for Active; 'I' for Inactive)
REMARK    1  A    between atoms: N_2  and  S_1 
REMARK    2  A    between atoms: C_3  and  S_1 
REMARK    3  A    between atoms: C_10  and  C_9 
ROOT
ATOM      1  C   UNL d   1      53.156  34.036  54.059  0.00  0.00     0.104 A 
ATOM      2  C   UNL d   1      51.766  34.223  53.175  0.00  0.00     0.000 A 
ATOM      3  C   UNL d   1      53.187  34.375  53.308  0.00  0.00     0.013 A 
ATOM      4  C   UNL d   1      52.434  33.790  54.368  0.00  0.00     0.013 A 
ATOM      5  C   UNL d   1      51.736  33.884  53.924  0.00  0.00     0.001 A 
ATOM      6  C   UNL d   1      52.488  34.469  52.864  0.00  0.00     0.001 A 
ENDROOT
BRANCH   1   7
ATOM      7  S   UNL d   1      53.851  33.945  54.495  0.00  0.00     0.271 S 
ATOM      8  O   UNL d   1      53.796  34.721  54.753  0.00  0.00    -0.200 OA
ATOM      9  O   UNL d   1      54.538  33.857  54.928  0.00  0.00    -0.200 OA
BRANCH   7  10
ATOM     10  N   UNL d   1      53.905  33.171  54.238  0.00  0.00    -0.226 N 
ATOM     11  C   UNL d   1      54.286  32.997  53.528  0.00  0.00     0.111 A 
ATOM     12  C   UNL d   1      54.334  32.212  53.279  0.00  0.00     0.100 A 
ATOM     13  N   UNL d   1      54.008  31.609  53.730  0.00  0.00    -0.299 N 
ATOM     14  C   UNL d   1      53.627  31.778  54.438  0.00  0.00     0.100 A 
ATOM     15  C   UNL d   1      54.062  30.827  53.470  0.00  0.00     0.100 C 
ATOM     16  C   UNL d   1      53.572  32.564  54.699  0.00  0.00     0.111 A 
ENDBRANCH   7  10
ENDBRANCH   1   7
BRANCH   2  17
ATOM     17  C   UNL d   1      51.084  34.317  52.735  0.00  0.00     0.000 A 
ATOM     18  C   UNL d   1      50.385  34.576  53.100  0.00  0.00     0.000 A 
ATOM     19  C   UNL d   1      49.698  34.670  52.652  0.00  0.00     0.000 A 
ATOM     20  C   UNL d   1      49.707  34.507  51.846  0.00  0.00     0.000 A 
ATOM     21  C   UNL d   1      50.408  34.246  51.477  0.00  0.00     0.000 A 
ATOM     22  C   UNL d   1      49.020  34.601  51.398  0.00  0.00     0.000 C 
ATOM     23  C   UNL d   1      51.092  34.154  51.928  0.00  0.00     0.000 A 
ENDBRANCH   2  17
TORSDOF 3
ENDMDL
MODEL 3
REMARK VINA RESULT:      -8.6      2.215      3.833
REMARK  3 active torsions:
REMARK  status: ('A' for Active; 'I' for Inactive)
REMARK    1  A    between atoms: N_2  and  S_1 
REMARK    2  A    between atoms: C_3  and  S_1 
REMARK    3  A    between atoms: C_10  and  C_9 
ROOT
ATOM      1  C   UNL d   1      52.825  32.244  53.090  0.00  0.00     0.104 A 
ATOM      2  C   UNL d   1      51.559  33.306  52.957  0.00  0.00     0.000 A 
ATOM      3  C   UNL d   1      52.113  32.087  53.473  0.00  0.00     0.013 A 
ATOM      4  C   UNL d   1      52.906  32.929  52.641  0.00  0.00     0.013 A 
ATOM      5  C   UNL d   1      52.271  33.463  52.574  0.00  0.00     0.001 A 
ATOM      6  C   UNL d   1      51.477  32.621  53.406  0.00  0.00     0.001 A 
ENDROOT
BRANCH   1   7
ATOM      7  S   UNL d   1      53.452  31.712  53.159  0.00  0.00     0.271 S 
ATOM      8  O   UNL d   1      53.105  31.222  52.600  0.00  0.00    -0.200 OA
ATOM      9  O   UNL d   1      54.072  31.183  53.225  0.00  0.00    -0.200 OA
BRANCH   7  10
ATOM     10  N   UNL d   1      53.798  32.200  53.715  0.00  0.00    -0.226 N 
ATOM     11  C   UNL d   1      54.336  32.778  53.479  0.00  0.00     0.111 A 
ATOM     12  C   UNL d   1      54.679  33.265  54.051  0.00  0.00     0.100 A 
ATOM     13  N   UNL d   1      54.490  33.177  54.844  0.00  0.00    -0.299 N 
ATOM     14  C   UNL d   1      53.954  32.602  55.083  0.00  0.00     0.100 A 
ATOM     15  C   UNL d   1      54.839  33.670  55.406  0.00  0.00     0.100 C 
ATOM     16  C   UNL d   1      53.603  32.106  54.518  0.00  0.00     0.111 A 
ENDBRANCH   7  10
ENDBRANCH   1   7
BRANCH   2  17
ATOM     17  C   UNL d   1      50.933  33.827  52.894  0.00  0.00     0.000 A 
ATOM     18  C   UNL d   1      50.711  34.293  53.544  0.00  0.00     0.000 A 
ATOM     19  C   UNL d   1      50.078  34.817  53.476  0.00  0.00     0.000 A 
ATOM     20  C   UNL d   1      49.668  34.878  52.766  0.00  0.00     0.000 A 
ATOM     21  C   UNL d   1      49.888  34.412  52.111  0.00  0.00     0.000 A 
ATOM     22  C   UNL d   1      49.034  35.403  52.698  0.00  0.00     0.000 C 
ATOM     23  C   UNL d   1      50.522  33.888  52.183  0.00  0.00     0.000 A 
ENDBRANCH   2  17
TORSDOF 3
ENDMDL
MODEL 4
REMARK VINA RESULT:      -8.3      1.728      2.116
REMARK  3 active torsions:
REMARK  status: ('A' for Active; 'I' for Inactive)
REMARK    1  A    between atoms: N_2  and  S_1 
REMARK    2  A    between atoms: C_3  and  S_1 
REMARK    3  A    between atoms: C_10  and  C_9 
ROOT
ATOM      1  C   UNL d   1      52.862  33.816  53.426  0.00  0.00     0.104 A 
ATOM      2  C   UNL d   1      53.036  32.169  53.507  0.00  0.00     0.000 A 
ATOM      3  C   UNL d   1      52.662  33.413  54.116  0.00  0.00     0.013 A 
ATOM      4  C   UNL d   1      53.148  33.398  52.777  0.00  0.00     0.013 A 
ATOM      5  C   UNL d   1      53.235  32.571  52.817  0.00  0.00     0.001 A 
ATOM      6  C   UNL d   1      52.749  32.586  54.157  0.00  0.00     0.001 A 
ENDROOT
BRANCH   1   7
ATOM      7  S   UNL d   1      52.774  34.635  53.390  0.00  0.00     0.271 S 
ATOM      8  O   UNL d   1      53.521  34.735  53.715  0.00  0.00    -0.200 OA
ATOM      9  O   UNL d   1      52.690  35.447  53.356  0.00  0.00    -0.200 OA
BRANCH   7  10
ATOM     10  N   UNL d   1      52.030  34.536  53.066  0.00  0.00    -0.226 N 
ATOM     11  C   UNL d   1      51.942  34.456  52.251  0.00  0.00     0.111 A 
ATOM     12  C   UNL d   1      51.186  34.356  51.936  0.00  0.00     0.100 A 
ATOM     13  N   UNL d   1      50.527  34.338  52.426  0.00  0.00    -0.299 N 
ATOM     14  C   UNL d   1      50.611  34.418  53.239  0.00  0.00     0.100 A 
ATOM     15  C   UNL d   1      49.777  34.238  52.099  0.00  0.00     0.100 C 
ATOM     16  C   UNL d   1      51.367  34.518  53.568  0.00  0.00     0.111 A 
ENDBRANCH   7  10
ENDBRANCH   1   7
BRANCH   2  17
ATOM     17  C   UNL d   1      53.119  31.357  53.551  0.00  0.00     0.000 A 
ATOM     18  C   UNL d   1      53.663  31.023  54.082  0.00  0.00     0.000 A 
ATOM     19  C   UNL d   1      53.744  30.203  54.123  0.00  0.00     0.000 A 
ATOM     20  C   UNL d   1      53.287  29.718  53.640  0.00  0.00     0.000 A 
ATOM     21  C   UNL d   1      52.740  30.052  53.106  0.00  0.00     0.000 A 
ATOM     22  C   UNL d   1      53.368  28.898  53.682  0.00  0.00     0.000 C 
ATOM     23  C   UNL d   1      52.662  30.872  53.068  0.00  0.00     0.000 A 
ENDBRANCH   2  17
TORSDOF 3
ENDMDL
MODEL 5
REMARK VINA RESULT:      -8.0      2.737      4.354
REMARK  3 active torsions:
REMARK  status: ('A' for Active; 'I' for Inactive)
REMARK    1  A    between atoms: N_2  and  S_1 
REMARK    2  A    between atoms: C_3  and  S_1 
REMARK    3  A    between atoms: C_10  and  C_9 
ROOT
ATOM      1  C   UNL d   1      51.957  33.375  52.834  0.00  0.00     0.104 A 
ATOM      2  C   UNL d   1      50.521  34.152  52.546  0.00  0.00     0.000 A 
ATOM      3  C   UNL d   1      51.292  33.195  53.286  0.00  0.00     0.013 A 
ATOM      4  C   UNL d   1      51.906  33.942  52.240  0.00  0.00     0.013 A 
ATOM      5  C   UNL d   1      51.185  34.332  52.095  0.00  0.00     0.001 A 
ATOM      6  C   UNL d   1      50.571  33.585  53.142  0.00  0.00     0.001 A 
ENDROOT
BRANCH   1   7
ATOM      7  S   UNL d   1      52.670  32.986  52.981  0.00  0.00     0.271 S 
ATOM      8  O   UNL d   1      52.470  32.404  52.438  0.00  0.00    -0.200 OA
ATOM      9  O   UNL d   1      53.374  32.598  53.124  0.00  0.00    -0.200 OA
BRANCH   7  10
ATOM     10  N   UNL d   1      52.869  33.565  53.522  0.00  0.00    -0.226 N 
ATOM     11  C   UNL d   1      53.183  34.281  53.263  0.00  0.00     0.111 A 
ATOM     12  C   UNL d   1      53.381  34.858  53.818  0.00  0.00     0.100 A 
ATOM     13  N   UNL d   1      53.267  34.724  54.620  0.00  0.00    -0.299 N 
ATOM     14  C   UNL d   1      52.954  34.012  54.882  0.00  0.00     0.100 A 
ATOM     15  C   UNL d   1      53.468  35.309  55.166  0.00  0.00     0.100 C 
ATOM     16  C   UNL d   1      52.751  33.423  54.333  0.00  0.00     0.111 A 
ENDBRANCH   7  10
ENDBRANCH   1   7
BRANCH   2  17
ATOM     17  C   UNL d   1      49.812  34.533  52.408  0.00  0.00     0.000 A 
ATOM     18  C   UNL d   1      49.414  34.426  51.688  0.00  0.00     0.000 A 
ATOM     19  C   UNL d   1      48.698  34.812  51.553  0.00  0.00     0.000 A 
ATOM     20  C   UNL d   1      48.378  35.302  52.131  0.00  0.00     0.000 A 
ATOM     21  C   UNL d   1      48.775  35.411  52.857  0.00  0.00     0.000 A 
ATOM     22  C   UNL d   1      47.662  35.688  51.997  0.00  0.00     0.000 C 
ATOM     23  C   UNL d   1      49.491  35.023  52.988  0.00  0.00     0.000 A 
ENDBRANCH   2  17
TORSDOF 3
ENDMDL
