MODEL 1
REMARK VINA RESULT:     -11.5      0.000      0.000
REMARK  1 active torsions:
REMARK  status: ('A' for Active; 'I' for Inactive)
REMARK    1  A    between atoms: C_15  and  C_10 
ROOT
ATOM      1  C   UNL d   1      53.009  34.661  54.168  0.00  0.00     0.111 A 
ATOM      2  C   UNL d   1      53.454  33.310  54.259  0.00  0.00     0.062 A 
ATOM      3  C   UNL d   1      52.879  33.086  53.738  0.00  0.00     0.105 A 
ATOM      4  C   UNL d   1      52.434  34.436  53.647  0.00  0.00     0.213 A 
ATOM      5  C   UNL d   1      53.525  34.102  54.479  0.00  0.00     0.018 A 
ATOM      6  O   UNL d   1      52.363  33.649  53.427  0.00  0.00    -0.287 OA
ATOM      7  C   UNL d   1      54.003  32.738  54.594  0.00  0.00     0.198 A 
ATOM      8  C   UNL d   1      53.078  35.458  54.387  0.00  0.00     0.105 C 
ATOM      9  C   UNL d   1      52.790  32.265  53.497  0.00  0.00     0.025 A 
ATOM     10  C   UNL d   1      53.325  31.697  53.821  0.00  0.00     0.005 A 
ATOM     11  C   UNL d   1      53.929  31.933  54.369  0.00  0.00     0.042 A 
ATOM     12  N   UNL d   1      53.138  36.230  54.595  0.00  0.00    -0.191 NA
ATOM     13  O   UNL d   1      54.450  32.912  54.999  0.00  0.00    -0.286 OA
ATOM     14  N   UNL d   1      51.917  35.004  53.336  0.00  0.00    -0.120 N 
ATOM     15  C   UNL d   1      54.150  34.313  55.038  0.00  0.00     0.001 C 
ENDROOT
BRANCH  10  16
ATOM     16  C   UNL d   1      53.250  30.920  53.601  0.00  0.00     0.000 A 
ATOM     17  C   UNL d   1      53.089  30.706  52.822  0.00  0.00     0.000 A 
ATOM     18  C   UNL d   1      53.017  29.928  52.618  0.00  0.00     0.000 A 
ATOM     19  C   UNL d   1      53.106  29.324  53.190  0.00  0.00     0.000 A 
ATOM     20  C   UNL d   1      53.266  29.546  53.961  0.00  0.00     0.000 A 
ATOM     21  C   UNL d   1      53.340  30.348  54.175  0.00  0.00     0.000 A 
ENDBRANCH  10  16
TORSDOF 1
ENDMDL
MODEL 2
REMARK VINA RESULT:     -10.7      0.641      1.511
REMARK  1 active torsions:
REMARK  status: ('A' for Active; 'I' for Inactive)
REMARK    1  A    between atoms: C_15  and  C_10 
ROOT
ATOM      1  C   UNL d   1      53.236  34.609  54.338  0.00  0.00     0.111 A 
ATOM      2  C   UNL d   1      52.833  33.403  53.694  0.00  0.00     0.062 A 
ATOM      3  C   UNL d   1      53.371  32.989  54.133  0.00  0.00     0.105 A 
ATOM      4  C   UNL d   1      53.774  34.195  54.776  0.00  0.00     0.213 A 
ATOM      5  C   UNL d   1      52.761  34.219  53.793  0.00  0.00     0.018 A 
ATOM      6  O   UNL d   1      53.847  33.384  54.679  0.00  0.00    -0.287 OA
ATOM      7  C   UNL d   1      52.327  33.010  53.119  0.00  0.00     0.198 A 
ATOM      8  C   UNL d   1      53.165  35.429  54.439  0.00  0.00     0.105 C 
ATOM      9  C   UNL d   1      53.462  32.138  54.044  0.00  0.00     0.025 A 
ATOM     10  C   UNL d   1      52.969  31.745  53.482  0.00  0.00     0.005 A 
ATOM     11  C   UNL d   1      52.403  32.179  53.021  0.00  0.00     0.042 A 
ATOM     12  N   UNL d   1      53.102  36.222  54.542  0.00  0.00    -0.191 NA
ATOM     13  O   UNL d   1      51.910  33.330  52.779  0.00  0.00    -0.286 OA
ATOM     14  N   UNL d   1      54.251  34.595  55.324  0.00  0.00    -0.120 N 
ATOM     15  C   UNL d   1      52.177  34.634  53.310  0.00  0.00     0.001 C 
ENDROOT
BRANCH  10  16
ATOM     16  C   UNL d   1      53.045  30.943  53.389  0.00  0.00     0.000 A 
ATOM     17  C   UNL d   1      52.874  30.573  52.673  0.00  0.00     0.000 A 
ATOM     18  C   UNL d   1      52.955  29.773  52.597  0.00  0.00     0.000 A 
ATOM     19  C   UNL d   1      53.213  29.304  53.240  0.00  0.00     0.000 A 
ATOM     20  C   UNL d   1      53.381  29.681  53.947  0.00  0.00     0.000 A 
ATOM     21  C   UNL d   1      53.298  30.506  54.029  0.00  0.00     0.000 A 
ENDBRANCH  10  16
TORSDOF 1
ENDMDL
MODEL 3
REMARK VINA RESULT:      -9.8      2.086      3.566
REMARK  1 active torsions:
REMARK  status: ('A' for Active; 'I' for Inactive)
REMARK    1  A    between atoms: C_15  and  C_10 
ROOT
ATOM      1  C   UNL d   1      53.888  33.470  54.614  0.00  0.00     0.111 A 
ATOM      2  C   UNL d   1      52.847  34.214  53.987  0.00  0.00     0.062 A 
ATOM      3  C   UNL d   1      52.569  33.537  53.645  0.00  0.00     0.105 A 
ATOM      4  C   UNL d   1      53.609  32.792  54.272  0.00  0.00     0.213 A 
ATOM      5  C   UNL d   1      53.511  34.186  54.476  0.00  0.00     0.018 A 
ATOM      6  O   UNL d   1      52.949  32.819  53.786  0.00  0.00    -0.287 OA
ATOM      7  C   UNL d   1      52.465  34.973  53.852  0.00  0.00     0.198 A 
ATOM      8  C   UNL d   1      54.555  33.439  55.106  0.00  0.00     0.105 C 
ATOM      9  C   UNL d   1      51.878  33.546  53.132  0.00  0.00     0.025 A 
ATOM     10  C   UNL d   1      51.497  34.287  52.995  0.00  0.00     0.005 A 
ATOM     11  C   UNL d   1      51.789  34.999  53.354  0.00  0.00     0.042 A 
ATOM     12  N   UNL d   1      55.201  33.401  55.579  0.00  0.00    -0.191 NA
ATOM     13  O   UNL d   1      52.680  35.499  54.118  0.00  0.00    -0.286 OA
ATOM     14  N   UNL d   1      53.994  32.072  54.416  0.00  0.00    -0.120 N 
ATOM     15  C   UNL d   1      53.786  34.926  54.828  0.00  0.00     0.001 C 
ENDROOT
BRANCH  10  16
ATOM     16  C   UNL d   1      50.845  34.308  52.513  0.00  0.00     0.000 A 
ATOM     17  C   UNL d   1      50.906  34.191  51.699  0.00  0.00     0.000 A 
ATOM     18  C   UNL d   1      50.248  34.215  51.233  0.00  0.00     0.000 A 
ATOM     19  C   UNL d   1      49.492  34.357  51.563  0.00  0.00     0.000 A 
ATOM     20  C   UNL d   1      49.441  34.472  52.372  0.00  0.00     0.000 A 
ATOM     21  C   UNL d   1      50.119  34.448  52.856  0.00  0.00     0.000 A 
ENDBRANCH  10  16
TORSDOF 1
ENDMDL
MODEL 4
REMARK VINA RESULT:      -8.9      2.290      4.297
REMARK  1 active torsions:
REMARK  status: ('A' for Active; 'I' for Inactive)
REMARK    1  A    between atoms: C_15  and  C_10 
ROOT
ATOM      1  C   UNL d   1      52.936  29.918  53.464  0.00  0.00     0.111 A 
ATOM      2  C   UNL d   1      53.211  31.316  53.475  0.00  0.00     0.062 A 
ATOM      3  C   UNL d   1      53.557  31.242  54.201  0.00  0.00     0.105 A 
ATOM      4  C   UNL d   1      53.283  29.844  54.190  0.00  0.00     0.213 A 
ATOM      5  C   UNL d   1      52.896  30.652  53.099  0.00  0.00     0.018 A 
ATOM      6  O   UNL d   1      53.596  30.503  54.565  0.00  0.00    -0.287 OA
ATOM      7  C   UNL d   1      53.160  32.078  53.078  0.00  0.00     0.198 A 
ATOM      8  C   UNL d   1      52.621  29.249  53.088  0.00  0.00     0.105 C 
ATOM      9  C   UNL d   1      53.890  31.923  54.608  0.00  0.00     0.025 A 
ATOM     10  C   UNL d   1      53.845  32.675  54.226  0.00  0.00     0.005 A 
ATOM     11  C   UNL d   1      53.481  32.752  53.462  0.00  0.00     0.042 A 
ATOM     12  N   UNL d   1      52.318  28.598  52.732  0.00  0.00    -0.191 NA
ATOM     13  O   UNL d   1      52.891  32.135  52.514  0.00  0.00    -0.286 OA
ATOM     14  N   UNL d   1      53.320  29.100  54.554  0.00  0.00    -0.120 N 
ATOM     15  C   UNL d   1      52.532  30.761  52.323  0.00  0.00     0.001 C 
ENDROOT
BRANCH  10  16
ATOM     16  C   UNL d   1      54.156  33.323  54.600  0.00  0.00     0.000 A 
ATOM     17  C   UNL d   1      53.680  33.953  54.839  0.00  0.00     0.000 A 
ATOM     18  C   UNL d   1      54.005  34.592  55.211  0.00  0.00     0.000 A 
ATOM     19  C   UNL d   1      54.827  34.629  55.362  0.00  0.00     0.000 A 
ATOM     20  C   UNL d   1      55.291  33.999  55.122  0.00  0.00     0.000 A 
ATOM     21  C   UNL d   1      54.959  33.338  54.737  0.00  0.00     0.000 A 
ENDBRANCH  10  16
TORSDOF 1
ENDMDL
MODEL 5
REMARK VINA RESULT:      -8.6      2.316      4.082
REMARK  1 active torsions:
REMARK  status: ('A' for Active; 'I' for Inactive)
REMARK    1  A    between atoms: C_15  and  C_10 
ROOT
ATOM      1  C   UNL d   1      53.267  31.110  53.291  0.00  0.00     0.111 A 
ATOM      2  C   UNL d   1      52.743  32.432  53.204  0.00  0.00     0.062 A 
ATOM      3  C   UNL d   1      52.012  32.131  53.033  0.00  0.00     0.105 A 
ATOM      4  C   UNL d   1      52.537  30.809  53.120  0.00  0.00     0.213 A 
ATOM      5  C   UNL d   1      53.378  31.922  53.334  0.00  0.00     0.018 A 
ATOM      6  O   UNL d   1      51.904  31.315  52.990  0.00  0.00    -0.287 OA
ATOM      7  C   UNL d   1      52.877  33.281  53.253  0.00  0.00     0.198 A 
ATOM      8  C   UNL d   1      53.904  30.596  53.422  0.00  0.00     0.105 C 
ATOM      9  C   UNL d   1      51.338  32.647  52.893  0.00  0.00     0.025 A 
ATOM     10  C   UNL d   1      51.461  33.481  52.940  0.00  0.00     0.005 A 
ATOM     11  C   UNL d   1      52.228  33.797  53.119  0.00  0.00     0.042 A 
ATOM     12  N   UNL d   1      54.515  30.092  53.548  0.00  0.00    -0.191 NA
ATOM     13  O   UNL d   1      53.443  33.515  53.385  0.00  0.00    -0.286 OA
ATOM     14  N   UNL d   1      52.430  29.988  53.078  0.00  0.00    -0.120 N 
ATOM     15  C   UNL d   1      54.147  32.273  53.515  0.00  0.00     0.001 C 
ENDROOT
BRANCH  10  16
ATOM     16  C   UNL d   1      50.832  33.977  52.810  0.00  0.00     0.000 A 
ATOM     17  C   UNL d   1      50.477  34.393  53.426  0.00  0.00     0.000 A 
ATOM     18  C   UNL d   1      49.852  34.883  53.281  0.00  0.00     0.000 A 
ATOM     19  C   UNL d   1      49.552  34.978  52.506  0.00  0.00     0.000 A 
ATOM     20  C   UNL d   1      49.911  34.560  51.901  0.00  0.00     0.000 A 
ATOM     21  C   UNL d   1      50.557  34.054  52.047  0.00  0.00     0.000 A 
ENDBRANCH  10  16
TORSDOF 1
ENDMDL
MODEL 6
REMARK VINA RESULT:      -8.5      3.770      5.198
REMARK  1 active torsions:
REMARK  status: ('A' for Active; 'I' for Inactive)
REMARK    1  A    between atoms: C_15  and  C_10 
ROOT
ATOM      1  C   UNL d   1      47.713  35.878  52.544  0.00  0.00     0.111 A 
ATOM      2  C   UNL d   1      48.831  35.067  52.192  0.00  0.00     0.062 A 
ATOM      3  C   UNL d   1      49.162  35.209  52.915  0.00  0.00     0.105 A 
ATOM      4  C   UNL d   1      48.045  36.020  53.267  0.00  0.00     0.213 A 
ATOM      5  C   UNL d   1      48.101  35.401  52.000  0.00  0.00     0.018 A 
ATOM      6  O   UNL d   1      48.770  35.689  53.459  0.00  0.00    -0.287 OA
ATOM      7  C   UNL d   1      49.223  34.570  51.609  0.00  0.00     0.198 A 
ATOM      8  C   UNL d   1      46.979  36.215  52.354  0.00  0.00     0.105 C 
ATOM      9  C   UNL d   1      49.922  34.870  53.133  0.00  0.00     0.025 A 
ATOM     10  C   UNL d   1      50.314  34.381  52.566  0.00  0.00     0.005 A 
ATOM     11  C   UNL d   1      49.966  34.231  51.807  0.00  0.00     0.042 A 
ATOM     12  N   UNL d   1      46.270  36.544  52.177  0.00  0.00    -0.191 NA
ATOM     13  O   UNL d   1      48.966  34.459  51.048  0.00  0.00    -0.286 OA
ATOM     14  N   UNL d   1      47.649  36.502  53.813  0.00  0.00    -0.120 N 
ATOM     15  C   UNL d   1      47.771  35.231  51.219  0.00  0.00     0.001 C 
ENDROOT
BRANCH  10  16
ATOM     16  C   UNL d   1      51.031  34.055  52.761  0.00  0.00     0.000 A 
ATOM     17  C   UNL d   1      51.737  34.460  52.632  0.00  0.00     0.000 A 
ATOM     18  C   UNL d   1      52.443  34.122  52.831  0.00  0.00     0.000 A 
ATOM     19  C   UNL d   1      52.474  33.359  53.172  0.00  0.00     0.000 A 
ATOM     20  C   UNL d   1      51.767  32.965  53.297  0.00  0.00     0.000 A 
ATOM     21  C   UNL d   1      51.036  33.310  53.092  0.00  0.00     0.000 A 
ENDBRANCH  10  16
TORSDOF 1
ENDMDL
