MODEL 1
REMARK VINA RESULT:      -2.7      0.000      0.000
REMARK  4 active torsions:
REMARK  status: ('A' for Active; 'I' for Inactive)
REMARK    1  A    between atoms: N_2  and  S_1 
REMARK    2  A    between atoms: C_3  and  S_1 
REMARK    3  A    between atoms: O_16  and  C_8 
REMARK    4  A    between atoms: O_17  and  C_11 
ROOT
ATOM      1  S   UNL d   1      32.808  19.091 -23.165  0.00  0.00     0.271 S 
ATOM      2  O   UNL d   1      32.678  18.960 -22.363  0.00  0.00    -0.200 OA
ATOM      3  O   UNL d   1      32.940  19.222 -23.976  0.00  0.00    -0.200 OA
ENDROOT
BRANCH   1   4
ATOM      4  N   UNL d   1      32.700  18.287 -23.318  0.00  0.00    -0.229 N 
ATOM      5  C   UNL d   1      32.051  18.037 -23.763  0.00  0.00     0.092 A 
ATOM      6  C   UNL d   1      31.944  17.233 -23.915  0.00  0.00     0.018 A 
ATOM      7  C   UNL d   1      31.294  16.984 -24.360  0.00  0.00     0.002 A 
ATOM      8  C   UNL d   1      32.484  16.680 -23.624  0.00  0.00     0.003 A 
ATOM      9  C   UNL d   1      31.187  16.180 -24.513  0.00  0.00     0.000 A 
ATOM     10  C   UNL d   1      31.727  15.627 -24.222  0.00  0.00     0.000 A 
ATOM     11  C   UNL d   1      32.376  15.876 -23.777  0.00  0.00     0.000 A 
ATOM     12  C   UNL d   1      33.133  16.930 -23.180  0.00  0.00     0.020 A 
ATOM     13  C   UNL d   1      33.241  17.734 -23.027  0.00  0.00     0.092 A 
ENDBRANCH   1   4
BRANCH   1  14
ATOM     14  C   UNL d   1      32.917  19.891 -23.021  0.00  0.00     0.106 A 
ATOM     15  C   UNL d   1      32.835  20.182 -22.251  0.00  0.00     0.039 A 
ATOM     16  C   UNL d   1      32.943  20.984 -22.103  0.00  0.00     0.117 A 
ATOM     17  C   UNL d   1      33.132  21.499 -22.716  0.00  0.00     0.116 A 
ATOM     18  C   UNL d   1      33.214  21.208 -23.486  0.00  0.00     0.027 A 
ATOM     19  C   UNL d   1      33.105  20.408 -23.631  0.00  0.00     0.015 A 
BRANCH  16  20
ATOM     20  O   UNL d   1      32.861  21.274 -21.334  0.00  0.00    -0.326 OA
ATOM     21  C   UNL d   1      33.184  20.855 -20.696  0.00  0.00     0.181 C 
ENDBRANCH  16  20
BRANCH  17  22
ATOM     22  O   UNL d   1      33.240  22.306 -22.566  0.00  0.00    -0.326 OA
ATOM     23  C   UNL d   1      33.197  22.851 -23.184  0.00  0.00     0.181 C 
ENDBRANCH  17  22
ENDBRANCH   1  14
TORSDOF 4
ENDMDL
MODEL 2
REMARK VINA RESULT:      -2.4      1.589      5.028
REMARK  4 active torsions:
REMARK  status: ('A' for Active; 'I' for Inactive)
REMARK    1  A    between atoms: N_2  and  S_1 
REMARK    2  A    between atoms: C_3  and  S_1 
REMARK    3  A    between atoms: O_16  and  C_8 
REMARK    4  A    between atoms: O_17  and  C_11 
ROOT
ATOM      1  S   UNL d   1      33.201  20.577 -22.310  0.00  0.00     0.271 S 
ATOM      2  O   UNL d   1      33.206  20.927 -23.054  0.00  0.00    -0.200 OA
ATOM      3  O   UNL d   1      33.196  20.223 -21.557  0.00  0.00    -0.200 OA
ENDROOT
BRANCH   1   4
ATOM      4  N   UNL d   1      33.197  21.322 -21.954  0.00  0.00    -0.229 N 
ATOM      5  C   UNL d   1      33.163  21.383 -21.132  0.00  0.00     0.092 A 
ATOM      6  C   UNL d   1      33.160  22.128 -20.776  0.00  0.00     0.018 A 
ATOM      7  C   UNL d   1      33.126  22.190 -19.954  0.00  0.00     0.002 A 
ATOM      8  C   UNL d   1      33.189  22.810 -21.242  0.00  0.00     0.003 A 
ATOM      9  C   UNL d   1      33.122  22.935 -19.598  0.00  0.00     0.000 A 
ATOM     10  C   UNL d   1      33.152  23.616 -20.064  0.00  0.00     0.000 A 
ATOM     11  C   UNL d   1      33.186  23.554 -20.886  0.00  0.00     0.000 A 
ATOM     12  C   UNL d   1      33.223  22.748 -22.064  0.00  0.00     0.020 A 
ATOM     13  C   UNL d   1      33.227  22.003 -22.420  0.00  0.00     0.092 A 
ENDBRANCH   1   4
BRANCH   1  14
ATOM     14  C   UNL d   1      33.204  19.833 -22.656  0.00  0.00     0.106 A 
ATOM     15  C   UNL d   1      33.174  19.766 -23.480  0.00  0.00     0.039 A 
ATOM     16  C   UNL d   1      33.178  19.022 -23.830  0.00  0.00     0.117 A 
ATOM     17  C   UNL d   1      33.211  18.343 -23.366  0.00  0.00     0.116 A 
ATOM     18  C   UNL d   1      33.241  18.410 -22.542  0.00  0.00     0.027 A 
ATOM     19  C   UNL d   1      33.237  19.154 -22.196  0.00  0.00     0.015 A 
BRANCH  16  20
ATOM     20  O   UNL d   1      33.148  18.955 -24.653  0.00  0.00    -0.326 OA
ATOM     21  C   UNL d   1      32.490  19.241 -25.068  0.00  0.00     0.181 C 
ENDBRANCH  16  20
BRANCH  17  22
ATOM     22  O   UNL d   1      33.214  17.594 -23.720  0.00  0.00    -0.326 OA
ATOM     23  C   UNL d   1      33.002  16.929 -23.282  0.00  0.00     0.181 C 
ENDBRANCH  17  22
ENDBRANCH   1  14
TORSDOF 4
ENDMDL
MODEL 3
REMARK VINA RESULT:      -1.8      2.313      3.413
REMARK  4 active torsions:
REMARK  status: ('A' for Active; 'I' for Inactive)
REMARK    1  A    between atoms: N_2  and  S_1 
REMARK    2  A    between atoms: C_3  and  S_1 
REMARK    3  A    between atoms: O_16  and  C_8 
REMARK    4  A    between atoms: O_17  and  C_11 
ROOT
ATOM      1  S   UNL d   1      30.677  17.497 -24.323  0.00  0.00     0.271 S 
ATOM      2  O   UNL d   1      31.004  17.207 -23.626  0.00  0.00    -0.200 OA
ATOM      3  O   UNL d   1      30.346  17.789 -25.028  0.00  0.00    -0.200 OA
ENDROOT
BRANCH   1   4
ATOM      4  N   UNL d   1      30.034  16.985 -24.240  0.00  0.00    -0.229 N 
ATOM      5  C   UNL d   1      29.347  17.248 -23.866  0.00  0.00     0.092 A 
ATOM      6  C   UNL d   1      28.705  16.737 -23.783  0.00  0.00     0.018 A 
ATOM      7  C   UNL d   1      28.017  16.999 -23.409  0.00  0.00     0.002 A 
ATOM      8  C   UNL d   1      28.750  15.964 -24.072  0.00  0.00     0.003 A 
ATOM      9  C   UNL d   1      27.375  16.488 -23.326  0.00  0.00     0.000 A 
ATOM     10  C   UNL d   1      27.420  15.715 -23.615  0.00  0.00     0.000 A 
ATOM     11  C   UNL d   1      28.107  15.453 -23.988  0.00  0.00     0.000 A 
ATOM     12  C   UNL d   1      29.437  15.701 -24.445  0.00  0.00     0.020 A 
ATOM     13  C   UNL d   1      30.079  16.213 -24.529  0.00  0.00     0.092 A 
ENDBRANCH   1   4
BRANCH   1  14
ATOM     14  C   UNL d   1      31.312  18.008 -24.413  0.00  0.00     0.106 A 
ATOM     15  C   UNL d   1      31.958  17.951 -23.899  0.00  0.00     0.039 A 
ATOM     16  C   UNL d   1      32.596  18.463 -23.986  0.00  0.00     0.117 A 
ATOM     17  C   UNL d   1      32.597  19.030 -24.582  0.00  0.00     0.116 A 
ATOM     18  C   UNL d   1      31.952  19.087 -25.097  0.00  0.00     0.027 A 
ATOM     19  C   UNL d   1      31.316  18.575 -25.007  0.00  0.00     0.015 A 
BRANCH  16  20
ATOM     20  O   UNL d   1      33.241  18.406 -23.473  0.00  0.00    -0.326 OA
ATOM     21  C   UNL d   1      33.240  17.839 -22.868  0.00  0.00     0.181 C 
ENDBRANCH  16  20
BRANCH  17  22
ATOM     22  O   UNL d   1      33.241  19.544 -24.669  0.00  0.00    -0.326 OA
ATOM     23  C   UNL d   1      33.152  20.252 -25.083  0.00  0.00     0.181 C 
ENDBRANCH  17  22
ENDBRANCH   1  14
TORSDOF 4
ENDMDL
MODEL 4
REMARK VINA RESULT:      -1.5      1.240      1.917
REMARK  4 active torsions:
REMARK  status: ('A' for Active; 'I' for Inactive)
REMARK    1  A    between atoms: N_2  and  S_1 
REMARK    2  A    between atoms: C_3  and  S_1 
REMARK    3  A    between atoms: O_16  and  C_8 
REMARK    4  A    between atoms: O_17  and  C_11 
ROOT
ATOM      1  S   UNL d   1      33.089  20.341 -22.487  0.00  0.00     0.271 S 
ATOM      2  O   UNL d   1      33.240  20.804 -23.150  0.00  0.00    -0.200 OA
ATOM      3  O   UNL d   1      32.937  19.871 -21.817  0.00  0.00    -0.200 OA
ENDROOT
BRANCH   1   4
ATOM      4  N   UNL d   1      33.086  19.662 -22.957  0.00  0.00    -0.229 N 
ATOM      5  C   UNL d   1      33.081  18.917 -22.602  0.00  0.00     0.092 A 
ATOM      6  C   UNL d   1      33.078  18.239 -23.072  0.00  0.00     0.018 A 
ATOM      7  C   UNL d   1      33.073  17.494 -22.716  0.00  0.00     0.002 A 
ATOM      8  C   UNL d   1      33.081  18.305 -23.895  0.00  0.00     0.003 A 
ATOM      9  C   UNL d   1      33.071  16.815 -23.186  0.00  0.00     0.000 A 
ATOM     10  C   UNL d   1      33.073  16.882 -24.010  0.00  0.00     0.000 A 
ATOM     11  C   UNL d   1      33.078  17.627 -24.365  0.00  0.00     0.000 A 
ATOM     12  C   UNL d   1      33.086  19.050 -24.250  0.00  0.00     0.020 A 
ATOM     13  C   UNL d   1      33.089  19.728 -23.780  0.00  0.00     0.092 A 
ENDBRANCH   1   4
BRANCH   1  14
ATOM     14  C   UNL d   1      33.090  21.011 -22.013  0.00  0.00     0.106 A 
ATOM     15  C   UNL d   1      32.940  20.939 -21.203  0.00  0.00     0.039 A 
ATOM     16  C   UNL d   1      32.940  21.609 -20.726  0.00  0.00     0.117 A 
ATOM     17  C   UNL d   1      33.090  22.350 -21.049  0.00  0.00     0.116 A 
ATOM     18  C   UNL d   1      33.241  22.423 -21.859  0.00  0.00     0.027 A 
ATOM     19  C   UNL d   1      33.240  21.752 -22.333  0.00  0.00     0.015 A 
BRANCH  16  20
ATOM     20  O   UNL d   1      32.789  21.536 -19.917  0.00  0.00    -0.326 OA
ATOM     21  C   UNL d   1      33.161  20.939 -19.478  0.00  0.00     0.181 C 
ENDBRANCH  16  20
BRANCH  17  22
ATOM     22  O   UNL d   1      33.090  23.024 -20.567  0.00  0.00    -0.326 OA
ATOM     23  C   UNL d   1      32.687  23.702 -20.805  0.00  0.00     0.181 C 
ENDBRANCH  17  22
ENDBRANCH   1  14
TORSDOF 4
ENDMDL
