MODEL 1
REMARK VINA RESULT:      -1.5      0.000      0.000
REMARK  4 active torsions:
REMARK  status: ('A' for Active; 'I' for Inactive)
REMARK    1  A    between atoms: N_8  and  C_1 
REMARK    2  A    between atoms: C_13  and  C_2 
REMARK    3  A    between atoms: C_6  and  C_11 
REMARK       I    between atoms: C_11  and  N_8 
REMARK    4  A    between atoms: O_20  and  C_13 
ROOT
ATOM      1  C   UNL d   1      32.987  19.320 -22.932  0.00  0.00     0.119 A 
ATOM      2  C   UNL d   1      32.820  19.135 -23.719  0.00  0.00     0.087 A 
ATOM      3  C   UNL d   1      32.846  18.318 -23.792  0.00  0.00     0.008 A 
ATOM      4  C   UNL d   1      33.025  17.996 -23.065  0.00  0.00     0.028 A 
ATOM      5  S   UNL d   1      33.115  18.615 -22.523  0.00  0.00    -0.070 SA
ATOM      6  C   UNL d   1      33.088  17.173 -22.972  0.00  0.00     0.104 A 
ATOM      7  N   UNL d   1      32.968  16.680 -23.620  0.00  0.00    -0.294 NA
ATOM      8  C   UNL d   1      32.786  17.007 -24.358  0.00  0.00     0.099 A 
ATOM      9  C   UNL d   1      32.724  17.827 -24.447  0.00  0.00    -0.004 A 
ATOM     10  C   UNL d   1      33.192  16.403 -22.687  0.00  0.00     0.029 C 
ATOM     11  C   UNL d   1      33.241  17.480 -22.222  0.00  0.00     0.029 C 
ATOM     12  C   UNL d   1      32.604  17.334 -25.096  0.00  0.00     0.029 C 
ATOM     13  C   UNL d   1      32.846  16.189 -24.276  0.00  0.00     0.029 C 
ENDROOT
BRANCH   1  14
ATOM     14  N   UNL d   1      33.022  20.080 -22.604  0.00  0.00    -0.200 NA
ATOM     15  C   UNL d   1      32.809  20.200 -21.817  0.00  0.00     0.303 C 
ATOM     16  O   UNL d   1      32.561  19.563 -21.359  0.00  0.00    -0.263 OA
BRANCH  15  17
ATOM     17  C   UNL d   1      32.843  20.947 -21.494  0.00  0.00     0.169 A 
ATOM     18  N   UNL d   1      33.131  21.638 -21.857  0.00  0.00    -0.234 NA
ATOM     19  C   UNL d   1      33.053  22.263 -21.313  0.00  0.00     0.088 A 
ATOM     20  C   UNL d   1      33.240  23.065 -21.354  0.00  0.00     0.020 A 
ATOM     21  C   UNL d   1      32.718  21.934 -20.630  0.00  0.00     0.049 A 
ATOM     22  C   UNL d   1      33.092  23.549 -20.707  0.00  0.00     0.002 A 
ATOM     23  C   UNL d   1      32.758  23.235 -20.019  0.00  0.00     0.001 A 
ATOM     24  C   UNL d   1      32.572  22.438 -19.979  0.00  0.00     0.008 A 
ATOM     25  S   UNL d   1      32.596  21.144 -20.751  0.00  0.00    -0.062 SA
ENDBRANCH  15  17
ENDBRANCH   1  14
BRANCH   2  26
ATOM     26  C   UNL d   1      32.660  19.679 -24.309  0.00  0.00     0.298 C 
ATOM     27  O   UNL d   1      31.926  19.652 -24.692  0.00  0.00    -0.259 OA
BRANCH  26  28
ATOM     28  O   UNL d   1      33.226  20.253 -24.523  0.00  0.00    -0.296 OA
ATOM     29  C   UNL d   1      33.042  20.822 -25.088  0.00  0.00     0.185 C 
ENDBRANCH  26  28
ENDBRANCH   2  26
TORSDOF 4
ENDMDL
MODEL 2
REMARK VINA RESULT:      -1.0      1.316      5.091
REMARK  4 active torsions:
REMARK  status: ('A' for Active; 'I' for Inactive)
REMARK    1  A    between atoms: N_8  and  C_1 
REMARK    2  A    between atoms: C_13  and  C_2 
REMARK    3  A    between atoms: C_6  and  C_11 
REMARK       I    between atoms: C_11  and  N_8 
REMARK    4  A    between atoms: O_20  and  C_13 
ROOT
ATOM      1  C   UNL d   1      32.984  21.160 -21.440  0.00  0.00     0.119 A 
ATOM      2  C   UNL d   1      32.829  21.970 -21.424  0.00  0.00     0.087 A 
ATOM      3  C   UNL d   1      32.862  22.213 -20.641  0.00  0.00     0.008 A 
ATOM      4  C   UNL d   1      33.033  21.568 -20.174  0.00  0.00     0.028 A 
ATOM      5  S   UNL d   1      33.111  20.906 -20.665  0.00  0.00    -0.070 SA
ATOM      6  C   UNL d   1      33.101  21.649 -19.350  0.00  0.00     0.104 A 
ATOM      7  N   UNL d   1      32.994  22.387 -19.004  0.00  0.00    -0.294 NA
ATOM      8  C   UNL d   1      32.819  23.043 -19.478  0.00  0.00     0.099 A 
ATOM      9  C   UNL d   1      32.753  22.959 -20.298  0.00  0.00    -0.004 A 
ATOM     10  C   UNL d   1      33.206  21.531 -18.538  0.00  0.00     0.029 C 
ATOM     11  C   UNL d   1      33.240  20.849 -19.493  0.00  0.00     0.029 C 
ATOM     12  C   UNL d   1      32.645  23.698 -19.952  0.00  0.00     0.029 C 
ATOM     13  C   UNL d   1      32.885  23.134 -18.662  0.00  0.00     0.029 C 
ENDROOT
BRANCH   1  14
ATOM     14  N   UNL d   1      33.008  20.679 -22.114  0.00  0.00    -0.200 NA
ATOM     15  C   UNL d   1      33.019  19.858 -22.035  0.00  0.00     0.303 C 
ATOM     16  O   UNL d   1      33.006  19.519 -21.286  0.00  0.00    -0.263 OA
BRANCH  15  17
ATOM     17  C   UNL d   1      33.043  19.384 -22.698  0.00  0.00     0.169 A 
ATOM     18  N   UNL d   1      33.105  19.633 -23.490  0.00  0.00    -0.234 NA
ATOM     19  C   UNL d   1      33.108  18.952 -23.969  0.00  0.00     0.088 A 
ATOM     20  C   UNL d   1      33.157  18.846 -24.786  0.00  0.00     0.020 A 
ATOM     21  C   UNL d   1      33.049  18.306 -23.455  0.00  0.00     0.049 A 
ATOM     22  C   UNL d   1      33.147  18.086 -25.096  0.00  0.00     0.002 A 
ATOM     23  C   UNL d   1      33.088  17.431 -24.595  0.00  0.00     0.001 A 
ATOM     24  C   UNL d   1      33.040  17.538 -23.784  0.00  0.00     0.008 A 
ATOM     25  S   UNL d   1      33.011  18.578 -22.694  0.00  0.00    -0.062 SA
ENDBRANCH  15  17
ENDBRANCH   1  14
BRANCH   2  26
ATOM     26  C   UNL d   1      32.673  22.435 -22.080  0.00  0.00     0.298 C 
ATOM     27  O   UNL d   1      31.950  22.836 -22.125  0.00  0.00    -0.259 OA
BRANCH  26  28
ATOM     28  O   UNL d   1      33.233  22.505 -22.693  0.00  0.00    -0.296 OA
ATOM     29  C   UNL d   1      33.004  22.799 -23.427  0.00  0.00     0.185 C 
ENDBRANCH  26  28
ENDBRANCH   2  26
TORSDOF 4
ENDMDL
