MODEL 1
REMARK VINA RESULT:     -12.1      0.000      0.000
REMARK  1 active torsions:
REMARK  status: ('A' for Active; 'I' for Inactive)
REMARK    1  A    between atoms: N_13  and  C_2 
ROOT
ATOM      1  C   UNL d   1      53.236  33.191  53.983  0.00  0.00     0.024 A 
ATOM      2  C   UNL d   1      53.694  33.549  54.570  0.00  0.00     0.138 A 
ATOM      3  C   UNL d   1      53.594  34.352  54.740  0.00  0.00     0.282 A 
ATOM      4  C   UNL d   1      52.680  33.634  53.569  0.00  0.00     0.021 A 
ATOM      5  N   UNL d   1      53.036  34.788  54.320  0.00  0.00    -0.271 N 
ATOM      6  C   UNL d   1      52.576  34.434  53.734  0.00  0.00     0.067 A 
ATOM      7  C   UNL d   1      53.337  32.394  53.816  0.00  0.00     0.005 A 
ATOM      8  C   UNL d   1      52.222  33.266  52.978  0.00  0.00     0.040 A 
ATOM      9  C   UNL d   1      52.325  32.464  52.811  0.00  0.00     0.196 A 
ATOM     10  C   UNL d   1      52.883  32.029  53.231  0.00  0.00     0.039 A 
ATOM     11  O   UNL d   1      54.048  34.716  55.325  0.00  0.00    -0.265 OA
ATOM     12  O   UNL d   1      51.871  32.099  52.226  0.00  0.00    -0.287 OA
ATOM     13  C   UNL d   1      52.938  35.593  54.494  0.00  0.00     0.102 C 
ATOM     14  C   UNL d   1      52.024  34.875  53.322  0.00  0.00     0.018 A 
ATOM     15  C   UNL d   1      51.665  33.711  52.563  0.00  0.00     0.003 A 
ATOM     16  C   UNL d   1      53.897  31.954  54.236  0.00  0.00     0.000 A 
ATOM     17  C   UNL d   1      52.990  31.225  53.067  0.00  0.00     0.003 A 
ATOM     18  C   UNL d   1      51.558  34.515  52.726  0.00  0.00     0.002 A 
ATOM     19  C   UNL d   1      54.003  31.154  54.072  0.00  0.00     0.000 A 
ATOM     20  C   UNL d   1      53.549  30.790  53.487  0.00  0.00     0.000 A 
ENDROOT
BRANCH   2  21
ATOM     21  N   UNL d   1      54.251  33.111  54.987  0.00  0.00    -0.238 NA
ATOM     22  C   UNL d   1      54.988  33.438  55.160  0.00  0.00     0.120 C 
ENDBRANCH   2  21
TORSDOF 1
ENDMDL
MODEL 2
REMARK VINA RESULT:     -11.6      0.476      2.533
REMARK  1 active torsions:
REMARK  status: ('A' for Active; 'I' for Inactive)
REMARK    1  A    between atoms: N_13  and  C_2 
ROOT
ATOM      1  C   UNL d   1      52.829  33.713  53.879  0.00  0.00     0.024 A 
ATOM      2  C   UNL d   1      53.063  34.314  54.394  0.00  0.00     0.138 A 
ATOM      3  C   UNL d   1      53.704  34.196  54.904  0.00  0.00     0.282 A 
ATOM      4  C   UNL d   1      53.234  32.996  53.873  0.00  0.00     0.021 A 
ATOM      5  N   UNL d   1      54.103  33.476  54.891  0.00  0.00    -0.271 N 
ATOM      6  C   UNL d   1      53.873  32.873  54.378  0.00  0.00     0.067 A 
ATOM      7  C   UNL d   1      52.193  33.831  53.374  0.00  0.00     0.005 A 
ATOM      8  C   UNL d   1      52.992  32.394  53.350  0.00  0.00     0.040 A 
ATOM      9  C   UNL d   1      52.352  32.515  52.842  0.00  0.00     0.196 A 
ATOM     10  C   UNL d   1      51.954  33.235  52.856  0.00  0.00     0.039 A 
ATOM     11  O   UNL d   1      53.943  34.792  55.421  0.00  0.00    -0.265 OA
ATOM     12  O   UNL d   1      52.113  31.919  52.325  0.00  0.00    -0.287 OA
ATOM     13  C   UNL d   1      54.745  33.362  55.403  0.00  0.00     0.102 C 
ATOM     14  C   UNL d   1      54.276  32.162  54.373  0.00  0.00     0.018 A 
ATOM     15  C   UNL d   1      53.399  31.676  53.345  0.00  0.00     0.003 A 
ATOM     16  C   UNL d   1      51.791  34.554  53.385  0.00  0.00     0.000 A 
ATOM     17  C   UNL d   1      51.311  33.362  52.349  0.00  0.00     0.003 A 
ATOM     18  C   UNL d   1      54.041  31.549  53.851  0.00  0.00     0.002 A 
ATOM     19  C   UNL d   1      51.152  34.678  52.880  0.00  0.00     0.000 A 
ATOM     20  C   UNL d   1      50.912  34.082  52.363  0.00  0.00     0.000 A 
ENDROOT
BRANCH   2  21
ATOM     21  N   UNL d   1      52.663  35.031  54.404  0.00  0.00    -0.238 NA
ATOM     22  C   UNL d   1      53.084  35.740  54.437  0.00  0.00     0.120 C 
ENDBRANCH   2  21
TORSDOF 1
ENDMDL
MODEL 3
REMARK VINA RESULT:     -11.4      1.147      2.362
REMARK  1 active torsions:
REMARK  status: ('A' for Active; 'I' for Inactive)
REMARK    1  A    between atoms: N_13  and  C_2 
ROOT
ATOM      1  C   UNL d   1      52.883  33.268  53.701  0.00  0.00     0.024 A 
ATOM      2  C   UNL d   1      52.325  33.821  53.449  0.00  0.00     0.138 A 
ATOM      3  C   UNL d   1      52.368  34.603  53.716  0.00  0.00     0.282 A 
ATOM      4  C   UNL d   1      53.482  33.494  54.218  0.00  0.00     0.021 A 
ATOM      5  N   UNL d   1      52.970  34.821  54.233  0.00  0.00    -0.271 N 
ATOM      6  C   UNL d   1      53.530  34.271  54.487  0.00  0.00     0.067 A 
ATOM      7  C   UNL d   1      52.840  32.492  53.435  0.00  0.00     0.005 A 
ATOM      8  C   UNL d   1      54.042  32.930  54.468  0.00  0.00     0.040 A 
ATOM      9  C   UNL d   1      53.996  32.150  54.200  0.00  0.00     0.196 A 
ATOM     10  C   UNL d   1      53.394  31.933  53.683  0.00  0.00     0.039 A 
ATOM     11  O   UNL d   1      51.814  35.161  53.468  0.00  0.00    -0.265 OA
ATOM     12  O   UNL d   1      54.551  31.592  54.447  0.00  0.00    -0.287 OA
ATOM     13  C   UNL d   1      53.010  35.606  54.498  0.00  0.00     0.102 C 
ATOM     14  C   UNL d   1      54.124  34.497  55.001  0.00  0.00     0.018 A 
ATOM     15  C   UNL d   1      54.642  33.159  54.987  0.00  0.00     0.003 A 
ATOM     16  C   UNL d   1      52.235  32.271  52.916  0.00  0.00     0.000 A 
ATOM     17  C   UNL d   1      53.344  31.153  53.411  0.00  0.00     0.003 A 
ATOM     18  C   UNL d   1      54.693  33.938  55.259  0.00  0.00     0.002 A 
ATOM     19  C   UNL d   1      52.186  31.494  52.646  0.00  0.00     0.000 A 
ATOM     20  C   UNL d   1      52.741  30.936  52.894  0.00  0.00     0.000 A 
ENDROOT
BRANCH   2  21
ATOM     21  N   UNL d   1      51.725  33.600  52.933  0.00  0.00    -0.238 NA
ATOM     22  C   UNL d   1      51.512  34.097  52.309  0.00  0.00     0.120 C 
ENDBRANCH   2  21
TORSDOF 1
ENDMDL
MODEL 4
REMARK VINA RESULT:     -10.7      1.221      2.500
REMARK  1 active torsions:
REMARK  status: ('A' for Active; 'I' for Inactive)
REMARK    1  A    between atoms: N_13  and  C_2 
ROOT
ATOM      1  C   UNL d   1      53.088  33.739  53.886  0.00  0.00     0.024 A 
ATOM      2  C   UNL d   1      52.688  34.458  53.810  0.00  0.00     0.138 A 
ATOM      3  C   UNL d   1      51.985  34.495  53.377  0.00  0.00     0.282 A 
ATOM      4  C   UNL d   1      52.786  33.061  53.531  0.00  0.00     0.021 A 
ATOM      5  N   UNL d   1      51.690  33.812  53.024  0.00  0.00    -0.271 N 
ATOM      6  C   UNL d   1      52.087  33.093  53.098  0.00  0.00     0.067 A 
ATOM      7  C   UNL d   1      53.786  33.703  54.317  0.00  0.00     0.005 A 
ATOM      8  C   UNL d   1      53.195  32.340  53.612  0.00  0.00     0.040 A 
ATOM      9  C   UNL d   1      53.898  32.305  54.045  0.00  0.00     0.196 A 
ATOM     10  C   UNL d   1      54.191  32.989  54.398  0.00  0.00     0.039 A 
ATOM     11  O   UNL d   1      51.580  35.209  53.296  0.00  0.00    -0.265 OA
ATOM     12  O   UNL d   1      54.303  31.591  54.126  0.00  0.00    -0.287 OA
ATOM     13  C   UNL d   1      50.985  33.854  52.590  0.00  0.00     0.102 C 
ATOM     14  C   UNL d   1      51.786  32.420  52.744  0.00  0.00     0.018 A 
ATOM     15  C   UNL d   1      52.892  31.661  53.254  0.00  0.00     0.003 A 
ATOM     16  C   UNL d   1      54.084  34.388  54.672  0.00  0.00     0.000 A 
ATOM     17  C   UNL d   1      54.894  32.960  54.833  0.00  0.00     0.003 A 
ATOM     18  C   UNL d   1      52.189  31.689  52.819  0.00  0.00     0.002 A 
ATOM     19  C   UNL d   1      54.784  34.358  55.105  0.00  0.00     0.000 A 
ATOM     20  C   UNL d   1      55.189  33.643  55.186  0.00  0.00     0.000 A 
ENDROOT
BRANCH   2  21
ATOM     21  N   UNL d   1      52.985  35.137  54.164  0.00  0.00    -0.238 NA
ATOM     22  C   UNL d   1      52.508  35.584  54.667  0.00  0.00     0.120 C 
ENDBRANCH   2  21
TORSDOF 1
ENDMDL
MODEL 5
REMARK VINA RESULT:     -10.6      0.931      2.646
REMARK  1 active torsions:
REMARK  status: ('A' for Active; 'I' for Inactive)
REMARK    1  A    between atoms: N_13  and  C_2 
ROOT
ATOM      1  C   UNL d   1      53.250  33.189  53.822  0.00  0.00     0.024 A 
ATOM      2  C   UNL d   1      53.256  32.423  53.513  0.00  0.00     0.138 A 
ATOM      3  C   UNL d   1      52.641  32.172  53.020  0.00  0.00     0.282 A 
ATOM      4  C   UNL d   1      52.632  33.701  53.639  0.00  0.00     0.021 A 
ATOM      5  N   UNL d   1      52.027  32.690  52.843  0.00  0.00    -0.271 N 
ATOM      6  C   UNL d   1      52.018  33.456  53.149  0.00  0.00     0.067 A 
ATOM      7  C   UNL d   1      53.861  33.438  54.311  0.00  0.00     0.005 A 
ATOM      8  C   UNL d   1      52.633  34.472  53.954  0.00  0.00     0.040 A 
ATOM      9  C   UNL d   1      53.249  34.721  54.446  0.00  0.00     0.196 A 
ATOM     10  C   UNL d   1      53.862  34.201  54.623  0.00  0.00     0.039 A 
ATOM     11  O   UNL d   1      52.640  31.408  52.708  0.00  0.00    -0.265 OA
ATOM     12  O   UNL d   1      53.250  35.484  54.758  0.00  0.00    -0.287 OA
ATOM     13  C   UNL d   1      51.412  32.434  52.348  0.00  0.00     0.102 C 
ATOM     14  C   UNL d   1      51.403  33.964  52.967  0.00  0.00     0.018 A 
ATOM     15  C   UNL d   1      52.013  34.985  53.770  0.00  0.00     0.003 A 
ATOM     16  C   UNL d   1      54.479  32.918  54.491  0.00  0.00     0.000 A 
ATOM     17  C   UNL d   1      54.481  34.445  55.115  0.00  0.00     0.003 A 
ATOM     18  C   UNL d   1      51.394  34.742  53.278  0.00  0.00     0.002 A 
ATOM     19  C   UNL d   1      55.094  33.162  54.980  0.00  0.00     0.000 A 
ATOM     20  C   UNL d   1      55.095  33.926  55.293  0.00  0.00     0.000 A 
ENDROOT
BRANCH   2  21
ATOM     21  N   UNL d   1      53.870  31.908  53.692  0.00  0.00    -0.238 NA
ATOM     22  C   UNL d   1      53.714  31.108  53.823  0.00  0.00     0.120 C 
ENDBRANCH   2  21
TORSDOF 1
ENDMDL
MODEL 6
REMARK VINA RESULT:     -10.1      1.119      3.091
REMARK  1 active torsions:
REMARK  status: ('A' for Active; 'I' for Inactive)
REMARK    1  A    between atoms: N_13  and  C_2 
ROOT
ATOM      1  C   UNL d   1      52.798  33.192  53.487  0.00  0.00     0.024 A 
ATOM      2  C   UNL d   1      52.963  32.406  53.290  0.00  0.00     0.138 A 
ATOM      3  C   UNL d   1      53.585  32.009  53.663  0.00  0.00     0.282 A 
ATOM      4  C   UNL d   1      53.254  33.578  54.053  0.00  0.00     0.021 A 
ATOM      5  N   UNL d   1      54.035  32.403  54.229  0.00  0.00    -0.271 N 
ATOM      6  C   UNL d   1      53.874  33.187  54.427  0.00  0.00     0.067 A 
ATOM      7  C   UNL d   1      52.180  33.585  53.116  0.00  0.00     0.005 A 
ATOM      8  C   UNL d   1      53.081  34.370  54.246  0.00  0.00     0.040 A 
ATOM      9  C   UNL d   1      52.459  34.764  53.872  0.00  0.00     0.196 A 
ATOM     10  C   UNL d   1      52.010  34.369  53.307  0.00  0.00     0.039 A 
ATOM     11  O   UNL d   1      53.755  31.225  53.472  0.00  0.00    -0.265 OA
ATOM     12  O   UNL d   1      52.289  35.548  54.063  0.00  0.00    -0.287 OA
ATOM     13  C   UNL d   1      54.658  32.001  54.600  0.00  0.00     0.102 C 
ATOM     14  C   UNL d   1      54.327  33.569  54.990  0.00  0.00     0.018 A 
ATOM     15  C   UNL d   1      53.539  34.756  54.814  0.00  0.00     0.003 A 
ATOM     16  C   UNL d   1      51.726  33.191  52.548  0.00  0.00     0.000 A 
ATOM     17  C   UNL d   1      51.385  34.760  52.929  0.00  0.00     0.003 A 
ATOM     18  C   UNL d   1      54.163  34.366  55.192  0.00  0.00     0.002 A 
ATOM     19  C   UNL d   1      51.105  33.581  52.173  0.00  0.00     0.000 A 
ATOM     20  C   UNL d   1      50.935  34.366  52.364  0.00  0.00     0.000 A 
ENDROOT
BRANCH   2  21
ATOM     21  N   UNL d   1      52.511  32.016  52.726  0.00  0.00    -0.238 NA
ATOM     22  C   UNL d   1      52.285  31.232  52.847  0.00  0.00     0.120 C 
ENDBRANCH   2  21
TORSDOF 1
ENDMDL
MODEL 7
REMARK VINA RESULT:      -9.9      0.922      3.551
REMARK  1 active torsions:
REMARK  status: ('A' for Active; 'I' for Inactive)
REMARK    1  A    between atoms: N_13  and  C_2 
ROOT
ATOM      1  C   UNL d   1      52.839  33.637  53.715  0.00  0.00     0.024 A 
ATOM      2  C   UNL d   1      52.287  33.543  53.107  0.00  0.00     0.138 A 
ATOM      3  C   UNL d   1      52.175  32.800  52.763  0.00  0.00     0.282 A 
ATOM      4  C   UNL d   1      53.276  32.991  53.977  0.00  0.00     0.021 A 
ATOM      5  N   UNL d   1      52.617  32.159  53.031  0.00  0.00    -0.271 N 
ATOM      6  C   UNL d   1      53.169  32.249  53.638  0.00  0.00     0.067 A 
ATOM      7  C   UNL d   1      52.949  34.376  54.056  0.00  0.00     0.005 A 
ATOM      8  C   UNL d   1      53.830  33.094  54.590  0.00  0.00     0.040 A 
ATOM      9  C   UNL d   1      53.940  33.838  54.933  0.00  0.00     0.196 A 
ATOM     10  C   UNL d   1      53.498  34.478  54.664  0.00  0.00     0.039 A 
ATOM     11  O   UNL d   1      51.626  32.698  52.156  0.00  0.00    -0.265 OA
ATOM     12  O   UNL d   1      54.489  33.940  55.540  0.00  0.00    -0.287 OA
ATOM     13  C   UNL d   1      52.502  31.415  52.683  0.00  0.00     0.102 C 
ATOM     14  C   UNL d   1      53.602  31.606  53.897  0.00  0.00     0.018 A 
ATOM     15  C   UNL d   1      54.268  32.445  54.852  0.00  0.00     0.003 A 
ATOM     16  C   UNL d   1      52.507  35.021  53.789  0.00  0.00     0.000 A 
ATOM     17  C   UNL d   1      53.604  35.225  55.003  0.00  0.00     0.003 A 
ATOM     18  C   UNL d   1      54.163  31.698  54.513  0.00  0.00     0.002 A 
ATOM     19  C   UNL d   1      52.613  35.764  54.127  0.00  0.00     0.000 A 
ATOM     20  C   UNL d   1      53.162  35.866  54.735  0.00  0.00     0.000 A 
ENDROOT
BRANCH   2  21
ATOM     21  N   UNL d   1      51.848  34.185  52.842  0.00  0.00    -0.238 NA
ATOM     22  C   UNL d   1      51.030  34.120  52.760  0.00  0.00     0.120 C 
ENDBRANCH   2  21
TORSDOF 1
ENDMDL
MODEL 8
REMARK VINA RESULT:      -9.2      1.191      2.725
REMARK  1 active torsions:
REMARK  status: ('A' for Active; 'I' for Inactive)
REMARK    1  A    between atoms: N_13  and  C_2 
ROOT
ATOM      1  C   UNL d   1      53.071  33.410  53.908  0.00  0.00     0.024 A 
ATOM      2  C   UNL d   1      53.587  32.793  54.094  0.00  0.00     0.138 A 
ATOM      3  C   UNL d   1      53.469  32.042  53.769  0.00  0.00     0.282 A 
ATOM      4  C   UNL d   1      52.438  33.276  53.398  0.00  0.00     0.021 A 
ATOM      5  N   UNL d   1      52.834  31.917  53.260  0.00  0.00    -0.271 N 
ATOM      6  C   UNL d   1      52.315  32.531  53.072  0.00  0.00     0.067 A 
ATOM      7  C   UNL d   1      53.189  34.155  54.232  0.00  0.00     0.005 A 
ATOM      8  C   UNL d   1      51.921  33.903  53.215  0.00  0.00     0.040 A 
ATOM      9  C   UNL d   1      52.042  34.652  53.542  0.00  0.00     0.196 A 
ATOM     10  C   UNL d   1      52.678  34.776  54.050  0.00  0.00     0.039 A 
ATOM     11  O   UNL d   1      53.981  31.421  53.951  0.00  0.00    -0.265 OA
ATOM     12  O   UNL d   1      51.530  35.273  53.360  0.00  0.00    -0.287 OA
ATOM     13  C   UNL d   1      52.718  31.163  52.936  0.00  0.00     0.102 C 
ATOM     14  C   UNL d   1      51.687  32.397  52.565  0.00  0.00     0.018 A 
ATOM     15  C   UNL d   1      51.287  33.768  52.704  0.00  0.00     0.003 A 
ATOM     16  C   UNL d   1      53.827  34.283  54.743  0.00  0.00     0.000 A 
ATOM     17  C   UNL d   1      52.803  35.525  54.380  0.00  0.00     0.003 A 
ATOM     18  C   UNL d   1      51.161  33.020  52.374  0.00  0.00     0.002 A 
ATOM     19  C   UNL d   1      53.951  35.028  55.070  0.00  0.00     0.000 A 
ATOM     20  C   UNL d   1      53.439  35.649  54.889  0.00  0.00     0.000 A 
ENDROOT
BRANCH   2  21
ATOM     21  N   UNL d   1      54.220  32.921  54.602  0.00  0.00    -0.238 NA
ATOM     22  C   UNL d   1      54.261  32.518  55.321  0.00  0.00     0.120 C 
ENDBRANCH   2  21
TORSDOF 1
ENDMDL
