MODEL 1
REMARK VINA RESULT:      64.0      0.000      0.000
REMARK  3 active torsions:
REMARK  status: ('A' for Active; 'I' for Inactive)
REMARK       I    between atoms: N_2  and  C_1 
REMARK    1  A    between atoms: C_9  and  C_1 
REMARK    2  A    between atoms: C_6  and  N_5 
REMARK    3  A    between atoms: N_8  and  C_7 
ROOT
ATOM      1  C   UNL d   1      13.441  12.352  -3.044  0.00  0.00     0.265 C 
ATOM      2  N   UNL d   1      13.540  13.100  -3.375  0.00  0.00    -0.269 N 
ATOM      3  N   UNL d   1      13.741  14.596  -4.034  0.00  0.00    -0.285 N 
ATOM      4  C   UNL d   1      14.000  13.665  -2.976  0.00  0.00     0.102 A 
ATOM      5  C   UNL d   1      13.187  13.285  -4.095  0.00  0.00     0.102 A 
ATOM      6  C   UNL d   1      14.100  14.417  -3.309  0.00  0.00     0.101 A 
ATOM      7  C   UNL d   1      13.281  14.030  -4.433  0.00  0.00     0.101 A 
ATOM      8  O   UNL d   1      12.983  11.780  -3.436  0.00  0.00    -0.267 OA
ENDROOT
BRANCH   3   9
ATOM      9  C   UNL d   1      13.840  15.347  -4.366  0.00  0.00     0.170 A 
ATOM     10  N   UNL d   1      13.407  15.561  -5.030  0.00  0.00    -0.129 NA
ATOM     11  N   UNL d   1      13.506  16.308  -5.361  0.00  0.00    -0.129 NA
ATOM     12  C   UNL d   1      14.043  16.851  -5.029  0.00  0.00     0.170 A 
ATOM     13  C   UNL d   1      14.473  16.626  -4.361  0.00  0.00     0.042 A 
ATOM     14  C   UNL d   1      14.374  15.879  -4.030  0.00  0.00     0.042 A 
BRANCH  12  15
ATOM     15  N   UNL d   1      14.142  17.598  -5.360  0.00  0.00    -0.284 N 
ATOM     16  C   UNL d   1      13.742  17.803  -6.051  0.00  0.00     0.108 A 
ATOM     17  C   UNL d   1      13.841  18.550  -6.382  0.00  0.00     0.142 A 
ATOM     18  O   UNL d   1      14.339  19.089  -6.020  0.00  0.00    -0.300 OA
ATOM     19  C   UNL d   1      14.739  18.892  -5.334  0.00  0.00     0.142 A 
ATOM     20  C   UNL d   1      14.648  18.145  -4.992  0.00  0.00     0.108 A 
ENDBRANCH  12  15
ENDBRANCH   3   9
BRANCH   1  21
ATOM     21  C   UNL d   1      13.794  12.160  -2.320  0.00  0.00     0.057 A 
ATOM     22  C   UNL d   1      13.339  12.102  -1.630  0.00  0.00     0.005 A 
ATOM     23  C   UNL d   1      13.692  11.912  -0.915  0.00  0.00     0.000 A 
ATOM     24  C   UNL d   1      13.230  11.857  -0.235  0.00  0.00     0.000 C 
ATOM     25  C   UNL d   1      14.507  11.779  -0.894  0.00  0.00     0.000 A 
ATOM     26  C   UNL d   1      14.969  11.835  -1.579  0.00  0.00     0.000 A 
ATOM     27  C   UNL d   1      14.605  12.026  -2.286  0.00  0.00     0.005 A 
ENDBRANCH   1  21
TORSDOF 3
ENDMDL
