MODEL 1
REMARK VINA RESULT:      65.8      0.000      0.000
REMARK  6 active torsions:
REMARK  status: ('A' for Active; 'I' for Inactive)
REMARK    1  A    between atoms: C_2  and  C_1 
REMARK    2  A    between atoms: C_6  and  C_1 
REMARK       I    between atoms: N_10  and  C_2 
REMARK    3  A    between atoms: C_14  and  C_3 
REMARK    4  A    between atoms: C_4  and  C_12 
REMARK    5  A    between atoms: C_7  and  C_6 
REMARK    6  A    between atoms: C_15  and  N_10 
ROOT
ATOM      1  C   UNL d   1     -48.690  29.038  35.047  0.00  0.00     0.128 C 
ATOM      2  C   UNL d   1     -48.815  28.652  35.759  0.00  0.00     0.106 C 
ATOM      3  N   UNL d   1     -48.955  28.253  36.465  0.00  0.00    -0.191 NA
ENDROOT
BRANCH   1   4
ATOM      4  C   UNL d   1     -48.141  29.682  35.036  0.00  0.00     0.289 C 
ATOM      5  N   UNL d   1     -48.381  30.435  35.089  0.00  0.00    -0.207 NA
ATOM      6  O   UNL d   1     -47.311  29.505  34.966  0.00  0.00    -0.264 OA
BRANCH   5   7
ATOM      7  C   UNL d   1     -47.836  31.064  35.078  0.00  0.00     0.085 A 
ATOM      8  C   UNL d   1     -47.888  31.657  34.492  0.00  0.00     0.023 A 
ATOM      9  C   UNL d   1     -47.360  32.277  34.471  0.00  0.00     0.073 A 
ATOM     10  C   UNL d   1     -46.749  32.335  35.040  0.00  0.00     0.004 A 
ATOM     11  C   UNL d   1     -46.693  31.747  35.626  0.00  0.00     0.002 A 
ATOM     12  C   UNL d   1     -47.233  31.130  35.632  0.00  0.00     0.019 A 
BRANCH   9  13
ATOM     13  C   UNL d   1     -47.443  32.829  33.890  0.00  0.00     0.419 C 
ATOM     14  F   UNL d   1     -47.598  33.388  33.306  0.00  0.00    -0.166 F 
ATOM     15  F   UNL d   1     -46.731  33.194  33.475  0.00  0.00    -0.166 F 
ATOM     16  F   UNL d   1     -48.164  33.027  33.711  0.00  0.00    -0.166 F 
ENDBRANCH   9  13
ENDBRANCH   5   7
ENDBRANCH   1   4
BRANCH   1  17
ATOM     17  C   UNL d   1     -49.077  28.817  34.356  0.00  0.00     0.040 C 
BRANCH  17  18
ATOM     18  C   UNL d   1     -49.255  28.010  34.216  0.00  0.00     0.101 A 
ATOM     19  O   UNL d   1     -50.012  27.727  34.005  0.00  0.00    -0.307 OA
ATOM     20  C   UNL d   1     -49.937  26.906  33.922  0.00  0.00     0.100 A 
ATOM     21  C   UNL d   1     -49.132  26.700  34.085  0.00  0.00     0.027 A 
ATOM     22  C   UNL d   1     -48.734  27.400  34.264  0.00  0.00     0.027 A 
BRANCH  20  23
ATOM     23  C   UNL d   1     -50.498  26.313  33.718  0.00  0.00     0.024 A 
ATOM     24  C   UNL d   1     -50.307  25.513  33.617  0.00  0.00     0.013 A 
ATOM     25  C   UNL d   1     -50.894  24.940  33.412  0.00  0.00     0.058 A 
ATOM     26 CL   UNL d   1     -50.656  24.133  33.319  0.00  0.00    -0.082 Cl
ATOM     27  C   UNL d   1     -51.671  25.185  33.312  0.00  0.00     0.011 A 
ATOM     28  C   UNL d   1     -51.881  25.960  33.405  0.00  0.00     0.001 A 
ATOM     29  C   UNL d   1     -51.344  26.526  33.599  0.00  0.00     0.002 A 
ENDBRANCH  20  23
ENDBRANCH  17  18
ENDBRANCH   1  17
TORSDOF 6
ENDMDL
MODEL 2
REMARK VINA RESULT:      66.1      3.446      6.054
REMARK  6 active torsions:
REMARK  status: ('A' for Active; 'I' for Inactive)
REMARK    1  A    between atoms: C_2  and  C_1 
REMARK    2  A    between atoms: C_6  and  C_1 
REMARK       I    between atoms: N_10  and  C_2 
REMARK    3  A    between atoms: C_14  and  C_3 
REMARK    4  A    between atoms: C_4  and  C_12 
REMARK    5  A    between atoms: C_7  and  C_6 
REMARK    6  A    between atoms: C_15  and  N_10 
ROOT
ATOM      1  C   UNL d   1     -48.644  28.332  35.425  0.00  0.00     0.128 C 
ATOM      2  C   UNL d   1     -48.691  28.489  36.228  0.00  0.00     0.106 C 
ATOM      3  N   UNL d   1     -48.721  28.658  37.033  0.00  0.00    -0.191 NA
ENDROOT
BRANCH   1   4
ATOM      4  C   UNL d   1     -49.249  27.852  35.079  0.00  0.00     0.289 C 
ATOM      5  N   UNL d   1     -49.239  27.659  34.311  0.00  0.00    -0.207 NA
ATOM      6  O   UNL d   1     -49.881  27.576  35.578  0.00  0.00    -0.264 OA
BRANCH   5   7
ATOM      7  C   UNL d   1     -49.838  27.186  33.976  0.00  0.00     0.085 A 
ATOM      8  C   UNL d   1     -49.714  26.369  33.857  0.00  0.00     0.023 A 
ATOM      9  C   UNL d   1     -50.292  25.898  33.530  0.00  0.00     0.073 A 
ATOM     10  C   UNL d   1     -51.030  26.223  33.305  0.00  0.00     0.004 A 
ATOM     11  C   UNL d   1     -51.158  27.037  33.423  0.00  0.00     0.002 A 
ATOM     12  C   UNL d   1     -50.565  27.497  33.753  0.00  0.00     0.019 A 
BRANCH   9  13
ATOM     13  C   UNL d   1     -50.134  25.114  33.431  0.00  0.00     0.419 C 
ATOM     14  F   UNL d   1     -50.043  24.302  33.336  0.00  0.00    -0.166 F 
ATOM     15  F   UNL d   1     -49.295  24.810  33.306  0.00  0.00    -0.166 F 
ATOM     16  F   UNL d   1     -50.740  24.641  33.449  0.00  0.00    -0.166 F 
ENDBRANCH   9  13
ENDBRANCH   5   7
ENDBRANCH   1   4
BRANCH   1  17
ATOM     17  C   UNL d   1     -48.035  28.624  34.958  0.00  0.00     0.040 C 
BRANCH  17  18
ATOM     18  C   UNL d   1     -47.823  29.434  35.004  0.00  0.00     0.101 A 
ATOM     19  O   UNL d   1     -48.119  30.025  34.493  0.00  0.00    -0.307 OA
ATOM     20  C   UNL d   1     -47.767  30.736  34.735  0.00  0.00     0.100 A 
ATOM     21  C   UNL d   1     -47.261  30.566  35.392  0.00  0.00     0.027 A 
ATOM     22  C   UNL d   1     -47.314  29.755  35.537  0.00  0.00     0.027 A 
BRANCH  20  23
ATOM     23  C   UNL d   1     -47.841  31.522  34.442  0.00  0.00     0.024 A 
ATOM     24  C   UNL d   1     -47.200  31.980  34.187  0.00  0.00     0.013 A 
ATOM     25  C   UNL d   1     -47.305  32.768  33.898  0.00  0.00     0.058 A 
ATOM     26 CL   UNL d   1     -46.623  33.201  33.647  0.00  0.00    -0.082 Cl
ATOM     27  C   UNL d   1     -48.063  33.082  33.870  0.00  0.00     0.011 A 
ATOM     28  C   UNL d   1     -48.704  32.654  34.113  0.00  0.00     0.001 A 
ATOM     29  C   UNL d   1     -48.633  31.903  34.393  0.00  0.00     0.002 A 
ENDBRANCH  20  23
ENDBRANCH  17  18
ENDBRANCH   1  17
TORSDOF 6
ENDMDL
MODEL 3
REMARK VINA RESULT:      67.3      2.216      3.070
REMARK  6 active torsions:
REMARK  status: ('A' for Active; 'I' for Inactive)
REMARK    1  A    between atoms: C_2  and  C_1 
REMARK    2  A    between atoms: C_6  and  C_1 
REMARK       I    between atoms: N_10  and  C_2 
REMARK    3  A    between atoms: C_14  and  C_3 
REMARK    4  A    between atoms: C_4  and  C_12 
REMARK    5  A    between atoms: C_7  and  C_6 
REMARK    6  A    between atoms: C_15  and  N_10 
ROOT
ATOM      1  C   UNL d   1     -50.122  27.619  33.913  0.00  0.00     0.128 C 
ATOM      2  C   UNL d   1     -50.738  28.157  33.963  0.00  0.00     0.106 C 
ATOM      3  N   UNL d   1     -51.368  28.685  33.998  0.00  0.00    -0.191 NA
ENDROOT
BRANCH   1   4
ATOM      4  C   UNL d   1     -49.425  27.771  34.369  0.00  0.00     0.289 C 
ATOM      5  N   UNL d   1     -49.058  28.472  34.347  0.00  0.00    -0.207 NA
ATOM      6  O   UNL d   1     -49.119  27.146  34.860  0.00  0.00    -0.264 OA
BRANCH   5   7
ATOM      7  C   UNL d   1     -48.373  28.615  34.798  0.00  0.00     0.085 A 
ATOM      8  C   UNL d   1     -48.391  29.156  35.434  0.00  0.00     0.023 A 
ATOM      9  C   UNL d   1     -47.727  29.304  35.882  0.00  0.00     0.073 A 
ATOM     10  C   UNL d   1     -47.005  28.915  35.713  0.00  0.00     0.004 A 
ATOM     11  C   UNL d   1     -46.982  28.376  35.080  0.00  0.00     0.002 A 
ATOM     12  C   UNL d   1     -47.660  28.239  34.640  0.00  0.00     0.019 A 
BRANCH   9  13
ATOM     13  C   UNL d   1     -47.785  29.832  36.487  0.00  0.00     0.419 C 
ATOM     14  F   UNL d   1     -47.889  30.326  37.137  0.00  0.00    -0.166 F 
ATOM     15  F   UNL d   1     -47.334  30.612  36.483  0.00  0.00    -0.166 F 
ATOM     16  F   UNL d   1     -48.246  29.632  37.069  0.00  0.00    -0.166 F 
ENDBRANCH   9  13
ENDBRANCH   5   7
ENDBRANCH   1   4
BRANCH   1  17
ATOM     17  C   UNL d   1     -50.165  26.947  33.441  0.00  0.00     0.040 C 
BRANCH  17  18
ATOM     18  C   UNL d   1     -50.873  26.499  33.415  0.00  0.00     0.101 A 
ATOM     19  O   UNL d   1     -50.904  25.668  33.499  0.00  0.00    -0.307 OA
ATOM     20  C   UNL d   1     -51.705  25.460  33.437  0.00  0.00     0.100 A 
ATOM     21  C   UNL d   1     -52.150  26.170  33.317  0.00  0.00     0.027 A 
ATOM     22  C   UNL d   1     -51.612  26.796  33.307  0.00  0.00     0.027 A 
BRANCH  20  23
ATOM     23  C   UNL d   1     -52.090  24.713  33.475  0.00  0.00     0.024 A 
ATOM     24  C   UNL d   1     -52.891  24.618  33.664  0.00  0.00     0.013 A 
ATOM     25  C   UNL d   1     -53.252  23.853  33.695  0.00  0.00     0.058 A 
ATOM     26 CL   UNL d   1     -54.073  23.801  33.891  0.00  0.00    -0.082 Cl
ATOM     27  C   UNL d   1     -52.793  23.192  33.533  0.00  0.00     0.011 A 
ATOM     28  C   UNL d   1     -52.010  23.260  33.346  0.00  0.00     0.001 A 
ATOM     29  C   UNL d   1     -51.641  23.974  33.310  0.00  0.00     0.002 A 
ENDBRANCH  20  23
ENDBRANCH  17  18
ENDBRANCH   1  17
TORSDOF 6
ENDMDL
