MODEL 1
REMARK VINA RESULT:      27.2      0.000      0.000
REMARK  2 active torsions:
REMARK  status: ('A' for Active; 'I' for Inactive)
REMARK    1  A    between atoms: N_9  and  C_3 
REMARK    2  A    between atoms: C_11  and  C_4 
ROOT
ATOM      1  N   UNL d   1      46.001 -17.423  44.009  0.00  0.00    -0.196 N 
ATOM      2  C   UNL d   1      45.963 -16.677  43.670  0.00  0.00     0.167 A 
ATOM      3  C   UNL d   1      46.190 -18.081  43.548  0.00  0.00     0.153 A 
ATOM      4  C   UNL d   1      45.766 -16.140  44.257  0.00  0.00     0.057 A 
ATOM      5  N   UNL d   1      45.828 -17.349  44.807  0.00  0.00    -0.161 NA
ATOM      6  N   UNL d   1      46.113 -16.579  42.864  0.00  0.00    -0.227 NA
ATOM      7  C   UNL d   1      46.341 -17.983  42.739  0.00  0.00     0.057 A 
ATOM      8  C   UNL d   1      45.682 -16.551  44.955  0.00  0.00     0.124 A 
ATOM      9  C   UNL d   1      46.303 -17.238  42.400  0.00  0.00     0.086 A 
ATOM     10  C   UNL d   1      46.456 -17.148  41.585  0.00  0.00     0.021 C 
ENDROOT
BRANCH   3  11
ATOM     11  N   UNL d   1      46.228 -18.826  43.887  0.00  0.00    -0.285 N 
ATOM     12  C   UNL d   1      45.887 -19.477  43.504  0.00  0.00     0.108 A 
ATOM     13  C   UNL d   1      45.925 -20.226  43.845  0.00  0.00     0.142 A 
ATOM     14  O   UNL d   1      46.305 -20.329  44.571  0.00  0.00    -0.300 OA
ATOM     15  C   UNL d   1      46.646 -19.684  44.954  0.00  0.00     0.142 A 
ATOM     16  C   UNL d   1      46.607 -18.935  44.613  0.00  0.00     0.108 A 
ENDBRANCH   3  11
BRANCH   4  17
ATOM     17  C   UNL d   1      45.651 -15.324  44.244  0.00  0.00     0.004 A 
ATOM     18  C   UNL d   1      46.302 -14.805  44.251  0.00  0.00     0.000 A 
ATOM     19  C   UNL d   1      46.179 -13.993  44.238  0.00  0.00     0.000 A 
ATOM     20  C   UNL d   1      45.409 -13.683  44.218  0.00  0.00     0.000 A 
ATOM     21  C   UNL d   1      44.764 -14.199  44.211  0.00  0.00     0.000 A 
ATOM     22  C   UNL d   1      44.882 -15.019  44.224  0.00  0.00     0.000 A 
ENDBRANCH   4  17
TORSDOF 2
ENDMDL
