MODEL 1
REMARK VINA RESULT:      -8.2      0.000      0.000
REMARK  2 active torsions:
REMARK  status: ('A' for Active; 'I' for Inactive)
REMARK    1  A    between atoms: N_7  and  C_3 
REMARK    2  A    between atoms: C_15  and  C_5 
ROOT
ATOM      1  N   UNL d   1      53.167  33.832  53.977  0.00  0.00    -0.196 N 
ATOM      2  C   UNL d   1      52.508  33.707  53.470  0.00  0.00     0.167 A 
ATOM      3  C   UNL d   1      53.699  33.210  54.123  0.00  0.00     0.153 A 
ATOM      4  N   UNL d   1      52.755  35.181  54.180  0.00  0.00    -0.163 NA
ATOM      5  C   UNL d   1      51.989  34.313  53.327  0.00  0.00     0.055 A 
ATOM      6  N   UNL d   1      52.402  32.963  53.125  0.00  0.00    -0.227 NA
ATOM      7  C   UNL d   1      53.581  32.483  53.775  0.00  0.00     0.052 A 
ATOM      8  C   UNL d   1      52.105  35.057  53.680  0.00  0.00     0.104 A 
ATOM      9  C   UNL d   1      52.923  32.349  53.266  0.00  0.00     0.086 A 
ATOM     10  C   UNL d   1      53.995  31.783  53.810  0.00  0.00     0.005 A 
ATOM     11  C   UNL d   1      51.575  35.666  53.530  0.00  0.00     0.023 C 
ATOM     12  C   UNL d   1      52.950  31.571  53.001  0.00  0.00     0.019 A 
ATOM     13  C   UNL d   1      53.623  31.219  53.344  0.00  0.00     0.002 A 
ENDROOT
BRANCH   3  14
ATOM     14  N   UNL d   1      54.366  33.334  54.635  0.00  0.00    -0.274 N 
ATOM     15  C   UNL d   1      55.178  33.551  54.699  0.00  0.00     0.149 A 
ATOM     16  N   UNL d   1      55.395  33.512  55.516  0.00  0.00    -0.225 NA
ATOM     17  C   UNL d   1      55.677  33.767  54.065  0.00  0.00     0.041 C 
ATOM     18  C   UNL d   1      54.709  33.269  55.946  0.00  0.00     0.120 A 
ATOM     19  C   UNL d   1      54.082  33.160  55.413  0.00  0.00     0.104 A 
ENDBRANCH   3  14
BRANCH   5  20
ATOM     20  C   UNL d   1      51.342  34.190  52.830  0.00  0.00     0.004 A 
ATOM     21  C   UNL d   1      50.613  33.965  53.144  0.00  0.00     0.000 A 
ATOM     22  C   UNL d   1      49.969  33.842  52.653  0.00  0.00     0.000 A 
ATOM     23  C   UNL d   1      50.049  33.943  51.835  0.00  0.00     0.000 A 
ATOM     24  C   UNL d   1      50.765  34.165  51.516  0.00  0.00     0.000 A 
ATOM     25  C   UNL d   1      51.418  34.290  52.019  0.00  0.00     0.000 A 
ENDBRANCH   5  20
TORSDOF 2
ENDMDL
MODEL 2
REMARK VINA RESULT:      -8.0      1.349      4.039
REMARK  2 active torsions:
REMARK  status: ('A' for Active; 'I' for Inactive)
REMARK    1  A    between atoms: N_7  and  C_3 
REMARK    2  A    between atoms: C_15  and  C_5 
ROOT
ATOM      1  N   UNL d   1      52.923  32.332  53.453  0.00  0.00    -0.196 N 
ATOM      2  C   UNL d   1      53.225  31.633  53.812  0.00  0.00     0.167 A 
ATOM      3  C   UNL d   1      53.108  33.074  53.777  0.00  0.00     0.153 A 
ATOM      4  N   UNL d   1      52.267  31.541  52.466  0.00  0.00    -0.163 NA
ATOM      5  C   UNL d   1      53.045  30.908  53.496  0.00  0.00     0.055 A 
ATOM      6  N   UNL d   1      53.701  31.700  54.484  0.00  0.00    -0.227 NA
ATOM      7  C   UNL d   1      53.579  33.124  54.441  0.00  0.00     0.052 A 
ATOM      8  C   UNL d   1      52.564  30.853  52.820  0.00  0.00     0.104 A 
ATOM      9  C   UNL d   1      53.885  32.429  54.806  0.00  0.00     0.086 A 
ATOM     10  C   UNL d   1      53.850  33.756  54.876  0.00  0.00     0.005 A 
ATOM     11  C   UNL d   1      52.387  30.115  52.506  0.00  0.00     0.023 C 
ATOM     12  C   UNL d   1      54.336  32.652  55.456  0.00  0.00     0.019 A 
ATOM     13  C   UNL d   1      54.313  33.484  55.498  0.00  0.00     0.002 A 
ENDROOT
BRANCH   3  14
ATOM     14  N   UNL d   1      52.805  33.782  53.417  0.00  0.00    -0.274 N 
ATOM     15  C   UNL d   1      52.162  34.323  53.354  0.00  0.00     0.149 A 
ATOM     16  N   UNL d   1      52.382  34.926  52.800  0.00  0.00    -0.225 NA
ATOM     17  C   UNL d   1      51.437  34.273  53.765  0.00  0.00     0.041 C 
ATOM     18  C   UNL d   1      53.163  34.744  52.530  0.00  0.00     0.120 A 
ATOM     19  C   UNL d   1      53.421  34.050  52.903  0.00  0.00     0.104 A 
ENDBRANCH   3  14
BRANCH   5  20
ATOM     20  C   UNL d   1      53.341  30.224  53.848  0.00  0.00     0.004 A 
ATOM     21  C   UNL d   1      54.060  29.906  53.598  0.00  0.00     0.000 A 
ATOM     22  C   UNL d   1      54.357  29.225  53.946  0.00  0.00     0.000 A 
ATOM     23  C   UNL d   1      53.933  28.854  54.553  0.00  0.00     0.000 A 
ATOM     24  C   UNL d   1      53.222  29.161  54.806  0.00  0.00     0.000 A 
ATOM     25  C   UNL d   1      52.924  29.853  54.450  0.00  0.00     0.000 A 
ENDBRANCH   5  20
TORSDOF 2
ENDMDL
MODEL 3
REMARK VINA RESULT:      -7.8      1.085      3.737
REMARK  2 active torsions:
REMARK  status: ('A' for Active; 'I' for Inactive)
REMARK    1  A    between atoms: N_7  and  C_3 
REMARK    2  A    between atoms: C_15  and  C_5 
ROOT
ATOM      1  N   UNL d   1      52.285  34.138  53.538  0.00  0.00    -0.196 N 
ATOM      2  C   UNL d   1      52.984  33.873  53.924  0.00  0.00     0.167 A 
ATOM      3  C   UNL d   1      51.842  33.606  53.078  0.00  0.00     0.153 A 
ATOM      4  N   UNL d   1      52.485  35.444  54.073  0.00  0.00    -0.163 NA
ATOM      5  C   UNL d   1      53.417  34.391  54.373  0.00  0.00     0.055 A 
ATOM      6  N   UNL d   1      53.217  33.085  53.837  0.00  0.00    -0.227 NA
ATOM      7  C   UNL d   1      52.084  32.832  53.002  0.00  0.00     0.052 A 
ATOM      8  C   UNL d   1      53.174  35.182  54.453  0.00  0.00     0.104 A 
ATOM      9  C   UNL d   1      52.783  32.559  53.385  0.00  0.00     0.086 A 
ATOM     10  C   UNL d   1      51.774  32.197  52.600  0.00  0.00     0.005 A 
ATOM     11  C   UNL d   1      53.618  35.700  54.909  0.00  0.00     0.023 C 
ATOM     12  C   UNL d   1      52.885  31.762  53.208  0.00  0.00     0.019 A 
ATOM     13  C   UNL d   1      52.251  31.538  52.715  0.00  0.00     0.002 A 
ENDROOT
BRANCH   3  14
ATOM     14  N   UNL d   1      51.135  33.871  52.687  0.00  0.00    -0.274 N 
ATOM     15  C   UNL d   1      50.791  34.186  51.985  0.00  0.00     0.149 A 
ATOM     16  N   UNL d   1      49.960  34.280  52.122  0.00  0.00    -0.225 NA
ATOM     17  C   UNL d   1      51.199  34.371  51.281  0.00  0.00     0.041 C 
ATOM     18  C   UNL d   1      49.804  34.020  52.911  0.00  0.00     0.120 A 
ATOM     19  C   UNL d   1      50.517  33.771  53.257  0.00  0.00     0.104 A 
ENDBRANCH   3  14
BRANCH   5  20
ATOM     20  C   UNL d   1      54.103  34.131  54.751  0.00  0.00     0.004 A 
ATOM     21  C   UNL d   1      54.061  33.801  55.506  0.00  0.00     0.000 A 
ATOM     22  C   UNL d   1      54.740  33.541  55.885  0.00  0.00     0.000 A 
ATOM     23  C   UNL d   1      55.474  33.610  55.507  0.00  0.00     0.000 A 
ATOM     24  C   UNL d   1      55.524  33.934  54.762  0.00  0.00     0.000 A 
ATOM     25  C   UNL d   1      54.832  34.197  54.380  0.00  0.00     0.000 A 
ENDBRANCH   5  20
TORSDOF 2
ENDMDL
MODEL 4
REMARK VINA RESULT:      -7.6      1.234      3.345
REMARK  2 active torsions:
REMARK  status: ('A' for Active; 'I' for Inactive)
REMARK    1  A    between atoms: N_7  and  C_3 
REMARK    2  A    between atoms: C_15  and  C_5 
ROOT
ATOM      1  N   UNL d   1      53.128  33.286  53.780  0.00  0.00    -0.196 N 
ATOM      2  C   UNL d   1      52.876  32.518  53.547  0.00  0.00     0.167 A 
ATOM      3  C   UNL d   1      52.597  33.924  53.735  0.00  0.00     0.153 A 
ATOM      4  N   UNL d   1      54.418  32.768  54.094  0.00  0.00    -0.163 NA
ATOM      5  C   UNL d   1      53.393  31.895  53.590  0.00  0.00     0.055 A 
ATOM      6  N   UNL d   1      52.103  32.413  53.276  0.00  0.00    -0.227 NA
ATOM      7  C   UNL d   1      51.837  33.804  53.466  0.00  0.00     0.052 A 
ATOM      8  C   UNL d   1      54.170  32.012  53.864  0.00  0.00     0.104 A 
ATOM      9  C   UNL d   1      51.578  33.039  53.231  0.00  0.00     0.086 A 
ATOM     10  C   UNL d   1      51.206  34.308  53.362  0.00  0.00     0.005 A 
ATOM     11  C   UNL d   1      54.687  31.375  53.905  0.00  0.00     0.023 C 
ATOM     12  C   UNL d   1      50.794  33.090  52.988  0.00  0.00     0.019 A 
ATOM     13  C   UNL d   1      50.563  33.887  53.071  0.00  0.00     0.002 A 
ENDROOT
BRANCH   3  14
ATOM     14  N   UNL d   1      52.848  34.701  53.970  0.00  0.00    -0.274 N 
ATOM     15  C   UNL d   1      53.199  35.432  53.738  0.00  0.00     0.149 A 
ATOM     16  N   UNL d   1      53.226  35.936  54.418  0.00  0.00    -0.225 NA
ATOM     17  C   UNL d   1      53.471  35.621  52.972  0.00  0.00     0.041 C 
ATOM     18  C   UNL d   1      52.889  35.506  55.063  0.00  0.00     0.120 A 
ATOM     19  C   UNL d   1      52.658  34.755  54.794  0.00  0.00     0.104 A 
ENDBRANCH   3  14
BRANCH   5  20
ATOM     20  C   UNL d   1      53.147  31.141  53.361  0.00  0.00     0.004 A 
ATOM     21  C   UNL d   1      53.178  30.918  52.568  0.00  0.00     0.000 A 
ATOM     22  C   UNL d   1      52.933  30.170  52.336  0.00  0.00     0.000 A 
ATOM     23  C   UNL d   1      52.653  29.635  52.903  0.00  0.00     0.000 A 
ATOM     24  C   UNL d   1      52.620  29.848  53.688  0.00  0.00     0.000 A 
ATOM     25  C   UNL d   1      52.869  30.608  53.920  0.00  0.00     0.000 A 
ENDBRANCH   5  20
TORSDOF 2
ENDMDL
MODEL 5
REMARK VINA RESULT:      -6.5      1.453      3.296
REMARK  2 active torsions:
REMARK  status: ('A' for Active; 'I' for Inactive)
REMARK    1  A    between atoms: N_7  and  C_3 
REMARK    2  A    between atoms: C_15  and  C_5 
ROOT
ATOM      1  N   UNL d   1      53.364  32.317  53.867  0.00  0.00    -0.196 N 
ATOM      2  C   UNL d   1      53.178  33.127  54.002  0.00  0.00     0.167 A 
ATOM      3  C   UNL d   1      52.790  31.811  53.541  0.00  0.00     0.153 A 
ATOM      4  N   UNL d   1      54.676  32.534  54.378  0.00  0.00    -0.163 NA
ATOM      5  C   UNL d   1      53.737  33.620  54.319  0.00  0.00     0.055 A 
ATOM      6  N   UNL d   1      52.424  33.403  53.807  0.00  0.00    -0.227 NA
ATOM      7  C   UNL d   1      52.051  32.100  53.354  0.00  0.00     0.052 A 
ATOM      8  C   UNL d   1      54.493  33.331  54.511  0.00  0.00     0.104 A 
ATOM      9  C   UNL d   1      51.857  32.908  53.487  0.00  0.00     0.086 A 
ATOM     10  C   UNL d   1      51.389  31.749  53.037  0.00  0.00     0.005 A 
ATOM     11  C   UNL d   1      55.053  33.838  54.832  0.00  0.00     0.023 C 
ATOM     12  C   UNL d   1      51.081  33.035  53.247  0.00  0.00     0.019 A 
ATOM     13  C   UNL d   1      50.790  32.305  52.965  0.00  0.00     0.002 A 
ENDROOT
BRANCH   3  14
ATOM     14  N   UNL d   1      52.975  30.993  53.404  0.00  0.00    -0.274 N 
ATOM     15  C   UNL d   1      53.047  30.220  53.731  0.00  0.00     0.149 A 
ATOM     16  N   UNL d   1      53.285  29.695  53.110  0.00  0.00    -0.225 NA
ATOM     17  C   UNL d   1      52.906  30.011  54.527  0.00  0.00     0.041 C 
ATOM     18  C   UNL d   1      53.357  30.157  52.406  0.00  0.00     0.120 A 
ATOM     19  C   UNL d   1      53.169  30.946  52.581  0.00  0.00     0.104 A 
ENDBRANCH   3  14
BRANCH   5  20
ATOM     20  C   UNL d   1      53.554  34.414  54.451  0.00  0.00     0.004 A 
ATOM     21  C   UNL d   1      53.283  34.660  55.191  0.00  0.00     0.000 A 
ATOM     22  C   UNL d   1      53.100  35.448  55.326  0.00  0.00     0.000 A 
ATOM     23  C   UNL d   1      53.188  36.001  54.716  0.00  0.00     0.000 A 
ATOM     24  C   UNL d   1      53.455  35.767  53.983  0.00  0.00     0.000 A 
ATOM     25  C   UNL d   1      53.640  34.966  53.850  0.00  0.00     0.000 A 
ENDBRANCH   5  20
TORSDOF 2
ENDMDL
MODEL 6
REMARK VINA RESULT:      -6.5      0.918      2.211
REMARK  2 active torsions:
REMARK  status: ('A' for Active; 'I' for Inactive)
REMARK    1  A    between atoms: N_7  and  C_3 
REMARK    2  A    between atoms: C_15  and  C_5 
ROOT
ATOM      1  N   UNL d   1      53.082  33.628  53.927  0.00  0.00    -0.196 N 
ATOM      2  C   UNL d   1      52.400  33.944  53.549  0.00  0.00     0.167 A 
ATOM      3  C   UNL d   1      53.561  34.123  54.393  0.00  0.00     0.153 A 
ATOM      4  N   UNL d   1      52.796  32.347  53.374  0.00  0.00    -0.163 NA
ATOM      5  C   UNL d   1      51.933  33.462  53.094  0.00  0.00     0.055 A 
ATOM      6  N   UNL d   1      52.219  34.744  53.649  0.00  0.00    -0.227 NA
ATOM      7  C   UNL d   1      53.369  34.911  54.482  0.00  0.00     0.052 A 
ATOM      8  C   UNL d   1      52.124  32.658  53.001  0.00  0.00     0.104 A 
ATOM      9  C   UNL d   1      52.688  35.234  54.106  0.00  0.00     0.086 A 
ATOM     10  C   UNL d   1      53.721  35.518  54.892  0.00  0.00     0.005 A 
ATOM     11  C   UNL d   1      51.646  32.177  52.539  0.00  0.00     0.023 C 
ATOM     12  C   UNL d   1      52.638  36.033  54.295  0.00  0.00     0.019 A 
ATOM     13  C   UNL d   1      53.288  36.208  54.789  0.00  0.00     0.002 A 
ENDROOT
BRANCH   3  14
ATOM     14  N   UNL d   1      54.250  33.808  54.777  0.00  0.00    -0.274 N 
ATOM     15  C   UNL d   1      55.074  33.639  54.723  0.00  0.00     0.149 A 
ATOM     16  N   UNL d   1      55.317  33.286  55.454  0.00  0.00    -0.225 NA
ATOM     17  C   UNL d   1      55.563  33.794  54.064  0.00  0.00     0.041 C 
ATOM     18  C   UNL d   1      54.633  33.242  55.949  0.00  0.00     0.120 A 
ATOM     19  C   UNL d   1      53.984  33.559  55.540  0.00  0.00     0.104 A 
ENDBRANCH   3  14
BRANCH   5  20
ATOM     20  C   UNL d   1      51.264  33.772  52.724  0.00  0.00     0.004 A 
ATOM     21  C   UNL d   1      51.310  34.045  51.946  0.00  0.00     0.000 A 
ATOM     22  C   UNL d   1      50.647  34.353  51.574  0.00  0.00     0.000 A 
ATOM     23  C   UNL d   1      49.927  34.391  51.982  0.00  0.00     0.000 A 
ATOM     24  C   UNL d   1      49.873  34.124  52.749  0.00  0.00     0.000 A 
ATOM     25  C   UNL d   1      50.548  33.811  53.123  0.00  0.00     0.000 A 
ENDBRANCH   5  20
TORSDOF 2
ENDMDL
MODEL 7
REMARK VINA RESULT:      -5.4      1.278      3.056
REMARK  2 active torsions:
REMARK  status: ('A' for Active; 'I' for Inactive)
REMARK    1  A    between atoms: N_7  and  C_3 
REMARK    2  A    between atoms: C_15  and  C_5 
ROOT
ATOM      1  N   UNL d   1      52.637  32.419  53.312  0.00  0.00    -0.196 N 
ATOM      2  C   UNL d   1      52.801  33.174  53.646  0.00  0.00     0.167 A 
ATOM      3  C   UNL d   1      52.957  31.737  53.661  0.00  0.00     0.153 A 
ATOM      4  N   UNL d   1      51.848  33.038  52.300  0.00  0.00    -0.163 NA
ATOM      5  C   UNL d   1      52.490  33.841  53.306  0.00  0.00     0.055 A 
ATOM      6  N   UNL d   1      53.279  33.221  54.319  0.00  0.00    -0.227 NA
ATOM      7  C   UNL d   1      53.427  31.799  54.325  0.00  0.00     0.052 A 
ATOM      8  C   UNL d   1      52.009  33.782  52.629  0.00  0.00     0.104 A 
ATOM      9  C   UNL d   1      53.595  32.551  54.665  0.00  0.00     0.086 A 
ATOM     10  C   UNL d   1      53.810  31.244  54.780  0.00  0.00     0.005 A 
ATOM     11  C   UNL d   1      51.698  34.462  52.291  0.00  0.00     0.023 C 
ATOM     12  C   UNL d   1      54.078  32.440  55.321  0.00  0.00     0.019 A 
ATOM     13  C   UNL d   1      54.211  31.619  55.391  0.00  0.00     0.002 A 
ENDROOT
BRANCH   3  14
ATOM     14  N   UNL d   1      52.794  30.972  53.327  0.00  0.00    -0.274 N 
ATOM     15  C   UNL d   1      52.271  30.312  53.293  0.00  0.00     0.149 A 
ATOM     16  N   UNL d   1      52.595  29.750  52.749  0.00  0.00    -0.225 NA
ATOM     17  C   UNL d   1      51.559  30.230  53.722  0.00  0.00     0.041 C 
ATOM     18  C   UNL d   1      53.318  30.075  52.454  0.00  0.00     0.120 A 
ATOM     19  C   UNL d   1      53.441  30.817  52.804  0.00  0.00     0.104 A 
ENDBRANCH   3  14
BRANCH   5  20
ATOM     20  C   UNL d   1      52.650  34.581  53.633  0.00  0.00     0.004 A 
ATOM     21  C   UNL d   1      53.310  35.010  53.385  0.00  0.00     0.000 A 
ATOM     22  C   UNL d   1      53.472  35.746  53.709  0.00  0.00     0.000 A 
ATOM     23  C   UNL d   1      52.971  36.061  54.288  0.00  0.00     0.000 A 
ATOM     24  C   UNL d   1      52.319  35.643  54.539  0.00  0.00     0.000 A 
ATOM     25  C   UNL d   1      52.156  34.896  54.208  0.00  0.00     0.000 A 
ENDBRANCH   5  20
TORSDOF 2
ENDMDL
