MODEL 1
REMARK VINA RESULT:      43.5      0.000      0.000
REMARK  2 active torsions:
REMARK  status: ('A' for Active; 'I' for Inactive)
REMARK    1  A    between atoms: C_9  and  C_1 
REMARK    2  A    between atoms: C_18  and  N_6 
ROOT
ATOM      1  C   UNL d   1     -58.428 -99.006 -43.705  0.00  0.00     0.121 A 
ATOM      2  C   UNL d   1     -58.920 -98.953 -45.051  0.00  0.00     0.057 A 
ATOM      3  C   UNL d   1     -59.072 -99.024 -44.236  0.00  0.00     0.204 A 
ATOM      4  C   UNL d   1     -58.146 -98.865 -45.339  0.00  0.00     0.069 A 
ATOM      5  C   UNL d   1     -57.651 -98.918 -43.985  0.00  0.00     0.089 A 
ATOM      6  N   UNL d   1     -57.514 -98.848 -44.803  0.00  0.00    -0.303 N 
ATOM      7  C   UNL d   1     -58.012 -98.796 -46.142  0.00  0.00     0.044 A 
ATOM      8  C   UNL d   1     -59.552 -98.969 -45.586  0.00  0.00     0.031 A 
ATOM      9  C   UNL d   1     -58.641 -98.813 -46.671  0.00  0.00     0.121 A 
ATOM     10  C   UNL d   1     -59.410 -98.900 -46.393  0.00  0.00     0.119 A 
ATOM     11  O   UNL d   1     -58.666 -98.758 -47.488  0.00  0.00    -0.299 OA
ATOM     12  O   UNL d   1     -59.911 -98.897 -47.039  0.00  0.00    -0.300 OA
ATOM     13  O   UNL d   1     -59.841 -99.110 -43.958  0.00  0.00    -0.286 OA
ATOM     14  C   UNL d   1     -59.458 -98.810 -47.714  0.00  0.00     0.304 A 
ENDROOT
BRANCH   1  15
ATOM     15  C   UNL d   1     -58.569 -99.075 -42.894  0.00  0.00     0.215 C 
ATOM     16  O   UNL d   1     -59.264 -98.777 -42.570  0.00  0.00    -0.644 OA
ATOM     17  O   UNL d   1     -58.014 -99.443 -42.412  0.00  0.00    -0.644 OA
ENDBRANCH   1  15
BRANCH   6  18
ATOM     18  C   UNL d   1     -56.744 -98.762 -45.081  0.00  0.00     0.080 C 
ATOM     19  C   UNL d   1     -56.216 -99.399 -45.033  0.00  0.00     0.021 C 
ENDBRANCH   6  18
TORSDOF 2
ENDMDL
MODEL 2
REMARK VINA RESULT:      45.5      1.401      3.150
REMARK  2 active torsions:
REMARK  status: ('A' for Active; 'I' for Inactive)
REMARK    1  A    between atoms: C_9  and  C_1 
REMARK    2  A    between atoms: C_18  and  N_6 
ROOT
ATOM      1  C   UNL d   1     -58.653 -98.877 -44.789  0.00  0.00     0.121 A 
ATOM      2  C   UNL d   1     -57.342 -98.887 -44.207  0.00  0.00     0.057 A 
ATOM      3  C   UNL d   1     -58.168 -98.907 -44.110  0.00  0.00     0.204 A 
ATOM      4  C   UNL d   1     -56.997 -98.838 -44.962  0.00  0.00     0.069 A 
ATOM      5  C   UNL d   1     -58.316 -98.828 -45.547  0.00  0.00     0.089 A 
ATOM      6  N   UNL d   1     -57.488 -98.809 -45.629  0.00  0.00    -0.303 N 
ATOM      7  C   UNL d   1     -56.185 -98.819 -45.041  0.00  0.00     0.044 A 
ATOM      8  C   UNL d   1     -56.852 -98.916 -43.540  0.00  0.00     0.031 A 
ATOM      9  C   UNL d   1     -55.702 -98.848 -44.378  0.00  0.00     0.121 A 
ATOM     10  C   UNL d   1     -56.035 -98.896 -43.627  0.00  0.00     0.119 A 
ATOM     11  O   UNL d   1     -54.886 -98.838 -44.298  0.00  0.00    -0.299 OA
ATOM     12  O   UNL d   1     -55.425 -98.916 -43.084  0.00  0.00    -0.300 OA
ATOM     13  O   UNL d   1     -58.501 -98.955 -43.359  0.00  0.00    -0.286 OA
ATOM     14  C   UNL d   1     -54.717 -98.880 -43.491  0.00  0.00     0.304 A 
ENDROOT
BRANCH   1  15
ATOM     15  C   UNL d   1     -59.473 -98.897 -44.703  0.00  0.00     0.215 C 
ATOM     16  O   UNL d   1     -59.958 -98.786 -45.359  0.00  0.00    -0.644 OA
ATOM     17  O   UNL d   1     -59.806 -99.027 -43.962  0.00  0.00    -0.644 OA
ENDBRANCH   1  15
BRANCH   6  18
ATOM     18  C   UNL d   1     -57.155 -98.760 -46.380  0.00  0.00     0.080 C 
ATOM     19  C   UNL d   1     -57.644 -98.776 -47.049  0.00  0.00     0.021 C 
ENDBRANCH   6  18
TORSDOF 2
ENDMDL
MODEL 3
REMARK VINA RESULT:      46.5      3.771      5.521
REMARK  2 active torsions:
REMARK  status: ('A' for Active; 'I' for Inactive)
REMARK    1  A    between atoms: C_9  and  C_1 
REMARK    2  A    between atoms: C_18  and  N_6 
ROOT
ATOM      1  C   UNL d   1     -55.106-100.323 -44.628  0.00  0.00     0.121 A 
ATOM      2  C   UNL d   1     -54.971-100.940 -43.341  0.00  0.00     0.057 A 
ATOM      3  C   UNL d   1     -55.044-100.250 -43.799  0.00  0.00     0.204 A 
ATOM      4  C   UNL d   1     -54.959-101.693 -43.694  0.00  0.00     0.069 A 
ATOM      5  C   UNL d   1     -55.095-101.071 -44.989  0.00  0.00     0.089 A 
ATOM      6  N   UNL d   1     -55.021-101.754 -44.519  0.00  0.00    -0.303 N 
ATOM      7  C   UNL d   1     -54.886-102.362 -43.231  0.00  0.00     0.044 A 
ATOM      8  C   UNL d   1     -54.909-100.879 -42.517  0.00  0.00     0.031 A 
ATOM      9  C   UNL d   1     -54.824-102.298 -42.415  0.00  0.00     0.121 A 
ATOM     10  C   UNL d   1     -54.836-101.556 -42.058  0.00  0.00     0.119 A 
ATOM     11  O   UNL d   1     -54.747-102.865 -41.829  0.00  0.00    -0.299 OA
ATOM     12  O   UNL d   1     -54.766-101.666 -41.251  0.00  0.00    -0.300 OA
ATOM     13  O   UNL d   1     -55.056 -99.509 -43.442  0.00  0.00    -0.286 OA
ATOM     14  C   UNL d   1     -54.711-102.469 -41.105  0.00  0.00     0.304 A 
ENDROOT
BRANCH   1  15
ATOM     15  C   UNL d   1     -55.180 -99.644 -45.091  0.00  0.00     0.215 C 
ATOM     16  O   UNL d   1     -55.682 -99.036 -44.854  0.00  0.00    -0.644 OA
ATOM     17  O   UNL d   1     -54.751 -99.574 -45.789  0.00  0.00    -0.644 OA
ENDBRANCH   1  15
BRANCH   6  18
ATOM     18  C   UNL d   1     -55.010-102.495 -44.876  0.00  0.00     0.080 C 
ATOM     19  C   UNL d   1     -55.119-102.559 -45.695  0.00  0.00     0.021 C 
ENDBRANCH   6  18
TORSDOF 2
ENDMDL
