MODEL 1
REMARK VINA RESULT:      -7.5      0.000      0.000
REMARK  3 active torsions:
REMARK  status: ('A' for Active; 'I' for Inactive)
REMARK    1  A    between atoms: C_6  and  C_1 
REMARK    2  A    between atoms: C_7  and  C_3 
REMARK    3  A    between atoms: C_11  and  C_7 
ROOT
ATOM      1  C   UNL d   1     -46.903  13.321  22.948  0.00  0.00     0.085 A 
ATOM      2  C   UNL d   1     -47.454  13.906  22.781  0.00  0.00     0.137 A 
ATOM      3  C   UNL d   1     -48.114  12.789  23.054  0.00  0.00     0.031 A 
ATOM      4  S   UNL d   1     -48.204  13.569  22.849  0.00  0.00    -0.066 SA
ATOM      5  C   UNL d   1     -47.307  12.623  23.119  0.00  0.00     0.013 A 
ATOM      6  N   UNL d   1     -47.258  14.692  22.581  0.00  0.00    -0.141 N 
ATOM      7  C   UNL d   1     -46.986  11.919  23.311  0.00  0.00     0.001 C 
ENDROOT
BRANCH   3   8
ATOM      8  C   UNL d   1     -48.668  12.188  23.197  0.00  0.00     0.006 C 
BRANCH   8   9
ATOM      9  C   UNL d   1     -49.471  12.314  23.073  0.00  0.00     0.001 A 
ATOM     10  C   UNL d   1     -49.949  12.531  23.698  0.00  0.00     0.000 A 
ATOM     11  C   UNL d   1     -50.766  12.658  23.566  0.00  0.00     0.000 A 
ATOM     12  C   UNL d   1     -51.064  12.561  22.813  0.00  0.00     0.000 A 
ATOM     13  C   UNL d   1     -50.580  12.340  22.176  0.00  0.00     0.000 A 
ATOM     14  C   UNL d   1     -49.797  12.221  22.315  0.00  0.00     0.000 A 
ENDBRANCH   8   9
ENDBRANCH   3   8
BRANCH   1  15
ATOM     15  C   UNL d   1     -46.074  13.436  22.940  0.00  0.00     0.299 C 
ATOM     16  O   UNL d   1     -45.664  13.667  23.608  0.00  0.00    -0.264 OA
ATOM     17  N   UNL d   1     -45.664  13.305  22.207  0.00  0.00    -0.102 N 
ENDBRANCH   1  15
TORSDOF 3
ENDMDL
MODEL 2
REMARK VINA RESULT:      -7.2      2.293      3.772
REMARK  3 active torsions:
REMARK  status: ('A' for Active; 'I' for Inactive)
REMARK    1  A    between atoms: C_6  and  C_1 
REMARK    2  A    between atoms: C_7  and  C_3 
REMARK    3  A    between atoms: C_11  and  C_7 
ROOT
ATOM      1  C   UNL d   1     -49.703  14.102  22.247  0.00  0.00     0.085 A 
ATOM      2  C   UNL d   1     -49.371  13.524  21.767  0.00  0.00     0.137 A 
ATOM      3  C   UNL d   1     -48.418  13.993  22.560  0.00  0.00     0.031 A 
ATOM      4  S   UNL d   1     -48.573  13.461  21.967  0.00  0.00    -0.066 SA
ATOM      5  C   UNL d   1     -49.114  14.398  22.743  0.00  0.00     0.013 A 
ATOM      6  N   UNL d   1     -49.794  13.094  21.190  0.00  0.00    -0.141 N 
ATOM      7  C   UNL d   1     -49.196  14.966  23.295  0.00  0.00     0.001 C 
ENDROOT
BRANCH   3   8
ATOM      8  C   UNL d   1     -47.720  14.172  22.973  0.00  0.00     0.006 C 
BRANCH   8   9
ATOM      9  C   UNL d   1     -47.061  13.684  22.921  0.00  0.00     0.001 A 
ATOM     10  C   UNL d   1     -46.471  13.853  22.381  0.00  0.00     0.000 A 
ATOM     11  C   UNL d   1     -45.802  13.353  22.333  0.00  0.00     0.000 A 
ATOM     12  C   UNL d   1     -45.755  12.706  22.827  0.00  0.00     0.000 A 
ATOM     13  C   UNL d   1     -46.352  12.532  23.377  0.00  0.00     0.000 A 
ATOM     14  C   UNL d   1     -46.991  13.020  23.414  0.00  0.00     0.000 A 
ENDBRANCH   8   9
ENDBRANCH   3   8
BRANCH   1  15
ATOM     15  C   UNL d   1     -50.506  14.335  22.219  0.00  0.00     0.299 C 
ATOM     16  O   UNL d   1     -50.754  14.975  21.775  0.00  0.00    -0.264 OA
ATOM     17  N   UNL d   1     -51.064  13.883  22.673  0.00  0.00    -0.102 N 
ENDBRANCH   1  15
TORSDOF 3
ENDMDL
MODEL 3
REMARK VINA RESULT:      -7.0      2.206      3.631
REMARK  3 active torsions:
REMARK  status: ('A' for Active; 'I' for Inactive)
REMARK    1  A    between atoms: C_6  and  C_1 
REMARK    2  A    between atoms: C_7  and  C_3 
REMARK    3  A    between atoms: C_11  and  C_7 
ROOT
ATOM      1  C   UNL d   1     -49.786  14.459  22.458  0.00  0.00     0.085 A 
ATOM      2  C   UNL d   1     -49.204  14.912  22.819  0.00  0.00     0.137 A 
ATOM      3  C   UNL d   1     -48.615  13.868  22.254  0.00  0.00     0.031 A 
ATOM      4  S   UNL d   1     -48.479  14.539  22.689  0.00  0.00    -0.066 SA
ATOM      5  C   UNL d   1     -49.426  13.807  22.103  0.00  0.00     0.013 A 
ATOM      6  N   UNL d   1     -49.352  15.619  23.237  0.00  0.00    -0.141 N 
ATOM      7  C   UNL d   1     -49.786  13.227  21.693  0.00  0.00     0.001 C 
ENDROOT
BRANCH   3   8
ATOM      8  C   UNL d   1     -48.101  13.284  21.963  0.00  0.00     0.006 C 
BRANCH   8   9
ATOM      9  C   UNL d   1     -47.389  13.122  22.340  0.00  0.00     0.001 A 
ATOM     10  C   UNL d   1     -46.710  13.515  22.114  0.00  0.00     0.000 A 
ATOM     11  C   UNL d   1     -45.988  13.346  22.502  0.00  0.00     0.000 A 
ATOM     12  C   UNL d   1     -45.980  12.790  23.099  0.00  0.00     0.000 A 
ATOM     13  C   UNL d   1     -46.669  12.390  23.331  0.00  0.00     0.000 A 
ATOM     14  C   UNL d   1     -47.357  12.561  22.952  0.00  0.00     0.000 A 
ENDBRANCH   8   9
ENDBRANCH   3   8
BRANCH   1  15
ATOM     15  C   UNL d   1     -50.601  14.647  22.460  0.00  0.00     0.299 C 
ATOM     16  O   UNL d   1     -50.949  15.068  21.853  0.00  0.00    -0.264 OA
ATOM     17  N   UNL d   1     -51.064  14.383  23.123  0.00  0.00    -0.102 N 
ENDBRANCH   1  15
TORSDOF 3
ENDMDL
