MODEL 1
REMARK VINA RESULT:      36.7      0.000      0.000
REMARK  6 active torsions:
REMARK  status: ('A' for Active; 'I' for Inactive)
REMARK    1  A    between atoms: C_2  and  C_1 
REMARK       I    between atoms: N_5  and  C_2 
REMARK    2  A    between atoms: C_13  and  N_5 
REMARK    3  A    between atoms: C_14  and  C_6 
REMARK       I    between atoms: C_8  and  N_9 
REMARK    4  A    between atoms: N_9  and  C_15 
REMARK    5  A    between atoms: S_11  and  C_14 
REMARK    6  A    between atoms: C_16  and  S_11 
ROOT
ATOM      1  C   UNL d   1      13.452  12.166  -4.506  0.00  0.00     0.158 A 
ATOM      2  O   UNL d   1      14.081  12.139  -3.973  0.00  0.00    -0.302 OA
ATOM      3  C   UNL d   1      12.768  11.946  -4.094  0.00  0.00     0.032 A 
ATOM      4  C   UNL d   1      13.794  11.908  -3.244  0.00  0.00     0.107 A 
ATOM      5  C   UNL d   1      12.980  11.786  -3.312  0.00  0.00     0.027 A 
ENDROOT
BRANCH   1   6
ATOM      6  C   UNL d   1      13.488  12.372  -5.305  0.00  0.00     0.302 C 
ATOM      7  N   UNL d   1      13.540  13.162  -5.529  0.00  0.00    -0.206 NA
ATOM      8  O   UNL d   1      13.472  11.781  -5.875  0.00  0.00    -0.263 OA
BRANCH   7   9
ATOM      9  C   UNL d   1      13.555  13.752  -4.942  0.00  0.00     0.085 A 
ATOM     10  C   UNL d   1      12.851  14.069  -4.651  0.00  0.00     0.021 A 
ATOM     11  C   UNL d   1      12.880  14.652  -4.069  0.00  0.00     0.021 A 
ATOM     12  C   UNL d   1      13.606  14.915  -3.782  0.00  0.00     0.085 A 
ATOM     13  C   UNL d   1      14.309  14.592  -4.078  0.00  0.00     0.021 A 
ATOM     14  C   UNL d   1      14.288  14.010  -4.659  0.00  0.00     0.021 A 
BRANCH  12  15
ATOM     15  N   UNL d   1      13.633  15.502  -3.196  0.00  0.00    -0.208 NA
ATOM     16  C   UNL d   1      14.355  15.858  -3.010  0.00  0.00     0.279 C 
ATOM     17  O   UNL d   1      15.044  15.637  -3.398  0.00  0.00    -0.265 OA
ATOM     18  C   UNL d   1      14.379  16.439  -2.430  0.00  0.00     0.068 C 
ENDBRANCH  12  15
ENDBRANCH   7   9
ENDBRANCH   1   6
BRANCH   4  19
ATOM     19  C   UNL d   1      14.234  11.809  -2.552  0.00  0.00     0.060 C 
BRANCH  19  20
ATOM     20  S   UNL d   1      13.970  12.142  -1.847  0.00  0.00    -0.084 SA
BRANCH  20  21
ATOM     21  C   UNL d   1      14.496  12.300  -1.238  0.00  0.00     0.029 A 
ATOM     22  C   UNL d   1      14.367  12.958  -0.757  0.00  0.00     0.006 A 
ATOM     23  C   UNL d   1      14.893  13.117  -0.147  0.00  0.00     0.001 A 
ATOM     24  C   UNL d   1      15.541  12.628  -0.015  0.00  0.00     0.000 A 
ATOM     25  C   UNL d   1      15.669  11.968  -0.500  0.00  0.00     0.001 A 
ATOM     26  C   UNL d   1      15.143  11.810  -1.109  0.00  0.00     0.006 A 
ENDBRANCH  20  21
ENDBRANCH  19  20
ENDBRANCH   4  19
TORSDOF 6
ENDMDL
