MODEL 1
REMARK VINA RESULT:      -3.6      0.000      0.000
REMARK  5 active torsions:
REMARK  status: ('A' for Active; 'I' for Inactive)
REMARK    1  A    between atoms: C_7  and  C_1 
REMARK    2  A    between atoms: C_13  and  N_3 
REMARK       I    between atoms: C_6  and  N_10 
REMARK    3  A    between atoms: C_8  and  C_6 
REMARK    4  A    between atoms: C_14  and  C_7 
REMARK    5  A    between atoms: N_10  and  C_14 
ROOT
ATOM      1  C   UNL d   1      57.869   0.276  31.134  0.00  0.00     0.058 C 
ENDROOT
BRANCH   1   2
ATOM      2  C   UNL d   1      57.362  -0.101  31.669  0.00  0.00     0.149 A 
ATOM      3  N   UNL d   1      56.856  -0.722  31.498  0.00  0.00    -0.227 NA
ATOM      4  C   UNL d   1      56.456  -0.926  32.187  0.00  0.00     0.099 A 
ATOM      5  C   UNL d   1      55.882  -1.511  32.339  0.00  0.00     0.021 A 
ATOM      6  C   UNL d   1      56.714  -0.429  32.792  0.00  0.00     0.083 A 
ATOM      7  C   UNL d   1      55.574  -1.586  33.104  0.00  0.00     0.002 A 
ATOM      8  C   UNL d   1      55.835  -1.087  33.705  0.00  0.00     0.002 A 
ATOM      9  C   UNL d   1      56.406  -0.505  33.556  0.00  0.00     0.019 A 
ATOM     10  N   UNL d   1      57.279   0.087  32.471  0.00  0.00    -0.289 N 
BRANCH  10  11
ATOM     11  C   UNL d   1      57.688   0.682  32.874  0.00  0.00     0.082 C 
ATOM     12  C   UNL d   1      58.515   0.668  32.896  0.00  0.00     0.021 C 
ENDBRANCH  10  11
ENDBRANCH   1   2
BRANCH   1  13
ATOM     13  C   UNL d   1      58.017  -0.071  30.397  0.00  0.00     0.105 C 
BRANCH  13  14
ATOM     14  N   UNL d   1      58.164   0.396  29.740  0.00  0.00    -0.206 NA
ATOM     15  C   UNL d   1      58.613   0.102  29.113  0.00  0.00     0.279 C 
ATOM     16  O   UNL d   1      58.755   0.578  28.458  0.00  0.00    -0.265 OA
BRANCH  15  17
ATOM     17  C   UNL d   1      58.915  -0.660  29.147  0.00  0.00     0.058 A 
ATOM     18  C   UNL d   1      58.480  -1.285  28.840  0.00  0.00     0.007 A 
ATOM     19  C   UNL d   1      58.781  -2.048  28.875  0.00  0.00     0.030 A 
ATOM     20  C   UNL d   1      59.517  -2.195  29.214  0.00  0.00     0.140 A 
ATOM     21  C   UNL d   1      59.949  -1.565  29.520  0.00  0.00     0.030 A 
ATOM     22  F   UNL d   1      59.825  -2.966  29.249  0.00  0.00    -0.204 F 
ATOM     23  C   UNL d   1      59.652  -0.807  29.487  0.00  0.00     0.007 A 
ENDBRANCH  15  17
ENDBRANCH  13  14
ENDBRANCH   1  13
TORSDOF 5
ENDMDL
MODEL 2
REMARK VINA RESULT:      -3.1      1.954      4.462
REMARK  5 active torsions:
REMARK  status: ('A' for Active; 'I' for Inactive)
REMARK    1  A    between atoms: C_7  and  C_1 
REMARK    2  A    between atoms: C_13  and  N_3 
REMARK       I    between atoms: C_6  and  N_10 
REMARK    3  A    between atoms: C_8  and  C_6 
REMARK    4  A    between atoms: C_14  and  C_7 
REMARK    5  A    between atoms: N_10  and  C_14 
ROOT
ATOM      1  C   UNL d   1      57.738   0.094  30.516  0.00  0.00     0.058 C 
ENDROOT
BRANCH   1   2
ATOM      2  C   UNL d   1      58.155  -0.473  30.079  0.00  0.00     0.149 A 
ATOM      3  N   UNL d   1      58.090  -1.285  30.158  0.00  0.00    -0.227 NA
ATOM      4  C   UNL d   1      58.600  -1.639  29.619  0.00  0.00     0.099 A 
ATOM      5  C   UNL d   1      58.763  -2.440  29.456  0.00  0.00     0.021 A 
ATOM      6  C   UNL d   1      58.987  -1.042  29.201  0.00  0.00     0.083 A 
ATOM      7  C   UNL d   1      59.316  -2.629  28.870  0.00  0.00     0.002 A 
ATOM      8  C   UNL d   1      59.699  -2.031  28.455  0.00  0.00     0.002 A 
ATOM      9  C   UNL d   1      59.540  -1.233  28.615  0.00  0.00     0.019 A 
ATOM     10  N   UNL d   1      58.710  -0.314  29.487  0.00  0.00    -0.289 N 
BRANCH  10  11
ATOM     11  C   UNL d   1      58.943   0.436  29.230  0.00  0.00     0.082 C 
ATOM     12  C   UNL d   1      59.732   0.673  29.316  0.00  0.00     0.021 C 
ENDBRANCH  10  11
ENDBRANCH   1   2
BRANCH   1  13
ATOM     13  C   UNL d   1      57.530  -0.066  31.301  0.00  0.00     0.105 C 
BRANCH  13  14
ATOM     14  N   UNL d   1      57.949   0.271  31.919  0.00  0.00    -0.206 NA
ATOM     15  C   UNL d   1      57.604   0.342  32.666  0.00  0.00     0.279 C 
ATOM     16  O   UNL d   1      58.033   0.682  33.279  0.00  0.00    -0.265 OA
BRANCH  15  17
ATOM     17  C   UNL d   1      56.839   0.073  32.791  0.00  0.00     0.058 A 
ATOM     18  C   UNL d   1      56.676  -0.730  32.741  0.00  0.00     0.007 A 
ATOM     19  C   UNL d   1      55.910  -0.999  32.866  0.00  0.00     0.030 A 
ATOM     20  C   UNL d   1      55.302  -0.472  33.040  0.00  0.00     0.140 A 
ATOM     21  C   UNL d   1      55.471   0.332  33.089  0.00  0.00     0.030 A 
ATOM     22  F   UNL d   1      54.526  -0.741  33.167  0.00  0.00    -0.204 F 
ATOM     23  C   UNL d   1      56.230   0.601  32.965  0.00  0.00     0.007 A 
ENDBRANCH  15  17
ENDBRANCH  13  14
ENDBRANCH   1  13
TORSDOF 5
ENDMDL
MODEL 3
REMARK VINA RESULT:      -0.7      1.857      4.666
REMARK  5 active torsions:
REMARK  status: ('A' for Active; 'I' for Inactive)
REMARK    1  A    between atoms: C_7  and  C_1 
REMARK    2  A    between atoms: C_13  and  N_3 
REMARK       I    between atoms: C_6  and  N_10 
REMARK    3  A    between atoms: C_8  and  C_6 
REMARK    4  A    between atoms: C_14  and  C_7 
REMARK    5  A    between atoms: N_10  and  C_14 
ROOT
ATOM      1  C   UNL d   1      58.130  -1.058  30.361  0.00  0.00     0.058 C 
ENDROOT
BRANCH   1   2
ATOM      2  C   UNL d   1      58.829  -0.903  29.944  0.00  0.00     0.149 A 
ATOM      3  N   UNL d   1      59.222  -0.186  29.911  0.00  0.00    -0.227 NA
ATOM      4  C   UNL d   1      59.887  -0.277  29.437  0.00  0.00     0.099 A 
ATOM      5  C   UNL d   1      60.482   0.261  29.211  0.00  0.00     0.021 A 
ATOM      6  C   UNL d   1      59.909  -1.057  29.171  0.00  0.00     0.083 A 
ATOM      7  C   UNL d   1      61.095   0.004  28.718  0.00  0.00     0.002 A 
ATOM      8  C   UNL d   1      61.113  -0.776  28.455  0.00  0.00     0.002 A 
ATOM      9  C   UNL d   1      60.522  -1.314  28.678  0.00  0.00     0.019 A 
ATOM     10  N   UNL d   1      59.249  -1.449  29.486  0.00  0.00    -0.289 N 
BRANCH  10  11
ATOM     11  C   UNL d   1      59.045  -2.242  29.368  0.00  0.00     0.082 C 
ATOM     12  C   UNL d   1      58.537  -2.446  28.748  0.00  0.00     0.021 C 
ENDBRANCH  10  11
ENDBRANCH   1   2
BRANCH   1  13
ATOM     13  C   UNL d   1      57.792  -0.463  30.827  0.00  0.00     0.105 C 
BRANCH  13  14
ATOM     14  N   UNL d   1      57.110  -0.081  30.581  0.00  0.00    -0.206 NA
ATOM     15  C   UNL d   1      56.626   0.301  31.130  0.00  0.00     0.279 C 
ATOM     16  O   UNL d   1      55.944   0.681  30.874  0.00  0.00    -0.265 OA
BRANCH  15  17
ATOM     17  C   UNL d   1      56.828   0.299  31.925  0.00  0.00     0.058 A 
ATOM     18  C   UNL d   1      56.347  -0.089  32.467  0.00  0.00     0.007 A 
ATOM     19  C   UNL d   1      56.550  -0.091  33.262  0.00  0.00     0.030 A 
ATOM     20  C   UNL d   1      57.230   0.291  33.525  0.00  0.00     0.140 A 
ATOM     21  C   UNL d   1      57.708   0.678  32.979  0.00  0.00     0.030 A 
ATOM     22  F   UNL d   1      57.437   0.291  34.331  0.00  0.00    -0.204 F 
ATOM     23  C   UNL d   1      57.509   0.682  32.188  0.00  0.00     0.007 A 
ENDBRANCH  15  17
ENDBRANCH  13  14
ENDBRANCH   1  13
TORSDOF 5
ENDMDL
