MODEL 1
REMARK VINA RESULT:      41.3      0.000      0.000
REMARK  3 active torsions:
REMARK  status: ('A' for Active; 'I' for Inactive)
REMARK    1  A    between atoms: C_9  and  C_4 
REMARK    2  A    between atoms: C_10  and  C_7 
REMARK    3  A    between atoms: C_17  and  C_10 
ROOT
ATOM      1  C   UNL d   1     -54.727-101.336 -41.499  0.00  0.00     0.179 A 
ATOM      2  N   UNL d   1     -54.743-102.013 -41.980  0.00  0.00    -0.282 N 
ATOM      3  N   UNL d   1     -54.731-100.672 -41.990  0.00  0.00    -0.221 NA
ATOM      4  C   UNL d   1     -54.750-100.937 -42.779  0.00  0.00     0.101 A 
ATOM      5  S   UNL d   1     -54.713-101.581 -40.712  0.00  0.00    -0.048 SA
ATOM      6  C   UNL d   1     -54.756-101.759 -42.764  0.00  0.00     0.101 A 
ATOM      7  C   UNL d   1     -54.721-102.409 -40.710  0.00  0.00     0.050 A 
ATOM      8  C   UNL d   1     -54.738-102.666 -41.481  0.00  0.00     0.089 A 
ENDROOT
BRANCH   4   9
ATOM      9  C   UNL d   1     -54.759-100.458 -43.439  0.00  0.00     0.019 A 
ATOM     10  C   UNL d   1     -54.816-100.799 -44.188  0.00  0.00     0.004 A 
ATOM     11  C   UNL d   1     -54.826-100.326 -44.865  0.00  0.00     0.030 A 
ATOM     12  C   UNL d   1     -54.778 -99.503 -44.783  0.00  0.00     0.140 A 
ATOM     13  C   UNL d   1     -54.722 -99.160 -44.041  0.00  0.00     0.030 A 
ATOM     14  F   UNL d   1     -54.776 -98.893 -45.345  0.00  0.00    -0.204 F 
ATOM     15  C   UNL d   1     -54.712 -99.633 -43.367  0.00  0.00     0.004 A 
ENDBRANCH   4   9
BRANCH   7  16
ATOM     16  C   UNL d   1     -54.711-102.879 -40.032  0.00  0.00     0.008 C 
BRANCH  16  17
ATOM     17  C   UNL d   1     -55.198-102.707 -39.392  0.00  0.00     0.001 A 
ATOM     18  C   UNL d   1     -56.009-102.831 -39.435  0.00  0.00     0.000 A 
ATOM     19  C   UNL d   1     -56.499-102.657 -38.787  0.00  0.00     0.000 A 
ATOM     20  C   UNL d   1     -56.166-102.356 -38.094  0.00  0.00     0.000 A 
ATOM     21  C   UNL d   1     -55.353-102.230 -38.045  0.00  0.00     0.000 A 
ATOM     22  C   UNL d   1     -54.864-102.404 -38.692  0.00  0.00     0.000 A 
ENDBRANCH  16  17
ENDBRANCH   7  16
TORSDOF 3
ENDMDL
MODEL 2
REMARK VINA RESULT:      43.5      0.685      1.103
REMARK  3 active torsions:
REMARK  status: ('A' for Active; 'I' for Inactive)
REMARK    1  A    between atoms: C_9  and  C_4 
REMARK    2  A    between atoms: C_10  and  C_7 
REMARK    3  A    between atoms: C_17  and  C_10 
ROOT
ATOM      1  C   UNL d   1     -54.727-101.496 -40.655  0.00  0.00     0.179 A 
ATOM      2  N   UNL d   1     -54.724-102.220 -41.064  0.00  0.00    -0.282 N 
ATOM      3  N   UNL d   1     -54.734-100.886 -41.213  0.00  0.00    -0.221 NA
ATOM      4  C   UNL d   1     -54.735-101.232 -41.970  0.00  0.00     0.101 A 
ATOM      5  S   UNL d   1     -54.723-101.658 -39.847  0.00  0.00    -0.048 SA
ATOM      6  C   UNL d   1     -54.729-102.047 -41.870  0.00  0.00     0.101 A 
ATOM      7  C   UNL d   1     -54.717-102.481 -39.760  0.00  0.00     0.050 A 
ATOM      8  C   UNL d   1     -54.718-102.817 -40.500  0.00  0.00     0.089 A 
ENDROOT
BRANCH   4   9
ATOM      9  C   UNL d   1     -54.740-100.824 -42.676  0.00  0.00     0.019 A 
ATOM     10  C   UNL d   1     -54.766-101.242 -43.387  0.00  0.00     0.004 A 
ATOM     11  C   UNL d   1     -54.772-100.841 -44.110  0.00  0.00     0.030 A 
ATOM     12  C   UNL d   1     -54.752-100.014 -44.112  0.00  0.00     0.140 A 
ATOM     13  C   UNL d   1     -54.727 -99.594 -43.408  0.00  0.00     0.030 A 
ATOM     14  F   UNL d   1     -54.753 -99.465 -44.734  0.00  0.00    -0.204 F 
ATOM     15  C   UNL d   1     -54.721 -99.995 -42.689  0.00  0.00     0.004 A 
ENDBRANCH   4   9
BRANCH   7  16
ATOM     16  C   UNL d   1     -54.711-102.879 -39.037  0.00  0.00     0.008 C 
BRANCH  16  17
ATOM     17  C   UNL d   1     -55.147-102.599 -38.397  0.00  0.00     0.001 A 
ATOM     18  C   UNL d   1     -54.796-102.130 -37.822  0.00  0.00     0.000 A 
ATOM     19  C   UNL d   1     -55.238-101.849 -37.178  0.00  0.00     0.000 A 
ATOM     20  C   UNL d   1     -56.039-102.044 -37.116  0.00  0.00     0.000 A 
ATOM     21  C   UNL d   1     -56.396-102.514 -37.691  0.00  0.00     0.000 A 
ATOM     22  C   UNL d   1     -55.954-102.795 -38.334  0.00  0.00     0.000 A 
ENDBRANCH  16  17
ENDBRANCH   7  16
TORSDOF 3
ENDMDL
