MODEL 1
REMARK VINA RESULT:      -2.5      0.000      0.000
REMARK  4 active torsions:
REMARK  status: ('A' for Active; 'I' for Inactive)
REMARK    1  A    between atoms: C_8  and  C_1 
REMARK    2  A    between atoms: N_4  and  C_2 
REMARK       I    between atoms: C_6  and  N_4 
REMARK    3  A    between atoms: C_9  and  C_6 
REMARK    4  A    between atoms: O_16  and  C_8 
ROOT
ATOM      1  C   UNL d   1      32.643  23.064 -21.437  0.00  0.00     0.110 A 
ATOM      2  C   UNL d   1      32.951  22.383 -21.067  0.00  0.00     0.096 A 
ATOM      3  S   UNL d   1      32.498  23.583 -20.864  0.00  0.00    -0.080 SA
ATOM      4  C   UNL d   1      32.986  22.503 -20.284  0.00  0.00     0.024 A 
ATOM      5  C   UNL d   1      32.702  23.264 -20.127  0.00  0.00     0.031 A 
ATOM      6  C   UNL d   1      33.240  22.028 -19.650  0.00  0.00     0.002 A 
ATOM      7  C   UNL d   1      32.668  23.551 -19.370  0.00  0.00     0.006 A 
ATOM      8  C   UNL d   1      33.208  22.311 -18.895  0.00  0.00     0.000 A 
ATOM      9  C   UNL d   1      32.918  23.082 -18.755  0.00  0.00     0.001 A 
ENDROOT
BRANCH   2  10
ATOM     10  N   UNL d   1      33.185  21.688 -21.456  0.00  0.00    -0.207 NA
ATOM     11  C   UNL d   1      32.710  21.005 -21.392  0.00  0.00     0.285 C 
ATOM     12  O   UNL d   1      32.023  21.048 -20.942  0.00  0.00    -0.265 OA
BRANCH  11  13
ATOM     13  C   UNL d   1      32.915  20.311 -21.763  0.00  0.00     0.087 A 
ATOM     14  S   UNL d   1      33.017  19.589 -21.378  0.00  0.00    -0.082 SA
ATOM     15  C   UNL d   1      33.219  19.029 -21.932  0.00  0.00     0.036 A 
ATOM     16  C   UNL d   1      33.241  19.414 -22.676  0.00  0.00     0.008 A 
ATOM     17  C   UNL d   1      33.055  20.194 -22.568  0.00  0.00     0.012 A 
ENDBRANCH  11  13
ENDBRANCH   2  10
BRANCH   1  18
ATOM     18  C   UNL d   1      32.498  23.213 -22.257  0.00  0.00     0.303 C 
ATOM     19  O   UNL d   1      31.734  23.419 -22.477  0.00  0.00    -0.259 OA
BRANCH  18  20
ATOM     20  O   UNL d   1      33.098  23.153 -22.809  0.00  0.00    -0.295 OA
ATOM     21  C   UNL d   1      33.117  23.644 -23.459  0.00  0.00     0.185 C 
ENDBRANCH  18  20
ENDBRANCH   1  18
TORSDOF 4
ENDMDL
MODEL 2
REMARK VINA RESULT:      -0.9      4.811      6.265
REMARK  4 active torsions:
REMARK  status: ('A' for Active; 'I' for Inactive)
REMARK    1  A    between atoms: C_8  and  C_1 
REMARK    2  A    between atoms: N_4  and  C_2 
REMARK       I    between atoms: C_6  and  N_4 
REMARK    3  A    between atoms: C_9  and  C_6 
REMARK    4  A    between atoms: O_16  and  C_8 
ROOT
ATOM      1  C   UNL d   1      32.655  17.249 -23.690  0.00  0.00     0.110 A 
ATOM      2  C   UNL d   1      32.104  17.493 -24.266  0.00  0.00     0.096 A 
ATOM      3  S   UNL d   1      33.129  17.863 -23.559  0.00  0.00    -0.080 SA
ATOM      4  C   UNL d   1      32.255  18.244 -24.470  0.00  0.00     0.024 A 
ATOM      5  C   UNL d   1      32.906  18.505 -24.032  0.00  0.00     0.031 A 
ATOM      6  C   UNL d   1      31.894  18.767 -25.007  0.00  0.00     0.002 A 
ATOM      7  C   UNL d   1      33.195  19.258 -24.118  0.00  0.00     0.006 A 
ATOM      8  C   UNL d   1      32.179  19.516 -25.096  0.00  0.00     0.000 A 
ATOM      9  C   UNL d   1      32.838  19.763 -24.645  0.00  0.00     0.001 A 
ENDROOT
BRANCH   2  10
ATOM     10  N   UNL d   1      31.493  17.024 -24.577  0.00  0.00    -0.207 NA
ATOM     11  C   UNL d   1      30.726  17.088 -24.255  0.00  0.00     0.285 C 
ATOM     12  O   UNL d   1      30.605  17.616 -23.637  0.00  0.00    -0.265 OA
BRANCH  11  13
ATOM     13  C   UNL d   1      30.110  16.641 -24.541  0.00  0.00     0.087 A 
ATOM     14  S   UNL d   1      29.317  16.864 -24.505  0.00  0.00    -0.082 SA
ATOM     15  C   UNL d   1      28.869  16.276 -24.845  0.00  0.00     0.036 A 
ATOM     16  C   UNL d   1      29.399  15.676 -25.097  0.00  0.00     0.008 A 
ATOM     17  C   UNL d   1      30.152  15.903 -24.909  0.00  0.00     0.012 A 
ENDBRANCH  11  13
ENDBRANCH   2  10
BRANCH   1  18
ATOM     18  C   UNL d   1      32.730  16.503 -23.297  0.00  0.00     0.303 C 
ATOM     19  O   UNL d   1      32.804  15.832 -23.765  0.00  0.00    -0.259 OA
BRANCH  18  20
ATOM     20  O   UNL d   1      32.727  16.454 -22.482  0.00  0.00    -0.295 OA
ATOM     21  C   UNL d   1      32.867  15.745 -22.106  0.00  0.00     0.185 C 
ENDBRANCH  18  20
ENDBRANCH   1  18
TORSDOF 4
ENDMDL
MODEL 3
REMARK VINA RESULT:      -0.7      0.891      1.204
REMARK  4 active torsions:
REMARK  status: ('A' for Active; 'I' for Inactive)
REMARK    1  A    between atoms: C_8  and  C_1 
REMARK    2  A    between atoms: N_4  and  C_2 
REMARK       I    between atoms: C_6  and  N_4 
REMARK    3  A    between atoms: C_9  and  C_6 
REMARK    4  A    between atoms: O_16  and  C_8 
ROOT
ATOM      1  C   UNL d   1      32.817  22.703 -22.531  0.00  0.00     0.110 A 
ATOM      2  C   UNL d   1      33.032  22.087 -22.012  0.00  0.00     0.096 A 
ATOM      3  S   UNL d   1      32.705  23.342 -22.085  0.00  0.00    -0.080 SA
ATOM      4  C   UNL d   1      33.046  22.364 -21.269  0.00  0.00     0.024 A 
ATOM      5  C   UNL d   1      32.841  23.165 -21.287  0.00  0.00     0.031 A 
ATOM      6  C   UNL d   1      33.219  22.008 -20.537  0.00  0.00     0.002 A 
ATOM      7  C   UNL d   1      32.807  23.604 -20.608  0.00  0.00     0.006 A 
ATOM      8  C   UNL d   1      33.186  22.443 -19.858  0.00  0.00     0.000 A 
ATOM      9  C   UNL d   1      32.977  23.252 -19.896  0.00  0.00     0.001 A 
ENDROOT
BRANCH   2  10
ATOM     10  N   UNL d   1      33.204  21.306 -22.236  0.00  0.00    -0.207 NA
ATOM     11  C   UNL d   1      32.672  20.696 -22.031  0.00  0.00     0.285 C 
ATOM     12  O   UNL d   1      31.994  20.895 -21.611  0.00  0.00    -0.265 OA
BRANCH  11  13
ATOM     13  C   UNL d   1      32.816  19.923 -22.238  0.00  0.00     0.087 A 
ATOM     14  S   UNL d   1      32.722  19.618 -22.997  0.00  0.00    -0.082 SA
ATOM     15  C   UNL d   1      32.918  18.829 -22.984  0.00  0.00     0.036 A 
ATOM     16  C   UNL d   1      33.137  18.643 -22.197  0.00  0.00     0.008 A 
ATOM     17  C   UNL d   1      33.074  19.311 -21.746  0.00  0.00     0.012 A 
ENDBRANCH  11  13
ENDBRANCH   2  10
BRANCH   1  18
ATOM     18  C   UNL d   1      32.724  22.692 -23.371  0.00  0.00     0.303 C 
ATOM     19  O   UNL d   1      33.237  22.219 -23.805  0.00  0.00    -0.259 OA
BRANCH  18  20
ATOM     20  O   UNL d   1      32.144  23.136 -23.738  0.00  0.00    -0.295 OA
ATOM     21  C   UNL d   1      32.122  23.206 -24.549  0.00  0.00     0.185 C 
ENDBRANCH  18  20
ENDBRANCH   1  18
TORSDOF 4
ENDMDL
MODEL 4
REMARK VINA RESULT:      -0.3      4.181      6.064
REMARK  4 active torsions:
REMARK  status: ('A' for Active; 'I' for Inactive)
REMARK    1  A    between atoms: C_8  and  C_1 
REMARK    2  A    between atoms: N_4  and  C_2 
REMARK       I    between atoms: C_6  and  N_4 
REMARK    3  A    between atoms: C_9  and  C_6 
REMARK    4  A    between atoms: O_16  and  C_8 
ROOT
ATOM      1  C   UNL d   1      31.076  17.004 -24.116  0.00  0.00     0.110 A 
ATOM      2  C   UNL d   1      31.877  17.221 -24.035  0.00  0.00     0.096 A 
ATOM      3  S   UNL d   1      30.977  16.348 -23.693  0.00  0.00    -0.080 SA
ATOM      4  C   UNL d   1      32.244  16.695 -23.568  0.00  0.00     0.024 A 
ATOM      5  C   UNL d   1      31.691  16.126 -23.335  0.00  0.00     0.031 A 
ATOM      6  C   UNL d   1      33.028  16.630 -23.298  0.00  0.00     0.002 A 
ATOM      7  C   UNL d   1      31.901  15.511 -22.851  0.00  0.00     0.006 A 
ATOM      8  C   UNL d   1      33.240  16.019 -22.816  0.00  0.00     0.000 A 
ATOM      9  C   UNL d   1      32.668  15.453 -22.591  0.00  0.00     0.001 A 
ENDROOT
BRANCH   2  10
ATOM     10  N   UNL d   1      32.235  17.882 -24.387  0.00  0.00    -0.207 NA
ATOM     11  C   UNL d   1      32.348  18.574 -23.934  0.00  0.00     0.285 C 
ATOM     12  O   UNL d   1      32.097  18.573 -23.151  0.00  0.00    -0.265 OA
BRANCH  11  13
ATOM     13  C   UNL d   1      32.696  19.236 -24.253  0.00  0.00     0.087 A 
ATOM     14  S   UNL d   1      32.912  19.903 -23.821  0.00  0.00    -0.082 SA
ATOM     15  C   UNL d   1      33.241  20.445 -24.331  0.00  0.00     0.036 A 
ATOM     16  C   UNL d   1      33.227  20.102 -25.096  0.00  0.00     0.008 A 
ATOM     17  C   UNL d   1      32.895  19.367 -25.044  0.00  0.00     0.012 A 
ENDBRANCH  11  13
ENDBRANCH   2  10
BRANCH   1  18
ATOM     18  C   UNL d   1      30.458  17.381 -24.553  0.00  0.00     0.303 C 
ATOM     19  O   UNL d   1      30.672  17.962 -25.093  0.00  0.00    -0.259 OA
BRANCH  18  20
ATOM     20  O   UNL d   1      29.675  17.174 -24.441  0.00  0.00    -0.295 OA
ATOM     21  C   UNL d   1      29.116  17.330 -25.013  0.00  0.00     0.185 C 
ENDBRANCH  18  20
ENDBRANCH   1  18
TORSDOF 4
ENDMDL
