MODEL 1
REMARK VINA RESULT:      -3.0      0.000      0.000
REMARK  4 active torsions:
REMARK  status: ('A' for Active; 'I' for Inactive)
REMARK       I    between atoms: C_2  and  N_1 
REMARK    1  A    between atoms: C_3  and  N_1 
REMARK       I    between atoms: N_6  and  C_2 
REMARK    2  A    between atoms: C_9  and  N_6 
REMARK    3  A    between atoms: C_10  and  C_9 
REMARK    4  A    between atoms: C_11  and  C_10 
ROOT
ATOM      1  N   UNL d   1      32.119  21.314 -20.996  0.00  0.00    -0.172 NA
ATOM      2  C   UNL d   1      32.610  20.968 -21.562  0.00  0.00     0.370 C 
ATOM      3  O   UNL d   1      33.194  21.412 -21.929  0.00  0.00    -0.242 OA
ATOM      4  N   UNL d   1      32.510  20.169 -21.760  0.00  0.00    -0.189 NA
ENDROOT
BRANCH   1   5
ATOM      5  C   UNL d   1      32.219  22.112 -20.799  0.00  0.00     0.167 A 
ATOM      6  N   UNL d   1      31.780  22.689 -21.185  0.00  0.00    -0.225 NA
ATOM      7  C   UNL d   1      31.881  23.481 -20.987  0.00  0.00     0.101 A 
ATOM      8  C   UNL d   1      32.422  23.701 -20.402  0.00  0.00     0.021 A 
ATOM      9  C   UNL d   1      32.859  23.114 -20.019  0.00  0.00     0.005 A 
ATOM     10  C   UNL d   1      32.761  22.325 -20.214  0.00  0.00     0.039 A 
ENDBRANCH   1   5
BRANCH   4  11
ATOM     11  C   UNL d   1      33.000  19.823 -22.326  0.00  0.00     0.104 C 
BRANCH  11  12
ATOM     12  C   UNL d   1      32.948  19.015 -22.466  0.00  0.00     0.021 C 
BRANCH  12  13
ATOM     13  C   UNL d   1      33.241  18.703 -23.176  0.00  0.00     0.002 C 
ATOM     14  C   UNL d   1      33.116  17.913 -23.356  0.00  0.00     0.000 C 
ENDBRANCH  12  13
ENDBRANCH  11  12
ENDBRANCH   4  11
TORSDOF 4
ENDMDL
MODEL 2
REMARK VINA RESULT:      -2.3      1.960      5.137
REMARK  4 active torsions:
REMARK  status: ('A' for Active; 'I' for Inactive)
REMARK       I    between atoms: C_2  and  N_1 
REMARK    1  A    between atoms: C_3  and  N_1 
REMARK       I    between atoms: N_6  and  C_2 
REMARK    2  A    between atoms: C_9  and  N_6 
REMARK    3  A    between atoms: C_10  and  C_9 
REMARK    4  A    between atoms: C_11  and  C_10 
ROOT
ATOM      1  N   UNL d   1      33.091  17.768 -22.853  0.00  0.00    -0.172 NA
ATOM      2  C   UNL d   1      32.910  18.570 -22.786  0.00  0.00     0.370 C 
ATOM      3  O   UNL d   1      32.460  18.941 -23.364  0.00  0.00    -0.242 OA
ATOM      4  N   UNL d   1      33.184  19.001 -22.133  0.00  0.00    -0.189 NA
ENDROOT
BRANCH   1   5
ATOM      5  C   UNL d   1      32.817  17.338 -23.506  0.00  0.00     0.167 A 
ATOM      6  N   UNL d   1      33.241  17.342 -24.209  0.00  0.00    -0.225 NA
ATOM      7  C   UNL d   1      32.967  16.914 -24.856  0.00  0.00     0.101 A 
ATOM      8  C   UNL d   1      32.266  16.479 -24.803  0.00  0.00     0.021 A 
ATOM      9  C   UNL d   1      31.845  16.481 -24.092  0.00  0.00     0.005 A 
ATOM     10  C   UNL d   1      32.116  16.906 -23.447  0.00  0.00     0.039 A 
ENDBRANCH   1   5
BRANCH   4  11
ATOM     11  C   UNL d   1      33.003  19.803 -22.066  0.00  0.00     0.104 C 
BRANCH  11  12
ATOM     12  C   UNL d   1      33.231  20.214 -21.392  0.00  0.00     0.021 C 
BRANCH  12  13
ATOM     13  C   UNL d   1      32.819  20.898 -21.171  0.00  0.00     0.002 C 
ATOM     14  C   UNL d   1      33.159  21.427 -20.645  0.00  0.00     0.000 C 
ENDBRANCH  12  13
ENDBRANCH  11  12
ENDBRANCH   4  11
TORSDOF 4
ENDMDL
MODEL 3
REMARK VINA RESULT:      -2.3      1.068      1.694
REMARK  4 active torsions:
REMARK  status: ('A' for Active; 'I' for Inactive)
REMARK       I    between atoms: C_2  and  N_1 
REMARK    1  A    between atoms: C_3  and  N_1 
REMARK       I    between atoms: N_6  and  C_2 
REMARK    2  A    between atoms: C_9  and  N_6 
REMARK    3  A    between atoms: C_10  and  C_9 
REMARK    4  A    between atoms: C_11  and  C_10 
ROOT
ATOM      1  N   UNL d   1      33.183  20.062 -21.497  0.00  0.00    -0.172 NA
ATOM      2  C   UNL d   1      32.960  19.610 -22.150  0.00  0.00     0.370 C 
ATOM      3  O   UNL d   1      32.474  19.932 -22.728  0.00  0.00    -0.242 OA
ATOM      4  N   UNL d   1      33.229  18.829 -22.222  0.00  0.00    -0.189 NA
ENDROOT
BRANCH   1   5
ATOM      5  C   UNL d   1      32.913  20.842 -21.425  0.00  0.00     0.167 A 
ATOM      6  N   UNL d   1      32.342  21.031 -20.866  0.00  0.00    -0.225 NA
ATOM      7  C   UNL d   1      32.077  21.806 -20.797  0.00  0.00     0.101 A 
ATOM      8  C   UNL d   1      32.381  22.398 -21.288  0.00  0.00     0.021 A 
ATOM      9  C   UNL d   1      32.955  22.199 -21.848  0.00  0.00     0.005 A 
ATOM     10  C   UNL d   1      33.221  21.428 -21.918  0.00  0.00     0.039 A 
ENDBRANCH   1   5
BRANCH   4  11
ATOM     11  C   UNL d   1      33.007  18.378 -22.876  0.00  0.00     0.104 C 
BRANCH  11  12
ATOM     12  C   UNL d   1      33.239  17.591 -22.921  0.00  0.00     0.021 C 
BRANCH  12  13
ATOM     13  C   UNL d   1      33.001  17.131 -23.568  0.00  0.00     0.002 C 
ATOM     14  C   UNL d   1      33.241  16.349 -23.622  0.00  0.00     0.000 C 
ENDBRANCH  12  13
ENDBRANCH  11  12
ENDBRANCH   4  11
TORSDOF 4
ENDMDL
MODEL 4
REMARK VINA RESULT:      -2.1      4.220      5.472
REMARK  4 active torsions:
REMARK  status: ('A' for Active; 'I' for Inactive)
REMARK       I    between atoms: C_2  and  N_1 
REMARK    1  A    between atoms: C_3  and  N_1 
REMARK       I    between atoms: N_6  and  C_2 
REMARK    2  A    between atoms: C_9  and  N_6 
REMARK    3  A    between atoms: C_10  and  C_9 
REMARK    4  A    between atoms: C_11  and  C_10 
ROOT
ATOM      1  N   UNL d   1      31.910  16.937 -23.787  0.00  0.00    -0.172 NA
ATOM      2  C   UNL d   1      31.100  16.934 -23.942  0.00  0.00     0.370 C 
ATOM      3  O   UNL d   1      30.733  17.606 -24.238  0.00  0.00    -0.242 OA
ATOM      4  N   UNL d   1      30.656  16.248 -23.799  0.00  0.00    -0.189 NA
ENDROOT
BRANCH   1   5
ATOM      5  C   UNL d   1      32.353  17.623 -23.931  0.00  0.00     0.167 A 
ATOM      6  N   UNL d   1      32.646  17.773 -24.683  0.00  0.00    -0.225 NA
ATOM      7  C   UNL d   1      33.085  18.454 -24.823  0.00  0.00     0.101 A 
ATOM      8  C   UNL d   1      33.234  18.989 -24.211  0.00  0.00     0.021 A 
ATOM      9  C   UNL d   1      32.935  18.830 -23.457  0.00  0.00     0.005 A 
ATOM     10  C   UNL d   1      32.497  18.153 -23.315  0.00  0.00     0.039 A 
ENDBRANCH   1   5
BRANCH   4  11
ATOM     11  C   UNL d   1      29.846  16.244 -23.954  0.00  0.00     0.104 C 
BRANCH  11  12
ATOM     12  C   UNL d   1      29.382  15.630 -23.667  0.00  0.00     0.021 C 
BRANCH  12  13
ATOM     13  C   UNL d   1      28.661  15.455 -24.035  0.00  0.00     0.002 C 
ATOM     14  C   UNL d   1      27.969  15.453 -23.597  0.00  0.00     0.000 C 
ENDBRANCH  12  13
ENDBRANCH  11  12
ENDBRANCH   4  11
TORSDOF 4
ENDMDL
MODEL 5
REMARK VINA RESULT:      -1.8      1.143      1.363
REMARK  4 active torsions:
REMARK  status: ('A' for Active; 'I' for Inactive)
REMARK       I    between atoms: C_2  and  N_1 
REMARK    1  A    between atoms: C_3  and  N_1 
REMARK       I    between atoms: N_6  and  C_2 
REMARK    2  A    between atoms: C_9  and  N_6 
REMARK    3  A    between atoms: C_10  and  C_9 
REMARK    4  A    between atoms: C_11  and  C_10 
ROOT
ATOM      1  N   UNL d   1      33.240  22.203 -20.353  0.00  0.00    -0.172 NA
ATOM      2  C   UNL d   1      32.822  21.560 -20.657  0.00  0.00     0.370 C 
ATOM      3  O   UNL d   1      32.051  21.417 -20.416  0.00  0.00    -0.242 OA
ATOM      4  N   UNL d   1      33.185  21.057 -21.208  0.00  0.00    -0.189 NA
ENDROOT
BRANCH   1   5
ATOM      5  C   UNL d   1      32.878  22.705 -19.802  0.00  0.00     0.167 A 
ATOM      6  N   UNL d   1      32.253  23.186 -20.032  0.00  0.00    -0.225 NA
ATOM      7  C   UNL d   1      31.895  23.683 -19.484  0.00  0.00     0.101 A 
ATOM      8  C   UNL d   1      32.160  23.702 -18.701  0.00  0.00     0.021 A 
ATOM      9  C   UNL d   1      32.789  23.215 -18.478  0.00  0.00     0.005 A 
ATOM     10  C   UNL d   1      33.147  22.719 -19.022  0.00  0.00     0.039 A 
ENDBRANCH   1   5
BRANCH   4  11
ATOM     11  C   UNL d   1      32.767  20.414 -21.512  0.00  0.00     0.104 C 
BRANCH  11  12
ATOM     12  C   UNL d   1      33.179  19.764 -21.800  0.00  0.00     0.021 C 
BRANCH  12  13
ATOM     13  C   UNL d   1      33.020  19.483 -22.563  0.00  0.00     0.002 C 
ATOM     14  C   UNL d   1      32.899  18.682 -22.685  0.00  0.00     0.000 C 
ENDBRANCH  12  13
ENDBRANCH  11  12
ENDBRANCH   4  11
TORSDOF 4
ENDMDL
MODEL 6
REMARK VINA RESULT:      -0.0      3.081      4.132
REMARK  4 active torsions:
REMARK  status: ('A' for Active; 'I' for Inactive)
REMARK       I    between atoms: C_2  and  N_1 
REMARK    1  A    between atoms: C_3  and  N_1 
REMARK       I    between atoms: N_6  and  C_2 
REMARK    2  A    between atoms: C_9  and  N_6 
REMARK    3  A    between atoms: C_10  and  C_9 
REMARK    4  A    between atoms: C_11  and  C_10 
ROOT
ATOM      1  N   UNL d   1      32.813  23.689 -18.302  0.00  0.00    -0.172 NA
ATOM      2  C   UNL d   1      32.875  23.228 -18.983  0.00  0.00     0.370 C 
ATOM      3  O   UNL d   1      32.967  22.414 -18.924  0.00  0.00    -0.242 OA
ATOM      4  N   UNL d   1      32.844  23.589 -19.729  0.00  0.00    -0.189 NA
ENDROOT
BRANCH   1   5
ATOM      5  C   UNL d   1      32.844  23.328 -17.557  0.00  0.00     0.167 A 
ATOM      6  N   UNL d   1      32.512  23.700 -16.905  0.00  0.00    -0.225 NA
ATOM      7  C   UNL d   1      32.544  23.340 -16.166  0.00  0.00     0.101 A 
ATOM      8  C   UNL d   1      32.909  22.604 -16.076  0.00  0.00     0.021 A 
ATOM      9  C   UNL d   1      33.241  22.236 -16.737  0.00  0.00     0.005 A 
ATOM     10  C   UNL d   1      33.210  22.593 -17.473  0.00  0.00     0.039 A 
ENDBRANCH   1   5
BRANCH   4  11
ATOM     11  C   UNL d   1      32.906  23.127 -20.410  0.00  0.00     0.104 C 
BRANCH  11  12
ATOM     12  C   UNL d   1      32.420  23.289 -21.053  0.00  0.00     0.021 C 
BRANCH  12  13
ATOM     13  C   UNL d   1      32.746  23.317 -21.814  0.00  0.00     0.002 C 
ATOM     14  C   UNL d   1      32.292  23.584 -22.442  0.00  0.00     0.000 C 
ENDBRANCH  12  13
ENDBRANCH  11  12
ENDBRANCH   4  11
TORSDOF 4
ENDMDL
