MODEL 1
REMARK VINA RESULT:       7.1      0.000      0.000
REMARK  6 active torsions:
REMARK  status: ('A' for Active; 'I' for Inactive)
REMARK       I    between atoms: C_8  and  N_1 
REMARK    1  A    between atoms: C_10  and  C_3 
REMARK    2  A    between atoms: C_4  and  S_14 
REMARK    3  A    between atoms: C_15  and  C_6 
REMARK    4  A    between atoms: C_16  and  C_8 
REMARK    5  A    between atoms: S_14  and  C_16 
REMARK    6  A    between atoms: O_26  and  C_23 
ROOT
ATOM      1  N   UNL d   1     -41.425-122.026 -51.614  0.00  0.00    -0.195 N 
ATOM      2  N   UNL d   1     -41.257-121.344 -52.008  0.00  0.00    -0.162 NA
ATOM      3  C   UNL d   1     -41.409-120.704 -51.499  0.00  0.00     0.109 A 
ATOM      4  C   UNL d   1     -41.685-121.826 -50.850  0.00  0.00     0.088 A 
ATOM      5  C   UNL d   1     -41.667-121.017 -50.803  0.00  0.00     0.041 A 
ATOM      6  C   UNL d   1     -41.386-122.807 -51.821  0.00  0.00     0.275 C 
ATOM      7  O   UNL d   1     -41.600-123.407 -51.283  0.00  0.00    -0.266 OA
ENDROOT
BRANCH   4   8
ATOM      8  C   UNL d   1     -41.918-122.316 -50.246  0.00  0.00     0.018 A 
ATOM      9  C   UNL d   1     -41.395-122.873 -49.941  0.00  0.00     0.004 A 
ATOM     10  C   UNL d   1     -41.641-123.373 -49.321  0.00  0.00     0.024 A 
ATOM     11  C   UNL d   1     -42.400-123.311 -49.016  0.00  0.00     0.094 A 
ATOM     12  C   UNL d   1     -42.921-122.752 -49.323  0.00  0.00     0.024 A 
ATOM     13  C   UNL d   1     -42.685-122.249 -49.942  0.00  0.00     0.004 A 
BRANCH  11  14
ATOM     14  O   UNL d   1     -42.661-123.802 -48.397  0.00  0.00    -0.328 OA
ATOM     15  C   UNL d   1     -42.714-123.518 -47.624  0.00  0.00     0.181 C 
ENDBRANCH  11  14
ENDBRANCH   4   8
BRANCH   6  16
ATOM     16  C   UNL d   1     -41.126-123.024 -52.586  0.00  0.00     0.128 C 
BRANCH  16  17
ATOM     17  S   UNL d   1     -41.640-123.416 -53.107  0.00  0.00    -0.069 SA
BRANCH  17  18
ATOM     18  C   UNL d   1     -41.792-123.104 -53.864  0.00  0.00     0.140 A 
ATOM     19  N   UNL d   1     -42.541-122.982 -54.176  0.00  0.00    -0.232 NA
ATOM     20  C   UNL d   1     -42.447-122.668 -54.932  0.00  0.00     0.088 A 
ATOM     21  C   UNL d   1     -43.002-122.436 -55.504  0.00  0.00     0.020 A 
ATOM     22  C   UNL d   1     -41.647-122.596 -55.086  0.00  0.00     0.049 A 
ATOM     23  C   UNL d   1     -42.748-122.133 -56.229  0.00  0.00     0.002 A 
ATOM     24  C   UNL d   1     -41.929-122.064 -56.377  0.00  0.00     0.001 A 
ATOM     25  C   UNL d   1     -41.388-122.297 -55.803  0.00  0.00     0.008 A 
ATOM     26  S   UNL d   1     -41.231-122.868 -54.421  0.00  0.00    -0.060 SA
ENDBRANCH  17  18
ENDBRANCH  16  17
ENDBRANCH   6  16
BRANCH   3  27
ATOM     27  C   UNL d   1     -41.304-119.910 -51.701  0.00  0.00     0.049 A 
ATOM     28  S   UNL d   1     -41.260-119.488 -52.395  0.00  0.00    -0.085 SA
ATOM     29  C   UNL d   1     -41.148-118.696 -52.198  0.00  0.00     0.035 A 
ATOM     30  C   UNL d   1     -41.123-118.625 -51.392  0.00  0.00     0.007 A 
ATOM     31  C   UNL d   1     -41.220-119.383 -51.067  0.00  0.00     0.009 A 
ENDBRANCH   3  27
TORSDOF 6
ENDMDL
MODEL 2
REMARK VINA RESULT:       7.9      1.498      4.890
REMARK  6 active torsions:
REMARK  status: ('A' for Active; 'I' for Inactive)
REMARK       I    between atoms: C_8  and  N_1 
REMARK    1  A    between atoms: C_10  and  C_3 
REMARK    2  A    between atoms: C_4  and  S_14 
REMARK    3  A    between atoms: C_15  and  C_6 
REMARK    4  A    between atoms: C_16  and  C_8 
REMARK    5  A    between atoms: S_14  and  C_16 
REMARK    6  A    between atoms: O_26  and  C_23 
ROOT
ATOM      1  N   UNL d   1     -41.449-121.858 -51.857  0.00  0.00    -0.195 N 
ATOM      2  N   UNL d   1     -41.337-121.194 -51.416  0.00  0.00    -0.162 NA
ATOM      3  C   UNL d   1     -41.375-120.535 -51.921  0.00  0.00     0.109 A 
ATOM      4  C   UNL d   1     -41.561-121.627 -52.648  0.00  0.00     0.088 A 
ATOM      5  C   UNL d   1     -41.511-120.819 -52.663  0.00  0.00     0.041 A 
ATOM      6  C   UNL d   1     -41.471-122.646 -51.674  0.00  0.00     0.275 C 
ATOM      7  O   UNL d   1     -41.602-123.222 -52.262  0.00  0.00    -0.266 OA
ENDROOT
BRANCH   4   8
ATOM      8  C   UNL d   1     -41.694-122.091 -53.301  0.00  0.00     0.018 A 
ATOM      9  C   UNL d   1     -42.386-122.001 -53.736  0.00  0.00     0.004 A 
ATOM     10  C   UNL d   1     -42.518-122.481 -54.406  0.00  0.00     0.024 A 
ATOM     11  C   UNL d   1     -41.961-123.039 -54.630  0.00  0.00     0.094 A 
ATOM     12  C   UNL d   1     -41.269-123.127 -54.191  0.00  0.00     0.024 A 
ATOM     13  C   UNL d   1     -41.129-122.653 -53.522  0.00  0.00     0.004 A 
BRANCH  11  14
ATOM     14  O   UNL d   1     -42.076-123.526 -55.295  0.00  0.00    -0.328 OA
ATOM     15  C   UNL d   1     -42.637-123.334 -55.868  0.00  0.00     0.181 C 
ENDBRANCH  11  14
ENDBRANCH   4   8
BRANCH   6  16
ATOM     16  C   UNL d   1     -41.361-122.894 -50.882  0.00  0.00     0.128 C 
BRANCH  16  17
ATOM     17  S   UNL d   1     -41.916-123.392 -50.518  0.00  0.00    -0.069 SA
BRANCH  17  18
ATOM     18  C   UNL d   1     -41.976-123.423 -49.688  0.00  0.00     0.140 A 
ATOM     19  N   UNL d   1     -41.360-123.620 -49.183  0.00  0.00    -0.232 NA
ATOM     20  C   UNL d   1     -41.649-123.584 -48.413  0.00  0.00     0.088 A 
ATOM     21  C   UNL d   1     -41.284-123.726 -47.681  0.00  0.00     0.020 A 
ATOM     22  C   UNL d   1     -42.437-123.367 -48.441  0.00  0.00     0.049 A 
ATOM     23  C   UNL d   1     -41.715-123.648 -46.981  0.00  0.00     0.002 A 
ATOM     24  C   UNL d   1     -42.519-123.426 -47.020  0.00  0.00     0.001 A 
ATOM     25  C   UNL d   1     -42.871-123.288 -47.751  0.00  0.00     0.008 A 
ATOM     26  S   UNL d   1     -42.649-123.265 -49.237  0.00  0.00    -0.060 SA
ENDBRANCH  17  18
ENDBRANCH  16  17
ENDBRANCH   6  16
BRANCH   3  27
ATOM     27  C   UNL d   1     -41.285-119.751 -51.677  0.00  0.00     0.049 A 
ATOM     28  S   UNL d   1     -41.156-119.376 -50.966  0.00  0.00    -0.085 SA
ATOM     29  C   UNL d   1     -41.123-118.566 -51.116  0.00  0.00     0.035 A 
ATOM     30  C   UNL d   1     -41.229-118.438 -51.908  0.00  0.00     0.007 A 
ATOM     31  C   UNL d   1     -41.333-119.177 -52.273  0.00  0.00     0.009 A 
ENDBRANCH   3  27
TORSDOF 6
ENDMDL
