MODEL 1
REMARK VINA RESULT:       2.9      0.000      0.000
REMARK  1 active torsions:
REMARK  status: ('A' for Active; 'I' for Inactive)
REMARK    1  A    between atoms: C_9  and  C_3 
REMARK       I    between atoms: C_10  and  N_4 
ROOT
ATOM      1  N   UNL d   1     -41.926-122.782 -52.029  0.00  0.00    -0.047 N 
ATOM      2  N   UNL d   1     -41.976-122.548 -51.246  0.00  0.00    -0.188 N 
ATOM      3  C   UNL d   1     -42.273-123.157 -50.775  0.00  0.00     0.194 A 
ATOM      4  N   UNL d   1     -41.651-122.217 -52.465  0.00  0.00    -0.172 N 
ATOM      5  N   UNL d   1     -42.422-123.817 -51.271  0.00  0.00    -0.083 NA
ATOM      6  C   UNL d   1     -41.713-121.795 -51.224  0.00  0.00     0.104 A 
ATOM      7  O   UNL d   1     -42.203-123.578 -52.059  0.00  0.00    -0.089 OA
ATOM      8  C   UNL d   1     -41.505-121.580 -51.993  0.00  0.00     0.106 A 
ATOM      9  C   UNL d   1     -41.528-122.273 -53.303  0.00  0.00     0.282 C 
ATOM     10  O   UNL d   1     -41.705-122.963 -53.699  0.00  0.00    -0.265 OA
ATOM     11  C   UNL d   1     -41.627-121.252 -50.597  0.00  0.00     0.021 A 
ATOM     12  C   UNL d   1     -41.215-120.828 -52.131  0.00  0.00     0.021 A 
ATOM     13  C   UNL d   1     -41.225-121.624 -53.728  0.00  0.00     0.068 C 
ATOM     14  C   UNL d   1     -41.123-120.285 -51.544  0.00  0.00     0.002 A 
ATOM     15  C   UNL d   1     -41.330-120.489 -50.750  0.00  0.00     0.002 A 
ENDROOT
BRANCH   3  16
ATOM     16  C   UNL d   1     -42.374-123.056 -49.973  0.00  0.00     0.038 A 
ATOM     17  C   UNL d   1     -43.020-122.688 -49.684  0.00  0.00     0.003 A 
ATOM     18  C   UNL d   1     -43.103-122.594 -48.848  0.00  0.00     0.000 A 
ATOM     19  C   UNL d   1     -43.615-122.394 -50.176  0.00  0.00     0.000 C 
ATOM     20  C   UNL d   1     -43.761-122.219 -48.519  0.00  0.00     0.000 C 
ATOM     21  C   UNL d   1     -42.539-122.873 -48.372  0.00  0.00     0.000 A 
ATOM     22  C   UNL d   1     -41.893-123.240 -48.661  0.00  0.00     0.000 A 
ATOM     23  C   UNL d   1     -41.792-123.342 -49.463  0.00  0.00     0.003 A 
ATOM     24  C   UNL d   1     -41.279-123.542 -48.135  0.00  0.00     0.000 C 
ATOM     25  C   UNL d   1     -41.123-123.722 -49.762  0.00  0.00     0.000 C 
ENDBRANCH   3  16
TORSDOF 1
ENDMDL
