MODEL 1
REMARK VINA RESULT:      79.0      0.000      0.000
REMARK  5 active torsions:
REMARK  status: ('A' for Active; 'I' for Inactive)
REMARK    1  A    between atoms: C_23  and  N_10 
REMARK    2  A    between atoms: C_14  and  N_13 
REMARK    3  A    between atoms: N_15  and  C_28 
REMARK    4  A    between atoms: C_27  and  C_23 
REMARK    5  A    between atoms: C_28  and  C_27 
ROOT
ATOM      1  C   UNL d   1      14.619  14.577  -1.735  0.00  0.00     0.173 A 
ATOM      2  C   UNL d   1      14.517  15.202  -2.233  0.00  0.00     0.191 A 
ATOM      3  C   UNL d   1      13.900  14.355  -3.202  0.00  0.00     0.722 A 
ATOM      4  N   UNL d   1      14.001  13.705  -2.697  0.00  0.00    -0.131 N 
ATOM      5  N   UNL d   1      14.158  15.103  -2.970  0.00  0.00    -0.042 NA
ATOM      6  N   UNL d   1      14.769  15.953  -2.015  0.00  0.00    -0.240 N 
ATOM      7  N   UNL d   1      15.231  15.375  -0.754  0.00  0.00    -0.223 N 
ATOM      8  C   UNL d   1      15.128  16.043  -1.273  0.00  0.00     0.343 A 
ATOM      9  C   UNL d   1      14.972  14.636  -0.992  0.00  0.00     0.288 A 
ATOM     10  N   UNL d   1      13.542  14.255  -3.938  0.00  0.00    -0.139 N 
ATOM     11  C   UNL d   1      13.379  12.850  -3.673  0.00  0.00     0.116 A 
ATOM     12  C   UNL d   1      13.279  13.500  -4.178  0.00  0.00     0.100 A 
ATOM     13  O   UNL d   1      15.385  16.834  -1.061  0.00  0.00    -0.245 OA
ATOM     14  O   UNL d   1      15.072  13.987  -0.488  0.00  0.00    -0.265 OA
ATOM     15  C   UNL d   1      14.668  16.602  -2.520  0.00  0.00     0.105 C 
ATOM     16  C   UNL d   1      15.590  15.475  -0.017  0.00  0.00     0.107 C 
ATOM     17  C   UNL d   1      12.923  13.426  -4.921  0.00  0.00     0.021 C 
ENDROOT
BRANCH  10  18
ATOM     18  C   UNL d   1      13.439  14.900  -4.447  0.00  0.00     0.100 C 
BRANCH  18  19
ATOM     19  C   UNL d   1      13.928  14.999  -5.111  0.00  0.00     0.039 C 
BRANCH  19  20
ATOM     20  C   UNL d   1      13.630  15.330  -5.796  0.00  0.00     0.082 C 
BRANCH  20  21
ATOM     21  N   UNL d   1      13.613  16.150  -5.887  0.00  0.00    -0.300 N 
ATOM     22  C   UNL d   1      14.252  16.603  -5.624  0.00  0.00     0.100 A 
ATOM     23  C   UNL d   1      14.229  17.426  -5.719  0.00  0.00     0.100 A 
ATOM     24  N   UNL d   1      13.582  17.790  -6.069  0.00  0.00    -0.301 N 
ATOM     25  C   UNL d   1      12.946  17.332  -6.331  0.00  0.00     0.100 A 
ATOM     26  C   UNL d   1      12.961  16.517  -6.241  0.00  0.00     0.100 A 
BRANCH  24  27
ATOM     27  C   UNL d   1      13.567  18.610  -6.160  0.00  0.00     0.065 A 
ATOM     28  C   UNL d   1      14.260  19.040  -6.115  0.00  0.00     0.029 A 
ATOM     29  C   UNL d   1      14.248  19.849  -6.204  0.00  0.00     0.059 A 
ATOM     30 CL   UNL d   1      14.955  20.290  -6.158  0.00  0.00    -0.082 Cl
ATOM     31  C   UNL d   1      13.529  20.239  -6.342  0.00  0.00     0.011 A 
ATOM     32  C   UNL d   1      12.826  19.808  -6.388  0.00  0.00     0.002 A 
ATOM     33  C   UNL d   1      12.842  18.989  -6.297  0.00  0.00     0.018 A 
ENDBRANCH  24  27
ENDBRANCH  20  21
ENDBRANCH  19  20
ENDBRANCH  18  19
ENDBRANCH  10  18
TORSDOF 5
ENDMDL
MODEL 2
REMARK VINA RESULT:      80.1      1.035      1.321
REMARK  5 active torsions:
REMARK  status: ('A' for Active; 'I' for Inactive)
REMARK    1  A    between atoms: C_23  and  N_10 
REMARK    2  A    between atoms: C_14  and  N_13 
REMARK    3  A    between atoms: N_15  and  C_28 
REMARK    4  A    between atoms: C_27  and  C_23 
REMARK    5  A    between atoms: C_28  and  C_27 
ROOT
ATOM      1  C   UNL d   1      14.398  12.992  -2.075  0.00  0.00     0.173 A 
ATOM      2  C   UNL d   1      14.155  13.713  -2.342  0.00  0.00     0.191 A 
ATOM      3  C   UNL d   1      13.657  13.121  -3.542  0.00  0.00     0.722 A 
ATOM      4  N   UNL d   1      13.904  12.376  -3.277  0.00  0.00    -0.131 N 
ATOM      5  N   UNL d   1      13.782  13.789  -3.075  0.00  0.00    -0.042 NA
ATOM      6  N   UNL d   1      14.273  14.386  -1.888  0.00  0.00    -0.240 N 
ATOM      7  N   UNL d   1      14.902  13.533  -0.880  0.00  0.00    -0.223 N 
ATOM      8  C   UNL d   1      14.648  14.299  -1.152  0.00  0.00     0.343 A 
ATOM      9  C   UNL d   1      14.773  12.875  -1.350  0.00  0.00     0.288 A 
ATOM     10  N   UNL d   1      13.285  13.198  -4.274  0.00  0.00    -0.139 N 
ATOM     11  C   UNL d   1      13.402  11.779  -4.486  0.00  0.00     0.116 A 
ATOM     12  C   UNL d   1      13.155  12.525  -4.751  0.00  0.00     0.100 A 
ATOM     13  O   UNL d   1      14.764  15.013  -0.690  0.00  0.00    -0.245 OA
ATOM     14  O   UNL d   1      15.020  12.130  -1.086  0.00  0.00    -0.265 OA
ATOM     15  C   UNL d   1      14.026  15.132  -2.153  0.00  0.00     0.105 C 
ATOM     16  C   UNL d   1      15.274  13.456  -0.147  0.00  0.00     0.107 C 
ATOM     17  C   UNL d   1      12.781  12.627  -5.481  0.00  0.00     0.021 C 
ENDROOT
BRANCH  10  18
ATOM     18  C   UNL d   1      13.036  13.940  -4.545  0.00  0.00     0.100 C 
BRANCH  18  19
ATOM     19  C   UNL d   1      13.390  14.289  -5.210  0.00  0.00     0.039 C 
BRANCH  19  20
ATOM     20  C   UNL d   1      14.065  14.743  -5.126  0.00  0.00     0.082 C 
BRANCH  20  21
ATOM     21  N   UNL d   1      14.051  15.546  -5.313  0.00  0.00    -0.300 N 
ATOM     22  C   UNL d   1      14.693  15.885  -5.705  0.00  0.00     0.100 A 
ATOM     23  C   UNL d   1      14.674  16.693  -5.891  0.00  0.00     0.100 A 
ATOM     24  N   UNL d   1      14.025  17.153  -5.688  0.00  0.00    -0.301 N 
ATOM     25  C   UNL d   1      13.384  16.809  -5.295  0.00  0.00     0.100 A 
ATOM     26  C   UNL d   1      13.396  16.010  -5.108  0.00  0.00     0.100 A 
BRANCH  24  27
ATOM     27  C   UNL d   1      14.012  17.956  -5.876  0.00  0.00     0.065 A 
ATOM     28  C   UNL d   1      14.672  18.419  -5.742  0.00  0.00     0.029 A 
ATOM     29  C   UNL d   1      14.662  19.212  -5.927  0.00  0.00     0.059 A 
ATOM     30 CL   UNL d   1      15.336  19.685  -5.791  0.00  0.00    -0.082 Cl
ATOM     31  C   UNL d   1      13.979  19.552  -6.251  0.00  0.00     0.011 A 
ATOM     32  C   UNL d   1      13.310  19.089  -6.387  0.00  0.00     0.002 A 
ATOM     33  C   UNL d   1      13.324  18.286  -6.200  0.00  0.00     0.018 A 
ENDBRANCH  24  27
ENDBRANCH  20  21
ENDBRANCH  19  20
ENDBRANCH  18  19
ENDBRANCH  10  18
TORSDOF 5
ENDMDL
