MODEL 1
REMARK VINA RESULT:      22.5      0.000      0.000
REMARK  4 active torsions:
REMARK  status: ('A' for Active; 'I' for Inactive)
REMARK    1  A    between atoms: C_2  and  S_1 
REMARK    2  A    between atoms: N_5  and  S_1 
REMARK    3  A    between atoms: C_13  and  N_5 
REMARK    4  A    between atoms: C_11  and  C_13 
ROOT
ATOM      1  C   UNL d   1      14.221  12.747  -1.784  0.00  0.00     0.105 A 
ATOM      2  C   UNL d   1      13.757  12.269  -1.310  0.00  0.00     0.012 A 
ATOM      3  C   UNL d   1      14.798  13.228  -1.439  0.00  0.00     0.012 A 
ATOM      4  C   UNL d   1      14.905  13.226  -0.619  0.00  0.00     0.001 A 
ATOM      5  C   UNL d   1      13.858  12.262  -0.493  0.00  0.00     0.001 A 
ATOM      6  C   UNL d   1      14.434  12.742  -0.144  0.00  0.00     0.000 A 
ATOM      7  C   UNL d   1      13.182  11.789  -1.654  0.00  0.00     0.001 C 
ATOM      8  C   UNL d   1      15.267  13.712  -1.918  0.00  0.00     0.001 C 
ATOM      9  C   UNL d   1      13.391  11.780  -0.014  0.00  0.00     0.000 C 
ATOM     10  C   UNL d   1      15.481  13.706  -0.274  0.00  0.00     0.000 C 
ENDROOT
BRANCH   1  11
ATOM     11  S   UNL d   1      14.111  12.746  -2.598  0.00  0.00     0.285 S 
ATOM     12  O   UNL d   1      14.213  11.921  -2.603  0.00  0.00    -0.198 OA
ATOM     13  O   UNL d   1      14.013  13.554  -2.586  0.00  0.00    -0.198 OA
BRANCH  11  14
ATOM     14  N   UNL d   1      14.003  12.732  -3.414  0.00  0.00    -0.155 NA
BRANCH  14  15
ATOM     15  C   UNL d   1      13.274  12.514  -3.731  0.00  0.00     0.137 C 
BRANCH  15  16
ATOM     16  C   UNL d   1      13.160  12.544  -4.545  0.00  0.00     0.120 A 
ATOM     17  O   UNL d   1      13.116  13.068  -5.177  0.00  0.00    -0.304 OA
ATOM     18  C   UNL d   1      12.980  12.631  -5.865  0.00  0.00     0.123 A 
ATOM     19  C   UNL d   1      12.940  11.834  -5.657  0.00  0.00     0.029 A 
ATOM     20  C   UNL d   1      13.052  11.779  -4.840  0.00  0.00     0.028 A 
ENDBRANCH  15  16
ENDBRANCH  14  15
ENDBRANCH  11  14
ENDBRANCH   1  11
TORSDOF 4
ENDMDL
