MODEL 1
REMARK VINA RESULT:      98.7      0.000      0.000
REMARK  5 active torsions:
REMARK  status: ('A' for Active; 'I' for Inactive)
REMARK    1  A    between atoms: N_6  and  S_1 
REMARK    2  A    between atoms: C_8  and  S_1 
REMARK    3  A    between atoms: C_12  and  C_3 
REMARK    4  A    between atoms: C_4  and  C_11 
REMARK    5  A    between atoms: C_15  and  N_6 
ROOT
ATOM      1  C   UNL d   1     -56.531-100.500 -44.080  0.00  0.00     0.018 A 
ATOM      2  C   UNL d   1     -55.411-101.353 -43.224  0.00  0.00     0.094 A 
ATOM      3  C   UNL d   1     -55.843-100.130 -43.807  0.00  0.00     0.003 A 
ATOM      4  C   UNL d   1     -56.654-101.301 -43.921  0.00  0.00     0.003 A 
ATOM      5  C   UNL d   1     -55.283-100.556 -43.380  0.00  0.00     0.020 A 
ATOM      6  C   UNL d   1     -56.098-101.724 -43.496  0.00  0.00     0.020 A 
ENDROOT
BRANCH   1   7
ATOM      7  C   UNL d   1     -57.090-100.074 -44.507  0.00  0.00     0.088 A 
ATOM      8  N   UNL d   1     -57.732-100.243 -45.751  0.00  0.00    -0.239 NA
ATOM      9  C   UNL d   1     -58.147 -99.547 -45.632  0.00  0.00     0.111 A 
ATOM     10  S   UNL d   1     -58.034 -99.114 -44.953  0.00  0.00    -0.066 SA
ATOM     11  C   UNL d   1     -57.501 -99.377 -44.381  0.00  0.00     0.056 A 
BRANCH   9  12
ATOM     12  C   UNL d   1     -58.678 -99.283 -46.200  0.00  0.00     0.024 A 
ATOM     13  C   UNL d   1     -58.454 -99.276 -46.992  0.00  0.00     0.002 A 
ATOM     14  C   UNL d   1     -58.991 -99.011 -47.556  0.00  0.00     0.000 A 
ATOM     15  C   UNL d   1     -59.741 -98.756 -47.339  0.00  0.00     0.000 A 
ATOM     16  C   UNL d   1     -59.959 -98.766 -46.540  0.00  0.00     0.000 A 
ATOM     17  C   UNL d   1     -59.421 -99.033 -45.966  0.00  0.00     0.002 A 
ENDBRANCH   9  12
ENDBRANCH   1   7
BRANCH   2  18
ATOM     18  N   UNL d   1     -54.851-101.788 -42.794  0.00  0.00    -0.158 NA
BRANCH  18  19
ATOM     19  S   UNL d   1     -54.972-101.938 -41.999  0.00  0.00     0.285 S 
ATOM     20  O   UNL d   1     -55.355-101.377 -41.529  0.00  0.00    -0.198 OA
ATOM     21  O   UNL d   1     -54.715-102.650 -41.663  0.00  0.00    -0.198 OA
BRANCH  19  22
ATOM     22  C   UNL d   1     -55.096-102.089 -41.197  0.00  0.00     0.105 A 
ATOM     23  C   UNL d   1     -55.585-102.713 -40.960  0.00  0.00     0.013 A 
ATOM     24  C   UNL d   1     -55.714-102.870 -40.164  0.00  0.00     0.001 A 
ATOM     25  C   UNL d   1     -55.343-102.390 -39.591  0.00  0.00     0.000 A 
ATOM     26  C   UNL d   1     -54.853-101.765 -39.820  0.00  0.00     0.001 A 
ATOM     27  C   UNL d   1     -55.467-102.540 -38.780  0.00  0.00     0.000 C 
ATOM     28  C   UNL d   1     -54.730-101.614 -40.628  0.00  0.00     0.013 A 
ENDBRANCH  19  22
ENDBRANCH  18  19
ENDBRANCH   2  18
TORSDOF 5
ENDMDL
MODEL 2
REMARK VINA RESULT:     101.5      1.628      2.592
REMARK  5 active torsions:
REMARK  status: ('A' for Active; 'I' for Inactive)
REMARK    1  A    between atoms: N_6  and  S_1 
REMARK    2  A    between atoms: C_8  and  S_1 
REMARK    3  A    between atoms: C_12  and  C_3 
REMARK    4  A    between atoms: C_4  and  C_11 
REMARK    5  A    between atoms: C_15  and  N_6 
ROOT
ATOM      1  C   UNL d   1     -55.792-101.354 -42.067  0.00  0.00     0.018 A 
ATOM      2  C   UNL d   1     -55.123-102.187 -40.814  0.00  0.00     0.094 A 
ATOM      3  C   UNL d   1     -55.495-100.950 -41.409  0.00  0.00     0.003 A 
ATOM      4  C   UNL d   1     -55.751-102.178 -42.093  0.00  0.00     0.003 A 
ATOM      5  C   UNL d   1     -55.161-101.367 -40.783  0.00  0.00     0.020 A 
ATOM      6  C   UNL d   1     -55.420-102.592 -41.471  0.00  0.00     0.020 A 
ENDROOT
BRANCH   1   7
ATOM      7  C   UNL d   1     -56.126-100.938 -42.694  0.00  0.00     0.088 A 
ATOM      8  N   UNL d   1     -57.430-100.515 -43.024  0.00  0.00    -0.239 NA
ATOM      9  C   UNL d   1     -57.145-100.174 -43.713  0.00  0.00     0.111 A 
ATOM     10  S   UNL d   1     -56.353-100.215 -43.892  0.00  0.00    -0.066 SA
ATOM     11  C   UNL d   1     -55.834-100.600 -43.380  0.00  0.00     0.056 A 
BRANCH   9  12
ATOM     12  C   UNL d   1     -57.660 -99.790 -44.225  0.00  0.00     0.024 A 
ATOM     13  C   UNL d   1     -58.335 -99.429 -43.924  0.00  0.00     0.002 A 
ATOM     14  C   UNL d   1     -58.847 -99.046 -44.441  0.00  0.00     0.000 A 
ATOM     15  C   UNL d   1     -58.692 -99.021 -45.247  0.00  0.00     0.000 A 
ATOM     16  C   UNL d   1     -58.011 -99.387 -45.542  0.00  0.00     0.000 A 
ATOM     17  C   UNL d   1     -57.490 -99.775 -45.025  0.00  0.00     0.002 A 
ENDBRANCH   9  12
ENDBRANCH   1   7
BRANCH   2  18
ATOM     18  N   UNL d   1     -54.788-102.613 -40.186  0.00  0.00    -0.158 NA
BRANCH  18  19
ATOM     19  S   UNL d   1     -54.840-102.324 -39.422  0.00  0.00     0.285 S 
ATOM     20  O   UNL d   1     -54.857-101.508 -39.293  0.00  0.00    -0.198 OA
ATOM     21  O   UNL d   1     -54.875-102.844 -38.779  0.00  0.00    -0.198 OA
BRANCH  19  22
ATOM     22  C   UNL d   1     -54.892-102.031 -38.652  0.00  0.00     0.105 A 
ATOM     23  C   UNL d   1     -54.811-101.220 -38.508  0.00  0.00     0.013 A 
ATOM     24  C   UNL d   1     -54.861-100.919 -37.745  0.00  0.00     0.001 A 
ATOM     25  C   UNL d   1     -54.997-101.444 -37.111  0.00  0.00     0.000 A 
ATOM     26  C   UNL d   1     -55.079-102.255 -37.247  0.00  0.00     0.001 A 
ATOM     27  C   UNL d   1     -55.050-101.150 -36.332  0.00  0.00     0.000 C 
ATOM     28  C   UNL d   1     -55.026-102.549 -38.022  0.00  0.00     0.013 A 
ENDBRANCH  19  22
ENDBRANCH  18  19
ENDBRANCH   2  18
TORSDOF 5
ENDMDL
