MODEL 1
REMARK VINA RESULT:      44.7      0.000      0.000
REMARK  5 active torsions:
REMARK  status: ('A' for Active; 'I' for Inactive)
REMARK    1  A    between atoms: N_2  and  C_1 
REMARK    2  A    between atoms: C_8  and  C_1 
REMARK    3  A    between atoms: O_5  and  N_2 
REMARK    4  A    between atoms: C_3  and  O_5 
REMARK    5  A    between atoms: C_4  and  C_3 
ROOT
ATOM      1  C   UNL d   1     -50.039  27.278  33.557  0.00  0.00     0.319 C 
ATOM      2  O   UNL d   1     -50.511  28.007  33.308  0.00  0.00    -0.257 OA
ENDROOT
BRANCH   1   3
ATOM      3  O   UNL d   1     -49.194  27.384  33.884  0.00  0.00    -0.168 OA
BRANCH   3   4
ATOM      4  N   UNL d   1     -49.054  27.895  34.516  0.00  0.00    -0.100 NA
BRANCH   4   5
ATOM      5  C   UNL d   1     -48.292  27.946  34.827  0.00  0.00     0.228 C 
ATOM      6  N   UNL d   1     -47.782  27.288  34.806  0.00  0.00    -0.123 N 
BRANCH   5   7
ATOM      7  C   UNL d   1     -48.043  28.658  35.159  0.00  0.00     0.121 A 
ATOM      8  N   UNL d   1     -48.246  28.812  35.941  0.00  0.00    -0.241 NA
ATOM      9  C   UNL d   1     -48.001  29.533  36.296  0.00  0.00     0.099 A 
ATOM     10  C   UNL d   1     -47.560  30.074  35.851  0.00  0.00     0.021 A 
ATOM     11  C   UNL d   1     -47.367  29.904  35.072  0.00  0.00     0.003 A 
ATOM     12  C   UNL d   1     -47.611  29.197  34.734  0.00  0.00     0.022 A 
ENDBRANCH   5   7
ENDBRANCH   4   5
ENDBRANCH   3   4
ENDBRANCH   1   3
BRANCH   1  13
ATOM     13  C   UNL d   1     -50.363  26.516  33.494  0.00  0.00     0.065 A 
ATOM     14  C   UNL d   1     -51.184  26.438  33.489  0.00  0.00     0.005 A 
ATOM     15  C   UNL d   1     -51.513  25.684  33.427  0.00  0.00     0.000 A 
ATOM     16  C   UNL d   1     -52.340  25.581  33.420  0.00  0.00     0.000 C 
ATOM     17  C   UNL d   1     -51.033  25.026  33.370  0.00  0.00     0.000 A 
ATOM     18  C   UNL d   1     -50.218  25.114  33.376  0.00  0.00     0.000 A 
ATOM     19  C   UNL d   1     -51.348  24.254  33.306  0.00  0.00     0.000 C 
ATOM     20  C   UNL d   1     -49.885  25.861  33.438  0.00  0.00     0.005 A 
ENDBRANCH   1  13
TORSDOF 5
ENDMDL
MODEL 2
REMARK VINA RESULT:      47.0      0.792      1.297
REMARK  5 active torsions:
REMARK  status: ('A' for Active; 'I' for Inactive)
REMARK    1  A    between atoms: N_2  and  C_1 
REMARK    2  A    between atoms: C_8  and  C_1 
REMARK    3  A    between atoms: O_5  and  N_2 
REMARK    4  A    between atoms: C_3  and  O_5 
REMARK    5  A    between atoms: C_4  and  C_3 
ROOT
ATOM      1  C   UNL d   1     -49.354  27.052  34.074  0.00  0.00     0.319 C 
ATOM      2  O   UNL d   1     -48.599  26.737  33.690  0.00  0.00    -0.257 OA
ENDROOT
BRANCH   1   3
ATOM      3  O   UNL d   1     -49.295  27.728  34.683  0.00  0.00    -0.168 OA
BRANCH   3   4
ATOM      4  N   UNL d   1     -48.622  28.204  34.711  0.00  0.00    -0.100 NA
BRANCH   4   5
ATOM      5  C   UNL d   1     -48.442  28.601  35.412  0.00  0.00     0.228 C 
ATOM      6  N   UNL d   1     -48.653  28.274  36.148  0.00  0.00    -0.123 N 
BRANCH   5   7
ATOM      7  C   UNL d   1     -48.051  29.325  35.371  0.00  0.00     0.121 A 
ATOM      8  N   UNL d   1     -47.520  29.513  35.970  0.00  0.00    -0.241 NA
ATOM      9  C   UNL d   1     -47.112  30.247  35.945  0.00  0.00     0.099 A 
ATOM     10  C   UNL d   1     -47.253  30.767  35.316  0.00  0.00     0.021 A 
ATOM     11  C   UNL d   1     -47.786  30.563  34.727  0.00  0.00     0.003 A 
ATOM     12  C   UNL d   1     -48.180  29.844  34.760  0.00  0.00     0.022 A 
ENDBRANCH   5   7
ENDBRANCH   4   5
ENDBRANCH   3   4
ENDBRANCH   1   3
BRANCH   1  13
ATOM     13  C   UNL d   1     -50.096  26.734  33.882  0.00  0.00     0.065 A 
ATOM     14  C   UNL d   1     -50.144  25.933  33.696  0.00  0.00     0.005 A 
ATOM     15  C   UNL d   1     -50.879  25.610  33.504  0.00  0.00     0.000 A 
ATOM     16  C   UNL d   1     -50.952  24.802  33.313  0.00  0.00     0.000 C 
ATOM     17  C   UNL d   1     -51.548  26.078  33.498  0.00  0.00     0.000 A 
ATOM     18  C   UNL d   1     -51.490  26.874  33.684  0.00  0.00     0.000 A 
ATOM     19  C   UNL d   1     -52.301  25.770  33.306  0.00  0.00     0.000 C 
ATOM     20  C   UNL d   1     -50.762  27.200  33.876  0.00  0.00     0.005 A 
ENDBRANCH   1  13
TORSDOF 5
ENDMDL
