MODEL 1
REMARK VINA RESULT:      -7.8      0.000      0.000
REMARK  5 active torsions:
REMARK  status: ('A' for Active; 'I' for Inactive)
REMARK    1  A    between atoms: C_2  and  C_1 
REMARK    2  A    between atoms: C_3  and  C_2 
REMARK    3  A    between atoms: C_6  and  C_3 
REMARK    4  A    between atoms: O_15  and  C_12 
REMARK    5  A    between atoms: O_14  and  C_13 
ROOT
ATOM      1  C   UNL d   1      53.856  32.402  53.899  0.00  0.00     0.143 C 
ATOM      2  C   UNL d   1      54.469  32.732  53.431  0.00  0.00     0.107 C 
ATOM      3  N   UNL d   1      55.078  33.050  52.960  0.00  0.00    -0.191 NA
ENDROOT
BRANCH   1   4
ATOM      4  C   UNL d   1      53.598  31.618  53.763  0.00  0.00     0.175 A 
ATOM      5  N   UNL d   1      53.174  31.318  53.134  0.00  0.00    -0.225 NA
ATOM      6  C   UNL d   1      53.054  30.548  53.237  0.00  0.00     0.101 A 
ATOM      7  C   UNL d   1      52.678  29.995  52.798  0.00  0.00     0.021 A 
ATOM      8  C   UNL d   1      53.401  30.314  53.948  0.00  0.00     0.101 A 
ATOM      9  C   UNL d   1      52.632  29.196  53.043  0.00  0.00     0.002 A 
ATOM     10  C   UNL d   1      52.984  29.003  53.746  0.00  0.00     0.002 A 
ATOM     11  C   UNL d   1      53.361  29.565  54.183  0.00  0.00     0.021 A 
ATOM     12  N   UNL d   1      53.744  31.004  54.272  0.00  0.00    -0.225 NA
ENDBRANCH   1   4
BRANCH   1  13
ATOM     13  C   UNL d   1      53.531  32.876  54.483  0.00  0.00     0.212 C 
ATOM     14  O   UNL d   1      53.325  32.539  55.213  0.00  0.00    -0.286 OA
BRANCH  13  15
ATOM     15  C   UNL d   1      53.403  33.679  54.364  0.00  0.00     0.084 A 
ATOM     16  C   UNL d   1      52.736  33.918  53.953  0.00  0.00     0.099 A 
ATOM     17  C   UNL d   1      52.596  34.740  53.825  0.00  0.00     0.024 A 
ATOM     18  C   UNL d   1      53.146  35.284  54.123  0.00  0.00     0.004 A 
ATOM     19  C   UNL d   1      53.822  35.032  54.539  0.00  0.00     0.024 A 
ATOM     20  C   UNL d   1      53.936  34.210  54.652  0.00  0.00     0.099 A 
BRANCH  16  21
ATOM     21  O   UNL d   1      52.174  33.392  53.647  0.00  0.00    -0.328 OA
ATOM     22  C   UNL d   1      51.442  33.685  53.369  0.00  0.00     0.181 C 
ENDBRANCH  16  21
BRANCH  20  23
ATOM     23  O   UNL d   1      54.608  33.954  55.066  0.00  0.00    -0.328 OA
ATOM     24  C   UNL d   1      55.055  34.476  55.518  0.00  0.00     0.181 C 
ENDBRANCH  20  23
ENDBRANCH  13  15
ENDBRANCH   1  13
TORSDOF 5
ENDMDL
MODEL 2
REMARK VINA RESULT:      -7.6      0.701      1.675
REMARK  5 active torsions:
REMARK  status: ('A' for Active; 'I' for Inactive)
REMARK    1  A    between atoms: C_2  and  C_1 
REMARK    2  A    between atoms: C_3  and  C_2 
REMARK    3  A    between atoms: C_6  and  C_3 
REMARK    4  A    between atoms: O_15  and  C_12 
REMARK    5  A    between atoms: O_14  and  C_13 
ROOT
ATOM      1  C   UNL d   1      53.314  32.495  53.534  0.00  0.00     0.143 C 
ATOM      2  C   UNL d   1      54.022  32.849  53.257  0.00  0.00     0.107 C 
ATOM      3  N   UNL d   1      54.729  33.189  52.979  0.00  0.00    -0.191 NA
ENDROOT
BRANCH   1   4
ATOM      4  C   UNL d   1      53.236  31.662  53.546  0.00  0.00     0.175 A 
ATOM      5  N   UNL d   1      52.857  31.173  53.014  0.00  0.00    -0.225 NA
ATOM      6  C   UNL d   1      52.924  30.425  53.247  0.00  0.00     0.101 A 
ATOM      7  C   UNL d   1      52.662  29.736  52.936  0.00  0.00     0.021 A 
ATOM      8  C   UNL d   1      53.354  30.398  53.950  0.00  0.00     0.101 A 
ATOM      9  C   UNL d   1      52.814  29.001  53.306  0.00  0.00     0.002 A 
ATOM     10  C   UNL d   1      53.240  29.014  53.994  0.00  0.00     0.002 A 
ATOM     11  C   UNL d   1      53.501  29.711  54.302  0.00  0.00     0.021 A 
ATOM     12  N   UNL d   1      53.547  31.192  54.129  0.00  0.00    -0.225 NA
ENDBRANCH   1   4
BRANCH   1  13
ATOM     13  C   UNL d   1      52.716  32.995  53.787  0.00  0.00     0.212 C 
ATOM     14  O   UNL d   1      52.001  32.672  54.057  0.00  0.00    -0.286 OA
BRANCH  13  15
ATOM     15  C   UNL d   1      52.808  33.812  53.781  0.00  0.00     0.084 A 
ATOM     16  C   UNL d   1      53.183  34.174  54.413  0.00  0.00     0.099 A 
ATOM     17  C   UNL d   1      53.282  35.012  54.415  0.00  0.00     0.024 A 
ATOM     18  C   UNL d   1      52.993  35.445  53.770  0.00  0.00     0.004 A 
ATOM     19  C   UNL d   1      52.613  35.068  53.132  0.00  0.00     0.024 A 
ATOM     20  C   UNL d   1      52.528  34.235  53.155  0.00  0.00     0.099 A 
BRANCH  16  21
ATOM     21  O   UNL d   1      53.479  33.762  55.067  0.00  0.00    -0.328 OA
ATOM     22  C   UNL d   1      53.727  34.184  55.745  0.00  0.00     0.181 C 
ENDBRANCH  16  21
BRANCH  20  23
ATOM     23  O   UNL d   1      52.150  33.856  52.522  0.00  0.00    -0.328 OA
ATOM     24  C   UNL d   1      51.641  34.265  52.021  0.00  0.00     0.181 C 
ENDBRANCH  20  23
ENDBRANCH  13  15
ENDBRANCH   1  13
TORSDOF 5
ENDMDL
MODEL 3
REMARK VINA RESULT:      -7.4      2.057      3.952
REMARK  5 active torsions:
REMARK  status: ('A' for Active; 'I' for Inactive)
REMARK    1  A    between atoms: C_2  and  C_1 
REMARK    2  A    between atoms: C_3  and  C_2 
REMARK    3  A    between atoms: C_6  and  C_3 
REMARK    4  A    between atoms: O_15  and  C_12 
REMARK    5  A    between atoms: O_14  and  C_13 
ROOT
ATOM      1  C   UNL d   1      51.866  34.078  52.974  0.00  0.00     0.143 C 
ATOM      2  C   UNL d   1      52.539  34.467  52.658  0.00  0.00     0.107 C 
ATOM      3  N   UNL d   1      53.200  34.859  52.337  0.00  0.00    -0.191 NA
ENDROOT
BRANCH   1   4
ATOM      4  C   UNL d   1      51.102  34.256  52.684  0.00  0.00     0.175 A 
ATOM      5  N   UNL d   1      50.474  34.608  53.069  0.00  0.00    -0.225 NA
ATOM      6  C   UNL d   1      49.862  34.666  52.580  0.00  0.00     0.101 A 
ATOM      7  C   UNL d   1      49.123  34.960  52.670  0.00  0.00     0.021 A 
ATOM      8  C   UNL d   1      50.070  34.349  51.848  0.00  0.00     0.101 A 
ATOM      9  C   UNL d   1      48.568  34.952  52.044  0.00  0.00     0.002 A 
ATOM     10  C   UNL d   1      48.807  34.633  51.340  0.00  0.00     0.002 A 
ATOM     11  C   UNL d   1      49.552  34.339  51.256  0.00  0.00     0.021 A 
ATOM     12  N   UNL d   1      50.861  34.092  51.927  0.00  0.00    -0.225 NA
ENDBRANCH   1   4
BRANCH   1  13
ATOM     13  C   UNL d   1      51.993  33.528  53.569  0.00  0.00     0.212 C 
ATOM     14  O   UNL d   1      51.350  33.259  54.018  0.00  0.00    -0.286 OA
BRANCH  13  15
ATOM     15  C   UNL d   1      52.744  33.236  53.731  0.00  0.00     0.084 A 
ATOM     16  C   UNL d   1      53.002  32.565  53.338  0.00  0.00     0.099 A 
ATOM     17  C   UNL d   1      53.771  32.258  53.498  0.00  0.00     0.024 A 
ATOM     18  C   UNL d   1      54.245  32.651  54.054  0.00  0.00     0.004 A 
ATOM     19  C   UNL d   1      53.974  33.332  54.448  0.00  0.00     0.024 A 
ATOM     20  C   UNL d   1      53.206  33.616  54.271  0.00  0.00     0.099 A 
BRANCH  16  21
ATOM     21  O   UNL d   1      52.546  32.158  52.780  0.00  0.00    -0.328 OA
ATOM     22  C   UNL d   1      52.703  31.351  52.627  0.00  0.00     0.181 C 
ENDBRANCH  16  21
BRANCH  20  23
ATOM     23  O   UNL d   1      52.932  34.294  54.661  0.00  0.00    -0.328 OA
ATOM     24  C   UNL d   1      53.319  34.591  55.324  0.00  0.00     0.181 C 
ENDBRANCH  20  23
ENDBRANCH  13  15
ENDBRANCH   1  13
TORSDOF 5
ENDMDL
MODEL 4
REMARK VINA RESULT:      -7.3      2.075      4.161
REMARK  5 active torsions:
REMARK  status: ('A' for Active; 'I' for Inactive)
REMARK    1  A    between atoms: C_2  and  C_1 
REMARK    2  A    between atoms: C_3  and  C_2 
REMARK    3  A    between atoms: C_6  and  C_3 
REMARK    4  A    between atoms: O_15  and  C_12 
REMARK    5  A    between atoms: O_14  and  C_13 
ROOT
ATOM      1  C   UNL d   1      51.826  34.042  52.940  0.00  0.00     0.143 C 
ATOM      2  C   UNL d   1      52.499  34.428  52.619  0.00  0.00     0.107 C 
ATOM      3  N   UNL d   1      53.160  34.817  52.294  0.00  0.00    -0.191 NA
ENDROOT
BRANCH   1   4
ATOM      4  C   UNL d   1      51.059  34.246  52.677  0.00  0.00     0.175 A 
ATOM      5  N   UNL d   1      50.462  34.630  53.080  0.00  0.00    -0.225 NA
ATOM      6  C   UNL d   1      49.833  34.705  52.615  0.00  0.00     0.101 A 
ATOM      7  C   UNL d   1      49.112  35.031  52.729  0.00  0.00     0.021 A 
ATOM      8  C   UNL d   1      49.998  34.367  51.881  0.00  0.00     0.101 A 
ATOM      9  C   UNL d   1      48.531  35.035  52.126  0.00  0.00     0.002 A 
ATOM     10  C   UNL d   1      48.729  34.694  51.419  0.00  0.00     0.002 A 
ATOM     11  C   UNL d   1      49.457  34.368  51.310  0.00  0.00     0.021 A 
ATOM     12  N   UNL d   1      50.781  34.079  51.934  0.00  0.00    -0.225 NA
ENDBRANCH   1   4
BRANCH   1  13
ATOM     13  C   UNL d   1      51.957  33.468  53.511  0.00  0.00     0.212 C 
ATOM     14  O   UNL d   1      51.310  33.137  53.910  0.00  0.00    -0.286 OA
BRANCH  13  15
ATOM     15  C   UNL d   1      52.715  33.213  53.698  0.00  0.00     0.084 A 
ATOM     16  C   UNL d   1      53.148  33.630  54.254  0.00  0.00     0.099 A 
ATOM     17  C   UNL d   1      53.928  33.375  54.452  0.00  0.00     0.024 A 
ATOM     18  C   UNL d   1      54.232  32.703  54.073  0.00  0.00     0.004 A 
ATOM     19  C   UNL d   1      53.784  32.286  53.509  0.00  0.00     0.024 A 
ATOM     20  C   UNL d   1      53.013  32.560  53.330  0.00  0.00     0.099 A 
BRANCH  16  21
ATOM     21  O   UNL d   1      52.865  34.302  54.645  0.00  0.00    -0.328 OA
ATOM     22  C   UNL d   1      53.267  34.589  55.319  0.00  0.00     0.181 C 
ENDBRANCH  16  21
BRANCH  20  23
ATOM     23  O   UNL d   1      52.564  32.147  52.769  0.00  0.00    -0.328 OA
ATOM     24  C   UNL d   1      52.713  31.356  52.601  0.00  0.00     0.181 C 
ENDBRANCH  20  23
ENDBRANCH  13  15
ENDBRANCH   1  13
TORSDOF 5
ENDMDL
