MODEL 1
REMARK VINA RESULT:      -7.0      0.000      0.000
REMARK  5 active torsions:
REMARK  status: ('A' for Active; 'I' for Inactive)
REMARK    1  A    between atoms: N_3  and  C_1 
REMARK       I    between atoms: C_9  and  N_3 
REMARK    2  A    between atoms: C_12  and  C_7 
REMARK    3  A    between atoms: C_17  and  C_9 
REMARK    4  A    between atoms: C_11  and  S_14 
REMARK    5  A    between atoms: S_14  and  C_17 
ROOT
ATOM      1  N   UNL d   1     -48.826  13.657  23.452  0.00  0.00    -0.146 NA
ATOM      2  N   UNL d   1     -48.114  13.241  23.419  0.00  0.00    -0.141 NA
ATOM      3  C   UNL d   1     -48.942  14.320  22.969  0.00  0.00     0.121 A 
ATOM      4  C   UNL d   1     -47.518  13.477  22.912  0.00  0.00     0.133 A 
ATOM      5  C   UNL d   1     -48.341  14.561  22.455  0.00  0.00     0.025 A 
ATOM      6  C   UNL d   1     -47.632  14.145  22.424  0.00  0.00     0.029 A 
ENDROOT
BRANCH   4   7
ATOM      7  S   UNL d   1     -46.806  13.062  22.878  0.00  0.00    -0.061 SA
BRANCH   7   8
ATOM      8  C   UNL d   1     -46.677  12.417  23.370  0.00  0.00     0.099 C 
BRANCH   8   9
ATOM      9  C   UNL d   1     -45.949  12.027  23.347  0.00  0.00     0.288 C 
ATOM     10  N   UNL d   1     -45.900  11.230  23.552  0.00  0.00    -0.182 NA
ATOM     11  O   UNL d   1     -45.270  12.431  23.121  0.00  0.00    -0.265 OA
BRANCH  10  12
ATOM     12  C   UNL d   1     -45.182  10.832  23.534  0.00  0.00     0.197 A 
ATOM     13  N   UNL d   1     -44.461  11.172  23.346  0.00  0.00    -0.221 NA
ATOM     14  C   UNL d   1     -43.890  10.588  23.393  0.00  0.00     0.090 A 
ATOM     15  C   UNL d   1     -43.079  10.678  23.248  0.00  0.00     0.021 C 
ATOM     16  C   UNL d   1     -44.263   9.889  23.611  0.00  0.00     0.058 A 
ATOM     17  S   UNL d   1     -45.060  10.040  23.698  0.00  0.00    -0.046 SA
ENDBRANCH  10  12
ENDBRANCH   8   9
ENDBRANCH   7   8
ENDBRANCH   4   7
BRANCH   3  18
ATOM     18  C   UNL d   1     -49.653  14.735  23.003  0.00  0.00     0.101 A 
ATOM     19  N   UNL d   1     -50.332  14.399  22.703  0.00  0.00    -0.242 NA
ATOM     20  C   UNL d   1     -51.039  14.809  22.735  0.00  0.00     0.099 A 
ATOM     21  C   UNL d   1     -51.064  15.568  23.073  0.00  0.00     0.021 A 
ATOM     22  C   UNL d   1     -50.380  15.902  23.374  0.00  0.00     0.003 A 
ATOM     23  C   UNL d   1     -49.663  15.493  23.344  0.00  0.00     0.021 A 
ENDBRANCH   3  18
TORSDOF 5
ENDMDL
MODEL 2
REMARK VINA RESULT:      -5.9      1.700      1.844
REMARK  5 active torsions:
REMARK  status: ('A' for Active; 'I' for Inactive)
REMARK    1  A    between atoms: N_3  and  C_1 
REMARK       I    between atoms: C_9  and  N_3 
REMARK    2  A    between atoms: C_12  and  C_7 
REMARK    3  A    between atoms: C_17  and  C_9 
REMARK    4  A    between atoms: C_11  and  S_14 
REMARK    5  A    between atoms: S_14  and  C_17 
ROOT
ATOM      1  N   UNL d   1     -48.583  13.601  23.193  0.00  0.00    -0.146 NA
ATOM      2  N   UNL d   1     -47.807  13.322  23.204  0.00  0.00    -0.141 NA
ATOM      3  C   UNL d   1     -48.742  14.374  22.941  0.00  0.00     0.121 A 
ATOM      4  C   UNL d   1     -47.188  13.802  22.967  0.00  0.00     0.133 A 
ATOM      5  C   UNL d   1     -48.119  14.862  22.701  0.00  0.00     0.025 A 
ATOM      6  C   UNL d   1     -47.346  14.581  22.713  0.00  0.00     0.029 A 
ENDROOT
BRANCH   4   7
ATOM      7  S   UNL d   1     -46.412  13.523  22.978  0.00  0.00    -0.061 SA
BRANCH   7   8
ATOM      8  C   UNL d   1     -46.152  12.995  22.406  0.00  0.00     0.099 C 
BRANCH   8   9
ATOM      9  C   UNL d   1     -45.346  12.817  22.352  0.00  0.00     0.288 C 
ATOM     10  N   UNL d   1     -44.897  13.118  21.730  0.00  0.00    -0.182 NA
ATOM     11  O   UNL d   1     -44.990  12.340  22.918  0.00  0.00    -0.265 OA
BRANCH  10  12
ATOM     12  C   UNL d   1     -44.096  12.949  21.666  0.00  0.00     0.197 A 
ATOM     13  N   UNL d   1     -43.528  13.466  21.382  0.00  0.00    -0.221 NA
ATOM     14  C   UNL d   1     -42.806  13.083  21.410  0.00  0.00     0.090 A 
ATOM     15  C   UNL d   1     -42.073  13.394  21.177  0.00  0.00     0.021 C 
ATOM     16  C   UNL d   1     -42.933  12.329  21.712  0.00  0.00     0.058 A 
ATOM     17  S   UNL d   1     -43.729  12.248  21.870  0.00  0.00    -0.046 SA
ENDBRANCH  10  12
ENDBRANCH   8   9
ENDBRANCH   7   8
ENDBRANCH   4   7
BRANCH   3  18
ATOM     18  C   UNL d   1     -49.517  14.652  22.931  0.00  0.00     0.101 A 
ATOM     19  N   UNL d   1     -50.067  14.300  22.445  0.00  0.00    -0.242 NA
ATOM     20  C   UNL d   1     -50.838  14.574  22.432  0.00  0.00     0.099 A 
ATOM     21  C   UNL d   1     -51.059  15.213  22.916  0.00  0.00     0.021 A 
ATOM     22  C   UNL d   1     -50.503  15.565  23.404  0.00  0.00     0.003 A 
ATOM     23  C   UNL d   1     -49.724  15.292  23.420  0.00  0.00     0.021 A 
ENDBRANCH   3  18
TORSDOF 5
ENDMDL
MODEL 3
REMARK VINA RESULT:      -5.5      2.216      2.606
REMARK  5 active torsions:
REMARK  status: ('A' for Active; 'I' for Inactive)
REMARK    1  A    between atoms: N_3  and  C_1 
REMARK       I    between atoms: C_9  and  N_3 
REMARK    2  A    between atoms: C_12  and  C_7 
REMARK    3  A    between atoms: C_17  and  C_9 
REMARK    4  A    between atoms: C_11  and  S_14 
REMARK    5  A    between atoms: S_14  and  C_17 
ROOT
ATOM      1  N   UNL d   1     -48.406  13.306  22.956  0.00  0.00    -0.146 NA
ATOM      2  N   UNL d   1     -47.604  13.451  22.826  0.00  0.00    -0.141 NA
ATOM      3  C   UNL d   1     -48.647  12.597  23.310  0.00  0.00     0.121 A 
ATOM      4  C   UNL d   1     -47.041  12.899  23.044  0.00  0.00     0.133 A 
ATOM      5  C   UNL d   1     -48.080  12.037  23.532  0.00  0.00     0.025 A 
ATOM      6  C   UNL d   1     -47.281  12.185  23.400  0.00  0.00     0.029 A 
ENDROOT
BRANCH   4   7
ATOM      7  S   UNL d   1     -46.239  13.044  22.914  0.00  0.00    -0.061 SA
BRANCH   7   8
ATOM      8  C   UNL d   1     -45.916  12.953  22.165  0.00  0.00     0.099 C 
BRANCH   8   9
ATOM      9  C   UNL d   1     -45.108  13.088  22.050  0.00  0.00     0.288 C 
ATOM     10  N   UNL d   1     -44.626  12.485  21.764  0.00  0.00    -0.182 NA
ATOM     11  O   UNL d   1     -44.784  13.823  22.221  0.00  0.00    -0.265 OA
BRANCH  10  12
ATOM     12  C   UNL d   1     -43.821  12.606  21.646  0.00  0.00     0.197 A 
ATOM     13  N   UNL d   1     -43.499  13.079  21.059  0.00  0.00    -0.221 NA
ATOM     14  C   UNL d   1     -42.685  13.049  21.135  0.00  0.00     0.090 A 
ATOM     15  C   UNL d   1     -42.131  13.442  20.659  0.00  0.00     0.021 C 
ATOM     16  C   UNL d   1     -42.509  12.557  21.770  0.00  0.00     0.058 A 
ATOM     17  S   UNL d   1     -43.211  12.285  22.084  0.00  0.00    -0.046 SA
ENDBRANCH  10  12
ENDBRANCH   8   9
ENDBRANCH   7   8
ENDBRANCH   4   7
BRANCH   3  18
ATOM     18  C   UNL d   1     -49.448  12.453  23.440  0.00  0.00     0.101 A 
ATOM     19  N   UNL d   1     -49.712  11.689  23.532  0.00  0.00    -0.242 NA
ATOM     20  C   UNL d   1     -50.506  11.542  23.661  0.00  0.00     0.099 A 
ATOM     21  C   UNL d   1     -51.044  12.176  23.698  0.00  0.00     0.021 A 
ATOM     22  C   UNL d   1     -50.775  12.943  23.605  0.00  0.00     0.003 A 
ATOM     23  C   UNL d   1     -49.974  13.096  23.475  0.00  0.00     0.021 A 
ENDBRANCH   3  18
TORSDOF 5
ENDMDL
MODEL 4
REMARK VINA RESULT:      -5.2      3.990      5.310
REMARK  5 active torsions:
REMARK  status: ('A' for Active; 'I' for Inactive)
REMARK    1  A    between atoms: N_3  and  C_1 
REMARK       I    between atoms: C_9  and  N_3 
REMARK    2  A    between atoms: C_12  and  C_7 
REMARK    3  A    between atoms: C_17  and  C_9 
REMARK    4  A    between atoms: C_11  and  S_14 
REMARK    5  A    between atoms: S_14  and  C_17 
ROOT
ATOM      1  N   UNL d   1     -44.549  12.061  22.562  0.00  0.00    -0.146 NA
ATOM      2  N   UNL d   1     -43.857  12.205  22.138  0.00  0.00    -0.141 NA
ATOM      3  C   UNL d   1     -45.220  12.528  22.431  0.00  0.00     0.121 A 
ATOM      4  C   UNL d   1     -43.825  12.807  21.585  0.00  0.00     0.133 A 
ATOM      5  C   UNL d   1     -45.192  13.138  21.873  0.00  0.00     0.025 A 
ATOM      6  C   UNL d   1     -44.500  13.278  21.451  0.00  0.00     0.029 A 
ENDROOT
BRANCH   4   7
ATOM      7  S   UNL d   1     -43.132  12.951  21.160  0.00  0.00    -0.061 SA
BRANCH   7   8
ATOM      8  C   UNL d   1     -42.557  13.453  21.460  0.00  0.00     0.099 C 
BRANCH   8   9
ATOM      9  C   UNL d   1     -41.935  13.696  20.973  0.00  0.00     0.288 C 
ATOM     10  N   UNL d   1     -41.525  14.391  21.142  0.00  0.00    -0.182 NA
ATOM     11  O   UNL d   1     -41.722  13.247  20.318  0.00  0.00    -0.265 OA
BRANCH  10  12
ATOM     12  C   UNL d   1     -40.905  14.643  20.666  0.00  0.00     0.197 A 
ATOM     13  N   UNL d   1     -40.965  15.211  20.078  0.00  0.00    -0.221 NA
ATOM     14  C   UNL d   1     -40.226  15.298  19.739  0.00  0.00     0.090 A 
ATOM     15  C   UNL d   1     -40.025  15.813  19.121  0.00  0.00     0.021 C 
ATOM     16  C   UNL d   1     -39.712  14.782  20.121  0.00  0.00     0.058 A 
ATOM     17  S   UNL d   1     -40.132  14.379  20.692  0.00  0.00    -0.046 SA
ENDBRANCH  10  12
ENDBRANCH   8   9
ENDBRANCH   7   8
ENDBRANCH   4   7
BRANCH   3  18
ATOM     18  C   UNL d   1     -45.912  12.384  22.856  0.00  0.00     0.101 A 
ATOM     19  N   UNL d   1     -45.996  11.688  23.268  0.00  0.00    -0.242 NA
ATOM     20  C   UNL d   1     -46.681  11.542  23.690  0.00  0.00     0.099 A 
ATOM     21  C   UNL d   1     -47.292  12.106  23.698  0.00  0.00     0.021 A 
ATOM     22  C   UNL d   1     -47.203  12.806  23.283  0.00  0.00     0.003 A 
ATOM     23  C   UNL d   1     -46.514  12.958  22.854  0.00  0.00     0.021 A 
ENDBRANCH   3  18
TORSDOF 5
ENDMDL
MODEL 5
REMARK VINA RESULT:      -4.5      4.373      7.106
REMARK  5 active torsions:
REMARK  status: ('A' for Active; 'I' for Inactive)
REMARK    1  A    between atoms: N_3  and  C_1 
REMARK       I    between atoms: C_9  and  N_3 
REMARK    2  A    between atoms: C_12  and  C_7 
REMARK    3  A    between atoms: C_17  and  C_9 
REMARK    4  A    between atoms: C_11  and  S_14 
REMARK    5  A    between atoms: S_14  and  C_17 
ROOT
ATOM      1  N   UNL d   1     -41.627  13.601  19.784  0.00  0.00    -0.146 NA
ATOM      2  N   UNL d   1     -42.219  13.219  20.213  0.00  0.00    -0.141 NA
ATOM      3  C   UNL d   1     -41.090  14.099  20.170  0.00  0.00     0.121 A 
ATOM      4  C   UNL d   1     -42.283  13.328  21.021  0.00  0.00     0.133 A 
ATOM      5  C   UNL d   1     -41.152  14.212  20.987  0.00  0.00     0.025 A 
ATOM      6  C   UNL d   1     -41.744  13.829  21.413  0.00  0.00     0.029 A 
ENDROOT
BRANCH   4   7
ATOM      7  S   UNL d   1     -42.876  12.946  21.450  0.00  0.00    -0.061 SA
BRANCH   7   8
ATOM      8  C   UNL d   1     -43.666  13.062  21.262  0.00  0.00     0.099 C 
BRANCH   8   9
ATOM      9  C   UNL d   1     -44.248  12.888  21.823  0.00  0.00     0.288 C 
ATOM     10  N   UNL d   1     -44.949  13.320  21.839  0.00  0.00    -0.182 NA
ATOM     11  O   UNL d   1     -44.130  12.283  22.367  0.00  0.00    -0.265 OA
BRANCH  10  12
ATOM     12  C   UNL d   1     -45.535  13.157  22.392  0.00  0.00     0.197 A 
ATOM     13  N   UNL d   1     -45.766  12.406  22.622  0.00  0.00    -0.221 NA
ATOM     14  C   UNL d   1     -46.360  12.488  23.179  0.00  0.00     0.090 A 
ATOM     15  C   UNL d   1     -46.761  11.875  23.566  0.00  0.00     0.021 C 
ATOM     16  C   UNL d   1     -46.491  13.292  23.289  0.00  0.00     0.058 A 
ATOM     17  S   UNL d   1     -45.982  13.704  22.803  0.00  0.00    -0.046 SA
ENDBRANCH  10  12
ENDBRANCH   8   9
ENDBRANCH   7   8
ENDBRANCH   4   7
BRANCH   3  18
ATOM     18  C   UNL d   1     -40.499  14.481  19.741  0.00  0.00     0.101 A 
ATOM     19  N   UNL d   1     -39.785  14.110  19.620  0.00  0.00    -0.242 NA
ATOM     20  C   UNL d   1     -39.196  14.485  19.194  0.00  0.00     0.099 A 
ATOM     21  C   UNL d   1     -39.328  15.246  18.886  0.00  0.00     0.021 A 
ATOM     22  C   UNL d   1     -40.047  15.616  19.010  0.00  0.00     0.003 A 
ATOM     23  C   UNL d   1     -40.645  15.241  19.439  0.00  0.00     0.021 A 
ENDBRANCH   3  18
TORSDOF 5
ENDMDL
