MODEL 1
REMARK VINA RESULT:      66.8      0.000      0.000
REMARK  6 active torsions:
REMARK  status: ('A' for Active; 'I' for Inactive)
REMARK    1  A    between atoms: C_9  and  S_1 
REMARK    2  A    between atoms: N_10  and  S_1 
REMARK    3  A    between atoms: C_2  and  N_6 
REMARK       I    between atoms: N_6  and  C_8 
REMARK    4  A    between atoms: C_8  and  C_15 
REMARK    5  A    between atoms: O_24  and  C_13 
REMARK    6  A    between atoms: O_23  and  C_14 
ROOT
ATOM      1  N   UNL d   1      13.145  13.158  -5.025  0.00  0.00    -0.183 NA
ATOM      2  C   UNL d   1      13.112  12.419  -4.649  0.00  0.00     0.281 C 
ATOM      3  O   UNL d   1      12.769  11.782  -5.042  0.00  0.00    -0.265 OA
ENDROOT
BRANCH   1   4
ATOM      4  C   UNL d   1      13.490  13.811  -4.636  0.00  0.00     0.197 A 
ATOM      5  N   UNL d   1      13.984  14.374  -4.978  0.00  0.00    -0.218 NA
ATOM      6  C   UNL d   1      14.193  14.914  -4.394  0.00  0.00     0.114 A 
ATOM      7  C   UNL d   1      14.667  15.585  -4.402  0.00  0.00     0.112 A 
ATOM      8  C   UNL d   1      13.827  14.681  -3.694  0.00  0.00     0.074 A 
ATOM      9  C   UNL d   1      14.779  16.028  -3.716  0.00  0.00     0.028 A 
ATOM     10  C   UNL d   1      14.406  15.788  -3.012  0.00  0.00     0.027 A 
ATOM     11  C   UNL d   1      13.934  15.120  -3.001  0.00  0.00     0.102 A 
ATOM     12  S   UNL d   1      13.391  13.994  -3.853  0.00  0.00    -0.045 SA
BRANCH   7  13
ATOM     13  O   UNL d   1      15.042  15.827  -5.109  0.00  0.00    -0.327 OA
ATOM     14  C   UNL d   1      14.828  16.539  -5.466  0.00  0.00     0.181 C 
ENDBRANCH   7  13
BRANCH  11  15
ATOM     15  O   UNL d   1      13.559  14.878  -2.295  0.00  0.00    -0.328 OA
ATOM     16  C   UNL d   1      13.866  15.111  -1.568  0.00  0.00     0.181 C 
ENDBRANCH  11  15
ENDBRANCH   1   4
BRANCH   2  17
ATOM     17  C   UNL d   1      13.418  12.341  -3.904  0.00  0.00     0.058 A 
ATOM     18  C   UNL d   1      14.226  12.368  -3.774  0.00  0.00     0.005 A 
ATOM     19  C   UNL d   1      14.536  12.288  -3.017  0.00  0.00     0.013 A 
ATOM     20  C   UNL d   1      14.025  12.178  -2.374  0.00  0.00     0.104 A 
ATOM     21  C   UNL d   1      13.207  12.150  -2.498  0.00  0.00     0.013 A 
ATOM     22  C   UNL d   1      12.906  12.231  -3.261  0.00  0.00     0.005 A 
BRANCH  20  23
ATOM     23  S   UNL d   1      14.332  12.098  -1.612  0.00  0.00     0.271 S 
ATOM     24  O   UNL d   1      13.611  11.781  -1.358  0.00  0.00    -0.200 OA
ATOM     25  O   UNL d   1      15.048  12.413  -1.872  0.00  0.00    -0.200 OA
BRANCH  23  26
ATOM     26  N   UNL d   1      14.642  12.019  -0.855  0.00  0.00    -0.226 N 
ATOM     27  C   UNL d   1      14.165  12.136  -0.200  0.00  0.00     0.111 C 
ATOM     28  C   UNL d   1      15.436  11.821  -0.758  0.00  0.00     0.111 C 
ENDBRANCH  23  26
ENDBRANCH  20  23
ENDBRANCH   2  17
TORSDOF 6
ENDMDL
MODEL 2
REMARK VINA RESULT:      67.4      1.790      3.394
REMARK  6 active torsions:
REMARK  status: ('A' for Active; 'I' for Inactive)
REMARK    1  A    between atoms: C_9  and  S_1 
REMARK    2  A    between atoms: N_10  and  S_1 
REMARK    3  A    between atoms: C_2  and  N_6 
REMARK       I    between atoms: N_6  and  C_8 
REMARK    4  A    between atoms: C_8  and  C_15 
REMARK    5  A    between atoms: O_24  and  C_13 
REMARK    6  A    between atoms: O_23  and  C_14 
ROOT
ATOM      1  N   UNL d   1      15.006  16.815  -1.413  0.00  0.00    -0.183 NA
ATOM      2  C   UNL d   1      15.131  16.371  -0.724  0.00  0.00     0.281 C 
ATOM      3  O   UNL d   1      15.277  16.762  -0.014  0.00  0.00    -0.265 OA
ENDROOT
BRANCH   1   4
ATOM      4  C   UNL d   1      14.858  16.429  -2.139  0.00  0.00     0.197 A 
ATOM      5  N   UNL d   1      14.245  15.900  -2.290  0.00  0.00    -0.218 NA
ATOM      6  C   UNL d   1      14.310  15.657  -3.073  0.00  0.00     0.114 A 
ATOM      7  C   UNL d   1      13.865  15.142  -3.533  0.00  0.00     0.112 A 
ATOM      8  C   UNL d   1      14.962  16.037  -3.401  0.00  0.00     0.074 A 
ATOM      9  C   UNL d   1      14.065  15.002  -4.320  0.00  0.00     0.028 A 
ATOM     10  C   UNL d   1      14.726  15.389  -4.646  0.00  0.00     0.027 A 
ATOM     11  C   UNL d   1      15.170  15.903  -4.190  0.00  0.00     0.102 A 
ATOM     12  S   UNL d   1      15.298  16.516  -2.813  0.00  0.00    -0.045 SA
BRANCH   7  13
ATOM     13  O   UNL d   1      13.201  14.752  -3.206  0.00  0.00    -0.327 OA
ATOM     14  C   UNL d   1      12.773  14.215  -3.663  0.00  0.00     0.181 C 
ENDBRANCH   7  13
BRANCH  11  15
ATOM     15  O   UNL d   1      15.834  16.292  -4.516  0.00  0.00    -0.328 OA
ATOM     16  C   UNL d   1      15.836  16.500  -5.312  0.00  0.00     0.181 C 
ENDBRANCH  11  15
ENDBRANCH   1   4
BRANCH   2  17
ATOM     17  C   UNL d   1      15.106  15.563  -0.763  0.00  0.00     0.058 A 
ATOM     18  C   UNL d   1      15.754  15.133  -1.022  0.00  0.00     0.005 A 
ATOM     19  C   UNL d   1      15.729  14.313  -1.062  0.00  0.00     0.013 A 
ATOM     20  C   UNL d   1      15.039  13.913  -0.837  0.00  0.00     0.104 A 
ATOM     21  C   UNL d   1      14.381  14.340  -0.575  0.00  0.00     0.013 A 
ATOM     22  C   UNL d   1      14.416  15.163  -0.539  0.00  0.00     0.005 A 
BRANCH  20  23
ATOM     23  S   UNL d   1      15.009  13.089  -0.876  0.00  0.00     0.271 S 
ATOM     24  O   UNL d   1      15.329  13.116  -1.640  0.00  0.00    -0.200 OA
ATOM     25  O   UNL d   1      14.692  13.068  -0.117  0.00  0.00    -0.200 OA
BRANCH  23  26
ATOM     26  N   UNL d   1      14.978  12.268  -0.911  0.00  0.00    -0.226 N 
ATOM     27  C   UNL d   1      15.003  11.824  -0.223  0.00  0.00     0.111 C 
ATOM     28  C   UNL d   1      14.923  11.894  -1.643  0.00  0.00     0.111 C 
ENDBRANCH  23  26
ENDBRANCH  20  23
ENDBRANCH   2  17
TORSDOF 6
ENDMDL
MODEL 3
REMARK VINA RESULT:      67.9      1.679      3.387
REMARK  6 active torsions:
REMARK  status: ('A' for Active; 'I' for Inactive)
REMARK    1  A    between atoms: C_9  and  S_1 
REMARK    2  A    between atoms: N_10  and  S_1 
REMARK    3  A    between atoms: C_2  and  N_6 
REMARK       I    between atoms: N_6  and  C_8 
REMARK    4  A    between atoms: C_8  and  C_15 
REMARK    5  A    between atoms: O_24  and  C_13 
REMARK    6  A    between atoms: O_23  and  C_14 
ROOT
ATOM      1  N   UNL d   1      15.571  13.513  -0.213  0.00  0.00    -0.183 NA
ATOM      2  C   UNL d   1      15.289  12.774  -0.464  0.00  0.00     0.281 C 
ATOM      3  O   UNL d   1      15.466  12.103  -0.021  0.00  0.00    -0.265 OA
ENDROOT
BRANCH   1   4
ATOM      4  C   UNL d   1      15.397  14.199  -0.655  0.00  0.00     0.197 A 
ATOM      5  N   UNL d   1      15.320  14.963  -0.356  0.00  0.00    -0.218 NA
ATOM      6  C   UNL d   1      15.148  15.463  -0.985  0.00  0.00     0.114 A 
ATOM      7  C   UNL d   1      15.013  16.273  -1.029  0.00  0.00     0.112 A 
ATOM      8  C   UNL d   1      15.121  15.007  -1.670  0.00  0.00     0.074 A 
ATOM      9  C   UNL d   1      14.851  16.632  -1.753  0.00  0.00     0.028 A 
ATOM     10  C   UNL d   1      14.825  16.166  -2.442  0.00  0.00     0.027 A 
ATOM     11  C   UNL d   1      14.959  15.360  -2.400  0.00  0.00     0.102 A 
ATOM     12  S   UNL d   1      15.277  14.221  -1.456  0.00  0.00    -0.045 SA
BRANCH   7  13
ATOM     13  O   UNL d   1      15.039  16.742  -0.338  0.00  0.00    -0.327 OA
ATOM     14  C   UNL d   1      15.167  17.555  -0.397  0.00  0.00     0.181 C 
ENDBRANCH   7  13
BRANCH  11  15
ATOM     15  O   UNL d   1      14.933  14.890  -3.091  0.00  0.00    -0.328 OA
ATOM     16  C   UNL d   1      14.856  15.249  -3.827  0.00  0.00     0.181 C 
ENDBRANCH  11  15
ENDBRANCH   1   4
BRANCH   2  17
ATOM     17  C   UNL d   1      14.846  12.728  -1.140  0.00  0.00     0.058 A 
ATOM     18  C   UNL d   1      15.191  12.534  -1.858  0.00  0.00     0.005 A 
ATOM     19  C   UNL d   1      14.740  12.488  -2.544  0.00  0.00     0.013 A 
ATOM     20  C   UNL d   1      13.926  12.639  -2.512  0.00  0.00     0.104 A 
ATOM     21  C   UNL d   1      13.572  12.835  -1.790  0.00  0.00     0.013 A 
ATOM     22  C   UNL d   1      14.032  12.879  -1.107  0.00  0.00     0.005 A 
BRANCH  20  23
ATOM     23  S   UNL d   1      13.471  12.593  -3.198  0.00  0.00     0.271 S 
ATOM     24  O   UNL d   1      14.087  12.188  -3.576  0.00  0.00    -0.200 OA
ATOM     25  O   UNL d   1      12.862  12.996  -2.817  0.00  0.00    -0.200 OA
BRANCH  23  26
ATOM     26  N   UNL d   1      13.015  12.550  -3.881  0.00  0.00    -0.226 N 
ATOM     27  C   UNL d   1      12.776  11.822  -4.172  0.00  0.00     0.111 C 
ATOM     28  C   UNL d   1      12.799  13.242  -4.271  0.00  0.00     0.111 C 
ENDBRANCH  23  26
ENDBRANCH  20  23
ENDBRANCH   2  17
TORSDOF 6
ENDMDL
