MODEL 1
REMARK VINA RESULT:      -8.3      0.000      0.000
REMARK  5 active torsions:
REMARK  status: ('A' for Active; 'I' for Inactive)
REMARK    1  A    between atoms: N_2  and  C_1 
REMARK    2  A    between atoms: N_3  and  C_1 
REMARK       I    between atoms: C_4  and  N_2 
REMARK    3  A    between atoms: C_15  and  C_4 
REMARK    4  A    between atoms: O_17  and  C_9 
REMARK    5  A    between atoms: O_18  and  C_10 
ROOT
ATOM      1  N   UNL d   1      51.468  34.186  52.927  0.00  0.00    -0.281 N 
ATOM      2  C   UNL d   1      52.478  33.298  53.432  0.00  0.00     0.020 A 
ATOM      3  C   UNL d   1      51.784  33.426  53.003  0.00  0.00     0.082 A 
ATOM      4  C   UNL d   1      52.861  33.945  53.790  0.00  0.00     0.005 A 
ATOM      5  C   UNL d   1      52.798  32.544  53.512  0.00  0.00     0.028 A 
ATOM      6  C   UNL d   1      53.490  32.427  53.942  0.00  0.00     0.116 A 
ATOM      7  C   UNL d   1      53.870  33.068  54.296  0.00  0.00     0.116 A 
ATOM      8  C   UNL d   1      53.557  33.825  54.221  0.00  0.00     0.026 A 
ATOM      9  C   UNL d   1      51.853  34.836  53.286  0.00  0.00     0.082 A 
ATOM     10  C   UNL d   1      52.554  34.711  53.720  0.00  0.00     0.019 A 
ENDROOT
BRANCH   1  11
ATOM     11  C   UNL d   1      50.770  34.308  52.494  0.00  0.00     0.209 C 
ATOM     12  S   UNL d   1      50.680  33.955  51.754  0.00  0.00    -0.038 SA
BRANCH  11  13
ATOM     13  N   UNL d   1      50.170  34.779  52.806  0.00  0.00    -0.180 NA
ATOM     14  C   UNL d   1      49.451  34.846  52.406  0.00  0.00     0.281 C 
ATOM     15  O   UNL d   1      49.335  34.441  51.697  0.00  0.00    -0.265 OA
BRANCH  14  16
ATOM     16  C   UNL d   1      48.850  35.321  52.721  0.00  0.00     0.058 A 
ATOM     17  C   UNL d   1      48.261  35.610  52.226  0.00  0.00     0.005 A 
ATOM     18  C   UNL d   1      47.662  36.082  52.533  0.00  0.00     0.000 A 
ATOM     19  C   UNL d   1      47.655  36.263  53.338  0.00  0.00     0.000 A 
ATOM     20  C   UNL d   1      48.251  35.968  53.835  0.00  0.00     0.000 A 
ATOM     21  C   UNL d   1      48.851  35.495  53.520  0.00  0.00     0.005 A 
ENDBRANCH  14  16
ENDBRANCH  11  13
ENDBRANCH   1  11
BRANCH   6  22
ATOM     22  O   UNL d   1      53.803  31.670  54.017  0.00  0.00    -0.326 OA
ATOM     23  C   UNL d   1      53.465  31.040  53.604  0.00  0.00     0.181 C 
ENDBRANCH   6  22
BRANCH   7  24
ATOM     24  O   UNL d   1      54.567  32.946  54.728  0.00  0.00    -0.326 OA
ATOM     25  C   UNL d   1      54.918  33.571  55.131  0.00  0.00     0.181 C 
ENDBRANCH   7  24
TORSDOF 5
ENDMDL
MODEL 2
REMARK VINA RESULT:      -8.2      1.226      5.400
REMARK  5 active torsions:
REMARK  status: ('A' for Active; 'I' for Inactive)
REMARK    1  A    between atoms: N_2  and  C_1 
REMARK    2  A    between atoms: N_3  and  C_1 
REMARK       I    between atoms: C_4  and  N_2 
REMARK    3  A    between atoms: C_15  and  C_4 
REMARK    4  A    between atoms: O_17  and  C_9 
REMARK    5  A    between atoms: O_18  and  C_10 
ROOT
ATOM      1  N   UNL d   1      51.138  34.171  52.659  0.00  0.00    -0.281 N 
ATOM      2  C   UNL d   1      49.845  34.790  52.767  0.00  0.00     0.020 A 
ATOM      3  C   UNL d   1      50.565  34.567  53.105  0.00  0.00     0.082 A 
ATOM      4  C   UNL d   1      49.698  34.612  51.967  0.00  0.00     0.005 A 
ATOM      5  C   UNL d   1      49.271  35.184  53.205  0.00  0.00     0.028 A 
ATOM      6  C   UNL d   1      48.557  35.402  52.859  0.00  0.00     0.116 A 
ATOM      7  C   UNL d   1      48.412  35.226  52.066  0.00  0.00     0.116 A 
ATOM      8  C   UNL d   1      48.980  34.833  51.621  0.00  0.00     0.026 A 
ATOM      9  C   UNL d   1      50.990  33.993  51.854  0.00  0.00     0.082 A 
ATOM     10  C   UNL d   1      50.265  34.216  51.509  0.00  0.00     0.019 A 
ENDROOT
BRANCH   1  11
ATOM     11  C   UNL d   1      51.858  33.950  53.005  0.00  0.00     0.209 C 
ATOM     12  S   UNL d   1      52.383  34.530  53.265  0.00  0.00    -0.038 SA
BRANCH  11  13
ATOM     13  N   UNL d   1      52.047  33.151  53.086  0.00  0.00    -0.180 NA
ATOM     14  C   UNL d   1      52.831  32.926  53.218  0.00  0.00     0.281 C 
ATOM     15  O   UNL d   1      53.421  33.501  53.267  0.00  0.00    -0.265 OA
BRANCH  14  16
ATOM     16  C   UNL d   1      53.018  32.124  53.299  0.00  0.00     0.058 A 
ATOM     17  C   UNL d   1      52.613  31.567  52.849  0.00  0.00     0.005 A 
ATOM     18  C   UNL d   1      52.794  30.768  52.926  0.00  0.00     0.000 A 
ATOM     19  C   UNL d   1      53.382  30.530  53.454  0.00  0.00     0.000 A 
ATOM     20  C   UNL d   1      53.789  31.096  53.906  0.00  0.00     0.000 A 
ATOM     21  C   UNL d   1      53.602  31.897  53.824  0.00  0.00     0.005 A 
ENDBRANCH  14  16
ENDBRANCH  11  13
ENDBRANCH   1  11
BRANCH   6  22
ATOM     22  O   UNL d   1      47.989  35.795  53.305  0.00  0.00    -0.326 OA
ATOM     23  C   UNL d   1      48.214  36.241  53.962  0.00  0.00     0.181 C 
ENDBRANCH   6  22
BRANCH   7  24
ATOM     24  O   UNL d   1      47.691  35.448  51.721  0.00  0.00    -0.326 OA
ATOM     25  C   UNL d   1      47.494  35.181  50.968  0.00  0.00     0.181 C 
ENDBRANCH   7  24
TORSDOF 5
ENDMDL
MODEL 3
REMARK VINA RESULT:      -7.8      2.172      5.392
REMARK  5 active torsions:
REMARK  status: ('A' for Active; 'I' for Inactive)
REMARK    1  A    between atoms: N_2  and  C_1 
REMARK    2  A    between atoms: N_3  and  C_1 
REMARK       I    between atoms: C_4  and  N_2 
REMARK    3  A    between atoms: C_15  and  C_4 
REMARK    4  A    between atoms: O_17  and  C_9 
REMARK    5  A    between atoms: O_18  and  C_10 
ROOT
ATOM      1  N   UNL d   1      53.226  31.944  53.351  0.00  0.00    -0.281 N 
ATOM      2  C   UNL d   1      52.555  33.214  53.393  0.00  0.00     0.020 A 
ATOM      3  C   UNL d   1      52.558  32.409  53.208  0.00  0.00     0.082 A 
ATOM      4  C   UNL d   1      53.235  33.558  53.727  0.00  0.00     0.005 A 
ATOM      5  C   UNL d   1      51.893  33.682  53.252  0.00  0.00     0.028 A 
ATOM      6  C   UNL d   1      51.900  34.483  53.440  0.00  0.00     0.116 A 
ATOM      7  C   UNL d   1      52.574  34.824  53.771  0.00  0.00     0.116 A 
ATOM      8  C   UNL d   1      53.240  34.363  53.915  0.00  0.00     0.026 A 
ATOM      9  C   UNL d   1      53.910  32.290  53.688  0.00  0.00     0.082 A 
ATOM     10  C   UNL d   1      53.911  33.102  53.876  0.00  0.00     0.019 A 
ENDROOT
BRANCH   1  11
ATOM     11  C   UNL d   1      53.222  31.136  53.164  0.00  0.00     0.209 C 
ATOM     12  S   UNL d   1      53.030  30.894  52.399  0.00  0.00    -0.038 SA
BRANCH  11  13
ATOM     13  N   UNL d   1      53.411  30.579  53.741  0.00  0.00    -0.180 NA
ATOM     14  C   UNL d   1      53.044  29.838  53.733  0.00  0.00     0.281 C 
ATOM     15  O   UNL d   1      52.492  29.660  53.146  0.00  0.00    -0.265 OA
BRANCH  14  16
ATOM     16  C   UNL d   1      53.235  29.281  54.314  0.00  0.00     0.058 A 
ATOM     17  C   UNL d   1      52.941  29.375  55.076  0.00  0.00     0.005 A 
ATOM     18  C   UNL d   1      53.128  28.824  55.658  0.00  0.00     0.000 A 
ATOM     19  C   UNL d   1      53.608  28.180  55.473  0.00  0.00     0.000 A 
ATOM     20  C   UNL d   1      53.903  28.088  54.702  0.00  0.00     0.000 A 
ATOM     21  C   UNL d   1      53.712  28.646  54.122  0.00  0.00     0.005 A 
ENDBRANCH  14  16
ENDBRANCH  11  13
ENDBRANCH   1  11
BRANCH   6  22
ATOM     22  O   UNL d   1      51.234  34.944  53.296  0.00  0.00    -0.326 OA
ATOM     23  C   UNL d   1      50.568  34.609  52.943  0.00  0.00     0.181 C 
ENDBRANCH   6  22
BRANCH   7  24
ATOM     24  O   UNL d   1      52.578  35.632  53.959  0.00  0.00    -0.326 OA
ATOM     25  C   UNL d   1      53.084  35.919  54.540  0.00  0.00     0.181 C 
ENDBRANCH   7  24
TORSDOF 5
ENDMDL
MODEL 4
REMARK VINA RESULT:      -7.3      1.777      2.961
REMARK  5 active torsions:
REMARK  status: ('A' for Active; 'I' for Inactive)
REMARK    1  A    between atoms: N_2  and  C_1 
REMARK    2  A    between atoms: N_3  and  C_1 
REMARK       I    between atoms: C_4  and  N_2 
REMARK    3  A    between atoms: C_15  and  C_4 
REMARK    4  A    between atoms: O_17  and  C_9 
REMARK    5  A    between atoms: O_18  and  C_10 
ROOT
ATOM      1  N   UNL d   1      53.037  32.585  53.499  0.00  0.00    -0.281 N 
ATOM      2  C   UNL d   1      52.938  31.152  53.461  0.00  0.00     0.020 A 
ATOM      3  C   UNL d   1      52.731  31.894  53.163  0.00  0.00     0.082 A 
ATOM      4  C   UNL d   1      53.462  31.103  54.107  0.00  0.00     0.005 A 
ATOM      5  C   UNL d   1      52.637  30.460  53.132  0.00  0.00     0.028 A 
ATOM      6  C   UNL d   1      52.850  29.726  53.436  0.00  0.00     0.116 A 
ATOM      7  C   UNL d   1      53.369  29.678  54.076  0.00  0.00     0.116 A 
ATOM      8  C   UNL d   1      53.674  30.364  54.411  0.00  0.00     0.026 A 
ATOM      9  C   UNL d   1      53.563  32.536  54.148  0.00  0.00     0.082 A 
ATOM     10  C   UNL d   1      53.775  31.789  54.451  0.00  0.00     0.019 A 
ENDROOT
BRANCH   1  11
ATOM     11  C   UNL d   1      52.825  33.327  53.195  0.00  0.00     0.209 C 
ATOM     12  S   UNL d   1      53.376  33.941  53.190  0.00  0.00    -0.038 SA
BRANCH  11  13
ATOM     13  N   UNL d   1      52.065  33.449  52.900  0.00  0.00    -0.180 NA
ATOM     14  C   UNL d   1      51.759  34.215  52.856  0.00  0.00     0.281 C 
ATOM     15  O   UNL d   1      52.215  34.855  53.108  0.00  0.00    -0.265 OA
BRANCH  14  16
ATOM     16  C   UNL d   1      50.996  34.334  52.559  0.00  0.00     0.058 A 
ATOM     17  C   UNL d   1      50.398  34.579  53.068  0.00  0.00     0.005 A 
ATOM     18  C   UNL d   1      49.637  34.700  52.779  0.00  0.00     0.000 A 
ATOM     19  C   UNL d   1      49.478  34.574  51.979  0.00  0.00     0.000 A 
ATOM     20  C   UNL d   1      50.085  34.326  51.469  0.00  0.00     0.000 A 
ATOM     21  C   UNL d   1      50.847  34.207  51.766  0.00  0.00     0.005 A 
ENDBRANCH  14  16
ENDBRANCH  11  13
ENDBRANCH   1  11
BRANCH   6  22
ATOM     22  O   UNL d   1      52.544  29.039  53.101  0.00  0.00    -0.326 OA
ATOM     23  C   UNL d   1      52.321  29.031  52.306  0.00  0.00     0.181 C 
ENDBRANCH   6  22
BRANCH   7  24
ATOM     24  O   UNL d   1      53.581  28.935  54.379  0.00  0.00    -0.326 OA
ATOM     25  C   UNL d   1      53.519  28.786  55.186  0.00  0.00     0.181 C 
ENDBRANCH   7  24
TORSDOF 5
ENDMDL
MODEL 5
REMARK VINA RESULT:      -7.1      1.451      5.438
REMARK  5 active torsions:
REMARK  status: ('A' for Active; 'I' for Inactive)
REMARK    1  A    between atoms: N_2  and  C_1 
REMARK    2  A    between atoms: N_3  and  C_1 
REMARK       I    between atoms: C_4  and  N_2 
REMARK    3  A    between atoms: C_15  and  C_4 
REMARK    4  A    between atoms: O_17  and  C_9 
REMARK    5  A    between atoms: O_18  and  C_10 
ROOT
ATOM      1  N   UNL d   1      49.864  34.490  52.407  0.00  0.00    -0.281 N 
ATOM      2  C   UNL d   1      48.797  35.345  52.852  0.00  0.00     0.020 A 
ATOM      3  C   UNL d   1      49.496  34.931  53.002  0.00  0.00     0.082 A 
ATOM      4  C   UNL d   1      48.462  35.315  52.089  0.00  0.00     0.005 A 
ATOM      5  C   UNL d   1      48.426  35.786  53.439  0.00  0.00     0.028 A 
ATOM      6  C   UNL d   1      47.731  36.195  53.279  0.00  0.00     0.116 A 
ATOM      7  C   UNL d   1      47.399  36.165  52.524  0.00  0.00     0.116 A 
ATOM      8  C   UNL d   1      47.763  35.727  51.931  0.00  0.00     0.026 A 
ATOM      9  C   UNL d   1      49.527  34.460  51.642  0.00  0.00     0.082 A 
ATOM     10  C   UNL d   1      48.822  34.877  51.485  0.00  0.00     0.019 A 
ENDROOT
BRANCH   1  11
ATOM     11  C   UNL d   1      50.565  34.077  52.565  0.00  0.00     0.209 C 
ATOM     12  S   UNL d   1      50.713  33.360  52.183  0.00  0.00    -0.038 SA
BRANCH  11  13
ATOM     13  N   UNL d   1      51.111  34.382  53.103  0.00  0.00    -0.180 NA
ATOM     14  C   UNL d   1      51.863  34.045  53.161  0.00  0.00     0.281 C 
ATOM     15  O   UNL d   1      52.064  33.405  52.682  0.00  0.00    -0.265 OA
BRANCH  14  16
ATOM     16  C   UNL d   1      52.408  34.354  53.701  0.00  0.00     0.058 A 
ATOM     17  C   UNL d   1      52.711  33.869  54.292  0.00  0.00     0.005 A 
ATOM     18  C   UNL d   1      53.253  34.170  54.832  0.00  0.00     0.000 A 
ATOM     19  C   UNL d   1      53.491  34.958  54.778  0.00  0.00     0.000 A 
ATOM     20  C   UNL d   1      53.183  35.444  54.179  0.00  0.00     0.000 A 
ATOM     21  C   UNL d   1      52.638  35.135  53.640  0.00  0.00     0.005 A 
ENDBRANCH  14  16
ENDBRANCH  11  13
ENDBRANCH   1  11
BRANCH   6  22
ATOM     22  O   UNL d   1      47.366  36.633  53.872  0.00  0.00    -0.326 OA
ATOM     23  C   UNL d   1      47.727  36.709  54.610  0.00  0.00     0.181 C 
ENDBRANCH   6  22
BRANCH   7  24
ATOM     24  O   UNL d   1      46.697  36.579  52.366  0.00  0.00    -0.326 OA
ATOM     25  C   UNL d   1      46.187  36.317  51.776  0.00  0.00     0.181 C 
ENDBRANCH   7  24
TORSDOF 5
ENDMDL
MODEL 6
REMARK VINA RESULT:      -7.0      1.024      5.225
REMARK  5 active torsions:
REMARK  status: ('A' for Active; 'I' for Inactive)
REMARK    1  A    between atoms: N_2  and  C_1 
REMARK    2  A    between atoms: N_3  and  C_1 
REMARK       I    between atoms: C_4  and  N_2 
REMARK    3  A    between atoms: C_15  and  C_4 
REMARK    4  A    between atoms: O_17  and  C_9 
REMARK    5  A    between atoms: O_18  and  C_10 
ROOT
ATOM      1  N   UNL d   1      51.306  33.843  53.120  0.00  0.00    -0.281 N 
ATOM      2  C   UNL d   1      50.129  34.360  52.477  0.00  0.00     0.020 A 
ATOM      3  C   UNL d   1      50.805  33.886  52.463  0.00  0.00     0.082 A 
ATOM      4  C   UNL d   1      49.953  34.799  53.163  0.00  0.00     0.005 A 
ATOM      5  C   UNL d   1      49.627  34.408  51.827  0.00  0.00     0.028 A 
ATOM      6  C   UNL d   1      48.956  34.883  51.851  0.00  0.00     0.116 A 
ATOM      7  C   UNL d   1      48.781  35.317  52.530  0.00  0.00     0.116 A 
ATOM      8  C   UNL d   1      49.278  35.276  53.184  0.00  0.00     0.026 A 
ATOM      9  C   UNL d   1      51.128  34.284  53.809  0.00  0.00     0.082 A 
ATOM     10  C   UNL d   1      50.447  34.764  53.827  0.00  0.00     0.019 A 
ENDROOT
BRANCH   1  11
ATOM     11  C   UNL d   1      51.983  33.365  53.100  0.00  0.00     0.209 C 
ATOM     12  S   UNL d   1      52.014  32.718  52.588  0.00  0.00    -0.038 SA
BRANCH  11  13
ATOM     13  N   UNL d   1      52.623  33.537  53.591  0.00  0.00    -0.180 NA
ATOM     14  C   UNL d   1      53.202  32.963  53.727  0.00  0.00     0.281 C 
ATOM     15  O   UNL d   1      53.137  32.221  53.373  0.00  0.00    -0.265 OA
BRANCH  14  16
ATOM     16  C   UNL d   1      53.843  33.139  54.220  0.00  0.00     0.058 A 
ATOM     17  C   UNL d   1      54.497  33.529  53.909  0.00  0.00     0.005 A 
ATOM     18  C   UNL d   1      55.137  33.707  54.394  0.00  0.00     0.000 A 
ATOM     19  C   UNL d   1      55.120  33.492  55.191  0.00  0.00     0.000 A 
ATOM     20  C   UNL d   1      54.458  33.098  55.500  0.00  0.00     0.000 A 
ATOM     21  C   UNL d   1      53.817  32.923  55.008  0.00  0.00     0.005 A 
ENDBRANCH  14  16
ENDBRANCH  11  13
ENDBRANCH   1  11
BRANCH   6  22
ATOM     22  O   UNL d   1      48.460  34.924  51.196  0.00  0.00    -0.326 OA
ATOM     23  C   UNL d   1      48.414  34.289  50.672  0.00  0.00     0.181 C 
ENDBRANCH   6  22
BRANCH   7  24
ATOM     24  O   UNL d   1      48.104  35.795  52.550  0.00  0.00    -0.326 OA
ATOM     25  C   UNL d   1      47.924  36.229  53.225  0.00  0.00     0.181 C 
ENDBRANCH   7  24
TORSDOF 5
ENDMDL
MODEL 7
REMARK VINA RESULT:      -6.2     10.451     11.366
REMARK  5 active torsions:
REMARK  status: ('A' for Active; 'I' for Inactive)
REMARK    1  A    between atoms: N_2  and  C_1 
REMARK    2  A    between atoms: N_3  and  C_1 
REMARK       I    between atoms: C_4  and  N_2 
REMARK    3  A    between atoms: C_15  and  C_4 
REMARK    4  A    between atoms: O_17  and  C_9 
REMARK    5  A    between atoms: O_18  and  C_10 
ROOT
ATOM      1  N   UNL d   1      44.742  29.956  59.620  0.00  0.00    -0.281 N 
ATOM      2  C   UNL d   1      44.574  29.791  61.037  0.00  0.00     0.020 A 
ATOM      3  C   UNL d   1      44.649  29.468  60.281  0.00  0.00     0.082 A 
ATOM      4  C   UNL d   1      44.593  30.618  61.131  0.00  0.00     0.005 A 
ATOM      5  C   UNL d   1      44.481  29.311  61.699  0.00  0.00     0.028 A 
ATOM      6  C   UNL d   1      44.407  29.642  62.449  0.00  0.00     0.116 A 
ATOM      7  C   UNL d   1      44.426  30.461  62.542  0.00  0.00     0.116 A 
ATOM      8  C   UNL d   1      44.518  30.949  61.886  0.00  0.00     0.026 A 
ATOM      9  C   UNL d   1      44.761  30.788  59.714  0.00  0.00     0.082 A 
ATOM     10  C   UNL d   1      44.686  31.117  60.477  0.00  0.00     0.019 A 
ENDROOT
BRANCH   1  11
ATOM     11  C   UNL d   1      44.817  29.626  58.862  0.00  0.00     0.209 C 
ATOM     12  S   UNL d   1      44.938  30.118  58.211  0.00  0.00    -0.038 SA
BRANCH  11  13
ATOM     13  N   UNL d   1      44.769  28.809  58.763  0.00  0.00    -0.180 NA
ATOM     14  C   UNL d   1      44.981  28.470  58.040  0.00  0.00     0.281 C 
ATOM     15  O   UNL d   1      45.237  28.950  57.420  0.00  0.00    -0.265 OA
BRANCH  14  16
ATOM     16  C   UNL d   1      44.932  27.650  57.944  0.00  0.00     0.058 A 
ATOM     17  C   UNL d   1      45.456  27.163  58.351  0.00  0.00     0.005 A 
ATOM     18  C   UNL d   1      45.412  26.347  58.259  0.00  0.00     0.000 A 
ATOM     19  C   UNL d   1      44.844  26.020  57.758  0.00  0.00     0.000 A 
ATOM     20  C   UNL d   1      44.318  26.515  57.349  0.00  0.00     0.000 A 
ATOM     21  C   UNL d   1      44.366  27.335  57.446  0.00  0.00     0.005 A 
ENDBRANCH  14  16
ENDBRANCH  11  13
ENDBRANCH   1  11
BRANCH   6  22
ATOM     22  O   UNL d   1      44.315  29.154  63.105  0.00  0.00    -0.326 OA
ATOM     23  C   UNL d   1      44.422  28.340  63.033  0.00  0.00     0.181 C 
ENDBRANCH   6  22
BRANCH   7  24
ATOM     24  O   UNL d   1      44.351  30.791  63.299  0.00  0.00    -0.326 OA
ATOM     25  C   UNL d   1      44.336  31.608  63.394  0.00  0.00     0.181 C 
ENDBRANCH   7  24
TORSDOF 5
ENDMDL
MODEL 8
REMARK VINA RESULT:      -6.1     10.248     11.225
REMARK  5 active torsions:
REMARK  status: ('A' for Active; 'I' for Inactive)
REMARK    1  A    between atoms: N_2  and  C_1 
REMARK    2  A    between atoms: N_3  and  C_1 
REMARK       I    between atoms: C_4  and  N_2 
REMARK    3  A    between atoms: C_15  and  C_4 
REMARK    4  A    between atoms: O_17  and  C_9 
REMARK    5  A    between atoms: O_18  and  C_10 
ROOT
ATOM      1  N   UNL d   1      44.580  30.385  59.998  0.00  0.00    -0.281 N 
ATOM      2  C   UNL d   1      44.837  29.521  58.878  0.00  0.00     0.020 A 
ATOM      3  C   UNL d   1      44.765  29.639  59.692  0.00  0.00     0.082 A 
ATOM      4  C   UNL d   1      44.721  30.164  58.362  0.00  0.00     0.005 A 
ATOM      5  C   UNL d   1      45.021  28.782  58.568  0.00  0.00     0.028 A 
ATOM      6  C   UNL d   1      45.090  28.675  57.755  0.00  0.00     0.116 A 
ATOM      7  C   UNL d   1      44.975  29.312  57.243  0.00  0.00     0.116 A 
ATOM      8  C   UNL d   1      44.790  30.055  57.545  0.00  0.00     0.026 A 
ATOM      9  C   UNL d   1      44.463  31.031  59.479  0.00  0.00     0.082 A 
ATOM     10  C   UNL d   1      44.535  30.916  58.656  0.00  0.00     0.019 A 
ENDROOT
BRANCH   1  11
ATOM     11  C   UNL d   1      44.510  30.496  60.817  0.00  0.00     0.209 C 
ATOM     12  S   UNL d   1      44.423  31.258  61.121  0.00  0.00    -0.038 SA
BRANCH  11  13
ATOM     13  N   UNL d   1      44.527  29.846  61.324  0.00  0.00    -0.180 NA
ATOM     14  C   UNL d   1      44.498  29.961  62.141  0.00  0.00     0.281 C 
ATOM     15  O   UNL d   1      44.453  30.726  62.447  0.00  0.00    -0.265 OA
BRANCH  14  16
ATOM     16  C   UNL d   1      44.516  29.307  62.647  0.00  0.00     0.058 A 
ATOM     17  C   UNL d   1      44.736  28.572  62.350  0.00  0.00     0.005 A 
ATOM     18  C   UNL d   1      44.755  27.918  62.849  0.00  0.00     0.000 A 
ATOM     19  C   UNL d   1      44.553  28.002  63.644  0.00  0.00     0.000 A 
ATOM     20  C   UNL d   1      44.331  28.746  63.940  0.00  0.00     0.000 A 
ATOM     21  C   UNL d   1      44.314  29.400  63.434  0.00  0.00     0.005 A 
ENDBRANCH  14  16
ENDBRANCH  11  13
ENDBRANCH   1  11
BRANCH   6  22
ATOM     22  O   UNL d   1      45.274  27.932  57.453  0.00  0.00    -0.326 OA
ATOM     23  C   UNL d   1      45.423  27.303  57.966  0.00  0.00     0.181 C 
ENDBRANCH   6  22
BRANCH   7  24
ATOM     24  O   UNL d   1      45.045  29.200  56.424  0.00  0.00    -0.326 OA
ATOM     25  C   UNL d   1      44.805  29.791  55.905  0.00  0.00     0.181 C 
ENDBRANCH   7  24
TORSDOF 5
ENDMDL
MODEL 9
REMARK VINA RESULT:      -6.0      9.932     10.700
REMARK  5 active torsions:
REMARK  status: ('A' for Active; 'I' for Inactive)
REMARK    1  A    between atoms: N_2  and  C_1 
REMARK    2  A    between atoms: N_3  and  C_1 
REMARK       I    between atoms: C_4  and  N_2 
REMARK    3  A    between atoms: C_15  and  C_4 
REMARK    4  A    between atoms: O_17  and  C_9 
REMARK    5  A    between atoms: O_18  and  C_10 
ROOT
ATOM      1  N   UNL d   1      44.851  29.580  58.483  0.00  0.00    -0.281 N 
ATOM      2  C   UNL d   1      44.962  28.165  58.257  0.00  0.00     0.020 A 
ATOM      3  C   UNL d   1      44.905  28.807  58.773  0.00  0.00     0.082 A 
ATOM      4  C   UNL d   1      44.966  28.301  57.436  0.00  0.00     0.005 A 
ATOM      5  C   UNL d   1      45.016  27.394  58.540  0.00  0.00     0.028 A 
ATOM      6  C   UNL d   1      45.072  26.761  58.018  0.00  0.00     0.116 A 
ATOM      7  C   UNL d   1      45.076  26.895  57.204  0.00  0.00     0.116 A 
ATOM      8  C   UNL d   1      45.023  27.663  56.913  0.00  0.00     0.026 A 
ATOM      9  C   UNL d   1      44.855  29.717  57.657  0.00  0.00     0.082 A 
ATOM     10  C   UNL d   1      44.913  29.071  57.133  0.00  0.00     0.019 A 
ENDROOT
BRANCH   1  11
ATOM     11  C   UNL d   1      44.794  30.221  59.006  0.00  0.00     0.209 C 
ATOM     12  S   UNL d   1      44.748  30.989  58.709  0.00  0.00    -0.038 SA
BRANCH  11  13
ATOM     13  N   UNL d   1      44.783  30.088  59.820  0.00  0.00    -0.180 NA
ATOM     14  C   UNL d   1      44.681  30.723  60.338  0.00  0.00     0.281 C 
ATOM     15  O   UNL d   1      44.591  31.487  60.040  0.00  0.00    -0.265 OA
BRANCH  14  16
ATOM     16  C   UNL d   1      44.670  30.587  61.154  0.00  0.00     0.058 A 
ATOM     17  C   UNL d   1      45.007  29.899  61.454  0.00  0.00     0.005 A 
ATOM     18  C   UNL d   1      44.999  29.758  62.264  0.00  0.00     0.000 A 
ATOM     19  C   UNL d   1      44.653  30.308  62.773  0.00  0.00     0.000 A 
ATOM     20  C   UNL d   1      44.314  31.001  62.466  0.00  0.00     0.000 A 
ATOM     21  C   UNL d   1      44.325  31.137  61.651  0.00  0.00     0.005 A 
ENDBRANCH  14  16
ENDBRANCH  11  13
ENDBRANCH   1  11
BRANCH   6  22
ATOM     22  O   UNL d   1      45.126  25.993  58.308  0.00  0.00    -0.326 OA
ATOM     23  C   UNL d   1      44.670  25.765  58.957  0.00  0.00     0.181 C 
ENDBRANCH   6  22
BRANCH   7  24
ATOM     24  O   UNL d   1      45.134  26.254  56.680  0.00  0.00    -0.326 OA
ATOM     25  C   UNL d   1      44.734  26.270  55.961  0.00  0.00     0.181 C 
ENDBRANCH   7  24
TORSDOF 5
ENDMDL
