MODEL 1
REMARK VINA RESULT:      -6.9      0.000      0.000
REMARK  5 active torsions:
REMARK  status: ('A' for Active; 'I' for Inactive)
REMARK    1  A    between atoms: N_2  and  C_7 
REMARK    2  A    between atoms: N_8  and  C_3 
REMARK    3  A    between atoms: C_11  and  C_4 
REMARK    4  A    between atoms: N_9  and  N_8 
REMARK    5  A    between atoms: C_17  and  N_9 
ROOT
ATOM      1  N   UNL d   1     -48.769  13.147  23.341  0.00  0.00    -0.219 NA
ATOM      2  C   UNL d   1     -49.592  13.118  23.451  0.00  0.00     0.215 A 
ATOM      3  C   UNL d   1     -48.468  12.377  23.497  0.00  0.00     0.090 A 
ATOM      4  S   UNL d   1     -49.788  12.359  23.666  0.00  0.00    -0.045 SA
ATOM      5  C   UNL d   1     -49.097  11.899  23.695  0.00  0.00     0.058 A 
ENDROOT
BRANCH   3   6
ATOM      6  C   UNL d   1     -47.657  12.185  23.444  0.00  0.00     0.018 A 
ATOM      7  C   UNL d   1     -47.125  12.729  23.138  0.00  0.00     0.003 A 
ATOM      8  C   UNL d   1     -46.341  12.553  23.083  0.00  0.00     0.024 A 
ATOM      9  C   UNL d   1     -46.068  11.810  23.339  0.00  0.00     0.127 A 
ATOM     10  C   UNL d   1     -46.589  11.269  23.642  0.00  0.00     0.024 A 
ATOM     11  C   UNL d   1     -47.411  11.458  23.698  0.00  0.00     0.003 A 
BRANCH   9  12
ATOM     12  N   UNL d   1     -45.279  11.617  23.290  0.00  0.00    -0.114 N 
ATOM     13  O   UNL d   1     -44.927  10.984  23.673  0.00  0.00    -0.532 OA
ATOM     14  O   UNL d   1     -44.751  12.038  22.850  0.00  0.00    -0.532 OA
ENDBRANCH   9  12
ENDBRANCH   3   6
BRANCH   2  15
ATOM     15  N   UNL d   1     -50.151  13.739  23.365  0.00  0.00    -0.122 NA
BRANCH  15  16
ATOM     16  N   UNL d   1     -49.883  14.484  23.116  0.00  0.00    -0.146 NA
BRANCH  16  17
ATOM     17  C   UNL d   1     -50.420  15.130  23.128  0.00  0.00     0.103 C 
ATOM     18  C   UNL d   1     -50.314  15.728  23.692  0.00  0.00     0.022 C 
ATOM     19  C   UNL d   1     -51.043  15.167  22.586  0.00  0.00     0.022 C 
ENDBRANCH  16  17
ENDBRANCH  15  16
ENDBRANCH   2  15
TORSDOF 5
ENDMDL
MODEL 2
REMARK VINA RESULT:      -6.7      1.224      1.633
REMARK  5 active torsions:
REMARK  status: ('A' for Active; 'I' for Inactive)
REMARK    1  A    between atoms: N_2  and  C_7 
REMARK    2  A    between atoms: N_8  and  C_3 
REMARK    3  A    between atoms: C_11  and  C_4 
REMARK    4  A    between atoms: N_9  and  N_8 
REMARK    5  A    between atoms: C_17  and  N_9 
ROOT
ATOM      1  N   UNL d   1     -48.214  13.487  23.015  0.00  0.00    -0.219 NA
ATOM      2  C   UNL d   1     -48.556  14.224  22.847  0.00  0.00     0.215 A 
ATOM      3  C   UNL d   1     -47.380  13.575  22.945  0.00  0.00     0.090 A 
ATOM      4  S   UNL d   1     -47.955  14.745  22.680  0.00  0.00    -0.045 SA
ATOM      5  C   UNL d   1     -47.228  14.348  22.740  0.00  0.00     0.058 A 
ENDROOT
BRANCH   3   6
ATOM      6  C   UNL d   1     -46.842  12.949  23.074  0.00  0.00     0.018 A 
ATOM      7  C   UNL d   1     -47.056  12.316  23.551  0.00  0.00     0.003 A 
ATOM      8  C   UNL d   1     -46.544  11.708  23.681  0.00  0.00     0.024 A 
ATOM      9  C   UNL d   1     -45.791  11.722  23.328  0.00  0.00     0.127 A 
ATOM     10  C   UNL d   1     -45.576  12.345  22.857  0.00  0.00     0.024 A 
ATOM     11  C   UNL d   1     -46.115  12.980  22.723  0.00  0.00     0.003 A 
BRANCH   9  12
ATOM     12  N   UNL d   1     -45.263  11.115  23.450  0.00  0.00    -0.114 N 
ATOM     13  O   UNL d   1     -45.466  10.360  23.698  0.00  0.00    -0.532 OA
ATOM     14  O   UNL d   1     -44.469  11.194  23.338  0.00  0.00    -0.532 OA
ENDBRANCH   9  12
ENDBRANCH   3   6
BRANCH   2  15
ATOM     15  N   UNL d   1     -49.370  14.431  22.840  0.00  0.00    -0.122 NA
BRANCH  15  16
ATOM     16  N   UNL d   1     -49.835  14.199  22.192  0.00  0.00    -0.146 NA
BRANCH  16  17
ATOM     17  C   UNL d   1     -50.651  14.398  22.189  0.00  0.00     0.103 C 
ATOM     18  C   UNL d   1     -51.064  14.382  21.471  0.00  0.00     0.022 C 
ATOM     19  C   UNL d   1     -51.033  14.607  22.891  0.00  0.00     0.022 C 
ENDBRANCH  16  17
ENDBRANCH  15  16
ENDBRANCH   2  15
TORSDOF 5
ENDMDL
MODEL 3
REMARK VINA RESULT:      -6.5      0.795      1.348
REMARK  5 active torsions:
REMARK  status: ('A' for Active; 'I' for Inactive)
REMARK    1  A    between atoms: N_2  and  C_7 
REMARK    2  A    between atoms: N_8  and  C_3 
REMARK    3  A    between atoms: C_11  and  C_4 
REMARK    4  A    between atoms: N_9  and  N_8 
REMARK    5  A    between atoms: C_17  and  N_9 
ROOT
ATOM      1  N   UNL d   1     -48.395  13.589  23.031  0.00  0.00    -0.219 NA
ATOM      2  C   UNL d   1     -49.177  13.410  23.246  0.00  0.00     0.215 A 
ATOM      3  C   UNL d   1     -47.961  12.868  23.037  0.00  0.00     0.090 A 
ATOM      4  S   UNL d   1     -49.221  12.609  23.380  0.00  0.00    -0.045 SA
ATOM      5  C   UNL d   1     -48.473  12.272  23.252  0.00  0.00     0.058 A 
ENDROOT
BRANCH   3   6
ATOM      6  C   UNL d   1     -47.149  12.823  22.849  0.00  0.00     0.018 A 
ATOM      7  C   UNL d   1     -46.663  12.296  23.249  0.00  0.00     0.003 A 
ATOM      8  C   UNL d   1     -45.879  12.245  23.074  0.00  0.00     0.024 A 
ATOM      9  C   UNL d   1     -45.557  12.733  22.482  0.00  0.00     0.127 A 
ATOM     10  C   UNL d   1     -46.033  13.255  22.084  0.00  0.00     0.024 A 
ATOM     11  C   UNL d   1     -46.855  13.305  22.270  0.00  0.00     0.003 A 
BRANCH   9  12
ATOM     12  N   UNL d   1     -44.766  12.694  22.294  0.00  0.00    -0.114 N 
ATOM     13  O   UNL d   1     -44.368  13.239  21.831  0.00  0.00    -0.532 OA
ATOM     14  O   UNL d   1     -44.284  12.102  22.550  0.00  0.00    -0.532 OA
ENDBRANCH   9  12
ENDBRANCH   3   6
BRANCH   2  15
ATOM     15  N   UNL d   1     -49.830  13.933  23.323  0.00  0.00    -0.122 NA
BRANCH  15  16
ATOM     16  N   UNL d   1     -49.711  14.741  23.171  0.00  0.00    -0.146 NA
BRANCH  16  17
ATOM     17  C   UNL d   1     -50.374  15.258  23.203  0.00  0.00     0.103 C 
ATOM     18  C   UNL d   1     -51.033  15.092  22.729  0.00  0.00     0.022 C 
ATOM     19  C   UNL d   1     -50.365  15.918  23.698  0.00  0.00     0.022 C 
ENDBRANCH  16  17
ENDBRANCH  15  16
ENDBRANCH   2  15
TORSDOF 5
ENDMDL
MODEL 4
REMARK VINA RESULT:      -6.5      2.693      4.578
REMARK  5 active torsions:
REMARK  status: ('A' for Active; 'I' for Inactive)
REMARK    1  A    between atoms: N_2  and  C_7 
REMARK    2  A    between atoms: N_8  and  C_3 
REMARK    3  A    between atoms: C_11  and  C_4 
REMARK    4  A    between atoms: N_9  and  N_8 
REMARK    5  A    between atoms: C_17  and  N_9 
ROOT
ATOM      1  N   UNL d   1     -46.505  12.740  22.760  0.00  0.00    -0.219 NA
ATOM      2  C   UNL d   1     -45.900  13.297  22.646  0.00  0.00     0.215 A 
ATOM      3  C   UNL d   1     -47.232  13.164  22.803  0.00  0.00     0.090 A 
ATOM      4  S   UNL d   1     -46.242  14.034  22.619  0.00  0.00    -0.045 SA
ATOM      5  C   UNL d   1     -47.063  13.955  22.715  0.00  0.00     0.058 A 
ENDROOT
BRANCH   3   6
ATOM      6  C   UNL d   1     -47.971  12.791  22.915  0.00  0.00     0.018 A 
ATOM      7  C   UNL d   1     -48.559  12.866  22.349  0.00  0.00     0.003 A 
ATOM      8  C   UNL d   1     -49.275  12.511  22.448  0.00  0.00     0.024 A 
ATOM      9  C   UNL d   1     -49.418  12.063  23.135  0.00  0.00     0.127 A 
ATOM     10  C   UNL d   1     -48.841  11.987  23.698  0.00  0.00     0.024 A 
ATOM     11  C   UNL d   1     -48.092  12.361  23.589  0.00  0.00     0.003 A 
BRANCH   9  12
ATOM     12  N   UNL d   1     -50.137  11.698  23.251  0.00  0.00    -0.114 N 
ATOM     13  O   UNL d   1     -50.243  10.991  23.651  0.00  0.00    -0.532 OA
ATOM     14  O   UNL d   1     -50.832  12.000  22.978  0.00  0.00    -0.532 OA
ENDBRANCH   9  12
ENDBRANCH   3   6
BRANCH   2  15
ATOM     15  N   UNL d   1     -45.075  13.161  22.568  0.00  0.00    -0.122 NA
BRANCH  15  16
ATOM     16  N   UNL d   1     -44.795  12.803  21.873  0.00  0.00    -0.146 NA
BRANCH  16  17
ATOM     17  C   UNL d   1     -43.977  12.617  21.817  0.00  0.00     0.103 C 
ATOM     18  C   UNL d   1     -43.489  13.094  21.348  0.00  0.00     0.022 C 
ATOM     19  C   UNL d   1     -43.668  11.968  22.224  0.00  0.00     0.022 C 
ENDBRANCH  16  17
ENDBRANCH  15  16
ENDBRANCH   2  15
TORSDOF 5
ENDMDL
MODEL 5
REMARK VINA RESULT:      -6.4      2.819      4.863
REMARK  5 active torsions:
REMARK  status: ('A' for Active; 'I' for Inactive)
REMARK    1  A    between atoms: N_2  and  C_7 
REMARK    2  A    between atoms: N_8  and  C_3 
REMARK    3  A    between atoms: C_11  and  C_4 
REMARK    4  A    between atoms: N_9  and  N_8 
REMARK    5  A    between atoms: C_17  and  N_9 
ROOT
ATOM      1  N   UNL d   1     -46.686  13.677  22.685  0.00  0.00    -0.219 NA
ATOM      2  C   UNL d   1     -46.153  13.073  22.887  0.00  0.00     0.215 A 
ATOM      3  C   UNL d   1     -47.445  13.447  22.968  0.00  0.00     0.090 A 
ATOM      4  S   UNL d   1     -46.569  12.495  23.279  0.00  0.00    -0.045 SA
ATOM      5  C   UNL d   1     -47.366  12.723  23.330  0.00  0.00     0.058 A 
ENDROOT
BRANCH   3   6
ATOM      6  C   UNL d   1     -48.129  13.916  22.869  0.00  0.00     0.018 A 
ATOM      7  C   UNL d   1     -48.059  14.710  22.677  0.00  0.00     0.003 A 
ATOM      8  C   UNL d   1     -48.713  15.169  22.580  0.00  0.00     0.024 A 
ATOM      9  C   UNL d   1     -49.469  14.834  22.676  0.00  0.00     0.127 A 
ATOM     10  C   UNL d   1     -49.543  14.050  22.865  0.00  0.00     0.024 A 
ATOM     11  C   UNL d   1     -48.855  13.571  22.966  0.00  0.00     0.003 A 
BRANCH   9  12
ATOM     12  N   UNL d   1     -50.140  15.285  22.581  0.00  0.00    -0.114 N 
ATOM     13  O   UNL d   1     -50.716  15.154  22.013  0.00  0.00    -0.532 OA
ATOM     14  O   UNL d   1     -50.310  15.921  23.045  0.00  0.00    -0.532 OA
ENDBRANCH   9  12
ENDBRANCH   3   6
BRANCH   2  15
ATOM     15  N   UNL d   1     -45.328  13.032  22.732  0.00  0.00    -0.122 NA
BRANCH  15  16
ATOM     16  N   UNL d   1     -45.077  12.777  21.982  0.00  0.00    -0.146 NA
BRANCH  16  17
ATOM     17  C   UNL d   1     -44.253  12.688  21.843  0.00  0.00     0.103 C 
ATOM     18  C   UNL d   1     -43.844  12.084  22.235  0.00  0.00     0.022 C 
ATOM     19  C   UNL d   1     -43.860  13.195  21.324  0.00  0.00     0.022 C 
ENDBRANCH  16  17
ENDBRANCH  15  16
ENDBRANCH   2  15
TORSDOF 5
ENDMDL
MODEL 6
REMARK VINA RESULT:      -5.5      9.112      9.968
REMARK  5 active torsions:
REMARK  status: ('A' for Active; 'I' for Inactive)
REMARK    1  A    between atoms: N_2  and  C_7 
REMARK    2  A    between atoms: N_8  and  C_3 
REMARK    3  A    between atoms: C_11  and  C_4 
REMARK    4  A    between atoms: N_9  and  N_8 
REMARK    5  A    between atoms: C_17  and  N_9 
ROOT
ATOM      1  N   UNL d   1     -39.586  14.735  20.496  0.00  0.00    -0.219 NA
ATOM      2  C   UNL d   1     -39.607  14.875  21.314  0.00  0.00     0.215 A 
ATOM      3  C   UNL d   1     -40.177  15.219  20.142  0.00  0.00     0.090 A 
ATOM      4  S   UNL d   1     -40.189  15.424  21.457  0.00  0.00    -0.045 SA
ATOM      5  C   UNL d   1     -40.542  15.638  20.737  0.00  0.00     0.058 A 
ENDROOT
BRANCH   3   6
ATOM      6  C   UNL d   1     -40.325  15.231  19.320  0.00  0.00     0.018 A 
ATOM      7  C   UNL d   1     -40.666  14.582  18.955  0.00  0.00     0.003 A 
ATOM      8  C   UNL d   1     -40.813  14.584  18.163  0.00  0.00     0.024 A 
ATOM      9  C   UNL d   1     -40.616  15.255  17.711  0.00  0.00     0.127 A 
ATOM     10  C   UNL d   1     -40.278  15.899  18.068  0.00  0.00     0.024 A 
ATOM     11  C   UNL d   1     -40.126  15.892  18.899  0.00  0.00     0.003 A 
BRANCH   9  12
ATOM     12  N   UNL d   1     -40.757  15.273  16.910  0.00  0.00    -0.114 N 
ATOM     13  O   UNL d   1     -40.186  15.399  16.336  0.00  0.00    -0.532 OA
ATOM     14  O   UNL d   1     -41.490  15.167  16.591  0.00  0.00    -0.532 OA
ENDBRANCH   9  12
ENDBRANCH   3   6
BRANCH   2  15
ATOM     15  N   UNL d   1     -39.130  14.531  21.914  0.00  0.00    -0.122 NA
BRANCH  15  16
ATOM     16  N   UNL d   1     -39.141  13.706  22.007  0.00  0.00    -0.146 NA
BRANCH  16  17
ATOM     17  C   UNL d   1     -38.583  13.352  22.526  0.00  0.00     0.103 C 
ATOM     18  C   UNL d   1     -38.690  13.432  23.344  0.00  0.00     0.022 C 
ATOM     19  C   UNL d   1     -37.940  12.932  22.224  0.00  0.00     0.022 C 
ENDBRANCH  16  17
ENDBRANCH  15  16
ENDBRANCH   2  15
TORSDOF 5
ENDMDL
MODEL 7
REMARK VINA RESULT:      -5.3      1.288      1.700
REMARK  5 active torsions:
REMARK  status: ('A' for Active; 'I' for Inactive)
REMARK    1  A    between atoms: N_2  and  C_7 
REMARK    2  A    between atoms: N_8  and  C_3 
REMARK    3  A    between atoms: C_11  and  C_4 
REMARK    4  A    between atoms: N_9  and  N_8 
REMARK    5  A    between atoms: C_17  and  N_9 
ROOT
ATOM      1  N   UNL d   1     -47.254  12.605  23.278  0.00  0.00    -0.219 NA
ATOM      2  C   UNL d   1     -48.070  12.719  23.379  0.00  0.00     0.215 A 
ATOM      3  C   UNL d   1     -47.085  11.805  23.481  0.00  0.00     0.090 A 
ATOM      4  S   UNL d   1     -48.390  12.016  23.634  0.00  0.00    -0.045 SA
ATOM      5  C   UNL d   1     -47.785  11.451  23.698  0.00  0.00     0.058 A 
ENDROOT
BRANCH   3   6
ATOM      6  C   UNL d   1     -46.316  11.479  23.448  0.00  0.00     0.018 A 
ATOM      7  C   UNL d   1     -45.688  11.934  23.184  0.00  0.00     0.003 A 
ATOM      8  C   UNL d   1     -44.944  11.629  23.149  0.00  0.00     0.024 A 
ATOM      9  C   UNL d   1     -44.812  10.841  23.385  0.00  0.00     0.127 A 
ATOM     10  C   UNL d   1     -45.430  10.388  23.647  0.00  0.00     0.024 A 
ATOM     11  C   UNL d   1     -46.209  10.712  23.681  0.00  0.00     0.003 A 
BRANCH   9  12
ATOM     12  N   UNL d   1     -44.065  10.518  23.356  0.00  0.00    -0.114 N 
ATOM     13  O   UNL d   1     -43.399  10.902  23.073  0.00  0.00    -0.532 OA
ATOM     14  O   UNL d   1     -43.901   9.770  23.607  0.00  0.00    -0.532 OA
ENDBRANCH   9  12
ENDBRANCH   3   6
BRANCH   2  15
ATOM     15  N   UNL d   1     -48.518  13.418  23.251  0.00  0.00    -0.122 NA
BRANCH  15  16
ATOM     16  N   UNL d   1     -48.343  13.887  22.588  0.00  0.00    -0.146 NA
BRANCH  16  17
ATOM     17  C   UNL d   1     -48.873  14.507  22.383  0.00  0.00     0.103 C 
ATOM     18  C   UNL d   1     -48.561  15.235  22.140  0.00  0.00     0.022 C 
ATOM     19  C   UNL d   1     -49.689  14.390  22.424  0.00  0.00     0.022 C 
ENDBRANCH  16  17
ENDBRANCH  15  16
ENDBRANCH   2  15
TORSDOF 5
ENDMDL
MODEL 8
REMARK VINA RESULT:      -4.9      9.558     10.660
REMARK  5 active torsions:
REMARK  status: ('A' for Active; 'I' for Inactive)
REMARK    1  A    between atoms: N_2  and  C_7 
REMARK    2  A    between atoms: N_8  and  C_3 
REMARK    3  A    between atoms: C_11  and  C_4 
REMARK    4  A    between atoms: N_9  and  N_8 
REMARK    5  A    between atoms: C_17  and  N_9 
ROOT
ATOM      1  N   UNL d   1     -39.404  14.416  19.263  0.00  0.00    -0.219 NA
ATOM      2  C   UNL d   1     -39.994  14.495  19.841  0.00  0.00     0.215 A 
ATOM      3  C   UNL d   1     -39.788  14.370  18.515  0.00  0.00     0.090 A 
ATOM      4  S   UNL d   1     -40.714  14.497  19.463  0.00  0.00    -0.045 SA
ATOM      5  C   UNL d   1     -40.590  14.420  18.646  0.00  0.00     0.058 A 
ENDROOT
BRANCH   3   6
ATOM      6  C   UNL d   1     -39.375  14.287  17.794  0.00  0.00     0.018 A 
ATOM      7  C   UNL d   1     -39.232  14.945  17.326  0.00  0.00     0.003 A 
ATOM      8  C   UNL d   1     -38.835  14.875  16.629  0.00  0.00     0.024 A 
ATOM      9  C   UNL d   1     -38.567  14.127  16.381  0.00  0.00     0.127 A 
ATOM     10  C   UNL d   1     -38.706  13.475  16.841  0.00  0.00     0.024 A 
ATOM     11  C   UNL d   1     -39.123  13.552  17.571  0.00  0.00     0.003 A 
BRANCH   9  12
ATOM     12  N   UNL d   1     -38.164  14.040  15.679  0.00  0.00    -0.114 N 
ATOM     13  O   UNL d   1     -37.940  14.658  15.189  0.00  0.00    -0.532 OA
ATOM     14  O   UNL d   1     -37.939  13.324  15.388  0.00  0.00    -0.532 OA
ENDBRANCH   9  12
ENDBRANCH   3   6
BRANCH   2  15
ATOM     15  N   UNL d   1     -39.903  14.563  20.674  0.00  0.00    -0.122 NA
BRANCH  15  16
ATOM     16  N   UNL d   1     -39.215  14.258  21.024  0.00  0.00    -0.146 NA
BRANCH  16  17
ATOM     17  C   UNL d   1     -39.116  14.340  21.855  0.00  0.00     0.103 C 
ATOM     18  C   UNL d   1     -39.078  13.657  22.323  0.00  0.00     0.022 C 
ATOM     19  C   UNL d   1     -39.058  15.089  22.197  0.00  0.00     0.022 C 
ENDBRANCH  16  17
ENDBRANCH  15  16
ENDBRANCH   2  15
TORSDOF 5
ENDMDL
MODEL 9
REMARK VINA RESULT:      -4.3      1.831      2.373
REMARK  5 active torsions:
REMARK  status: ('A' for Active; 'I' for Inactive)
REMARK    1  A    between atoms: N_2  and  C_7 
REMARK    2  A    between atoms: N_8  and  C_3 
REMARK    3  A    between atoms: C_11  and  C_4 
REMARK    4  A    between atoms: N_9  and  N_8 
REMARK    5  A    between atoms: C_17  and  N_9 
ROOT
ATOM      1  N   UNL d   1     -46.957  13.459  22.574  0.00  0.00    -0.219 NA
ATOM      2  C   UNL d   1     -47.594  13.387  23.102  0.00  0.00     0.215 A 
ATOM      3  C   UNL d   1     -46.342  12.957  22.852  0.00  0.00     0.090 A 
ATOM      4  S   UNL d   1     -47.377  12.861  23.683  0.00  0.00    -0.045 SA
ATOM      5  C   UNL d   1     -46.606  12.594  23.532  0.00  0.00     0.058 A 
ENDROOT
BRANCH   3   6
ATOM      6  C   UNL d   1     -45.606  12.879  22.465  0.00  0.00     0.018 A 
ATOM      7  C   UNL d   1     -45.257  13.531  22.112  0.00  0.00     0.003 A 
ATOM      8  C   UNL d   1     -44.548  13.465  21.735  0.00  0.00     0.024 A 
ATOM      9  C   UNL d   1     -44.166  12.727  21.705  0.00  0.00     0.127 A 
ATOM     10  C   UNL d   1     -44.507  12.079  22.052  0.00  0.00     0.024 A 
ATOM     11  C   UNL d   1     -45.251  12.153  22.446  0.00  0.00     0.003 A 
BRANCH   9  12
ATOM     12  N   UNL d   1     -43.449  12.644  21.329  0.00  0.00    -0.114 N 
ATOM     13  O   UNL d   1     -42.718  12.708  21.694  0.00  0.00    -0.532 OA
ATOM     14  O   UNL d   1     -43.382  12.488  20.541  0.00  0.00    -0.532 OA
ENDBRANCH   9  12
ENDBRANCH   3   6
BRANCH   2  15
ATOM     15  N   UNL d   1     -48.341  13.772  23.074  0.00  0.00    -0.122 NA
BRANCH  15  16
ATOM     16  N   UNL d   1     -48.507  14.271  22.431  0.00  0.00    -0.146 NA
BRANCH  16  17
ATOM     17  C   UNL d   1     -49.267  14.627  22.384  0.00  0.00     0.103 C 
ATOM     18  C   UNL d   1     -49.937  14.139  22.376  0.00  0.00     0.022 C 
ATOM     19  C   UNL d   1     -49.342  15.448  22.347  0.00  0.00     0.022 C 
ENDBRANCH  16  17
ENDBRANCH  15  16
ENDBRANCH   2  15
TORSDOF 5
ENDMDL
