MODEL 1
REMARK VINA RESULT:       2.1      0.000      0.000
REMARK  5 active torsions:
REMARK  status: ('A' for Active; 'I' for Inactive)
REMARK    1  A    between atoms: C_13  and  C_4 
REMARK    2  A    between atoms: S_11  and  C_5 
REMARK    3  A    between atoms: C_10  and  C_12 
REMARK    4  A    between atoms: C_15  and  S_11 
REMARK    5  A    between atoms: C_12  and  C_15 
ROOT
ATOM      1  N   UNL d   1      57.104  -1.056  31.506  0.00  0.00    -0.206 N 
ATOM      2  C   UNL d   1      56.896  -0.670  32.210  0.00  0.00     0.166 A 
ATOM      3  N   UNL d   1      55.922  -1.801  31.566  0.00  0.00    -0.163 NA
ATOM      4  C   UNL d   1      56.203  -0.852  32.588  0.00  0.00     0.055 A 
ATOM      5  C   UNL d   1      57.812  -0.857  31.138  0.00  0.00     0.116 A 
ATOM      6  C   UNL d   1      55.716  -1.418  32.266  0.00  0.00     0.104 A 
ATOM      7  N   UNL d   1      57.402  -0.095  32.527  0.00  0.00    -0.227 NA
ATOM      8  C   UNL d   1      58.308  -0.297  31.445  0.00  0.00     0.045 A 
ATOM      9  C   UNL d   1      58.100   0.090  32.148  0.00  0.00     0.085 A 
ATOM     10  C   UNL d   1      55.016  -1.606  32.641  0.00  0.00     0.023 C 
ATOM     11  C   UNL d   1      58.617   0.682  32.479  0.00  0.00     0.021 C 
ENDROOT
BRANCH   5  12
ATOM     12  S   UNL d   1      58.030  -1.253  30.412  0.00  0.00    -0.064 SA
BRANCH  12  13
ATOM     13  C   UNL d   1      58.142  -1.855  29.833  0.00  0.00     0.079 C 
BRANCH  13  14
ATOM     14  C   UNL d   1      58.808  -1.842  29.323  0.00  0.00     0.208 C 
ATOM     15  O   UNL d   1      59.192  -1.111  29.154  0.00  0.00    -0.285 OA
BRANCH  14  16
ATOM     16  C   UNL d   1      59.089  -2.558  28.985  0.00  0.00     0.069 A 
ATOM     17  S   UNL d   1      59.891  -2.741  28.779  0.00  0.00    -0.083 SA
ATOM     18  C   UNL d   1      59.906  -3.527  28.456  0.00  0.00     0.035 A 
ATOM     19  C   UNL d   1      59.121  -3.827  28.464  0.00  0.00     0.008 A 
ATOM     20  C   UNL d   1      58.614  -3.232  28.789  0.00  0.00     0.010 A 
ENDBRANCH  14  16
ENDBRANCH  13  14
ENDBRANCH  12  13
ENDBRANCH   5  12
BRANCH   4  21
ATOM     21  C   UNL d   1      55.997  -0.470  33.284  0.00  0.00     0.004 A 
ATOM     22  C   UNL d   1      55.424   0.124  33.261  0.00  0.00     0.001 A 
ATOM     23  C   UNL d   1      55.220   0.504  33.954  0.00  0.00     0.011 A 
ATOM     24  C   UNL d   1      55.592   0.284  34.657  0.00  0.00     0.058 A 
ATOM     25  C   UNL d   1      56.147  -0.291  34.679  0.00  0.00     0.011 A 
ATOM     26 CL   UNL d   1      55.377   0.682  35.382  0.00  0.00    -0.082 Cl
ATOM     27  C   UNL d   1      56.354  -0.677  33.976  0.00  0.00     0.001 A 
ENDBRANCH   4  21
TORSDOF 5
ENDMDL
MODEL 2
REMARK VINA RESULT:       2.7      2.902      5.462
REMARK  5 active torsions:
REMARK  status: ('A' for Active; 'I' for Inactive)
REMARK    1  A    between atoms: C_13  and  C_4 
REMARK    2  A    between atoms: S_11  and  C_5 
REMARK    3  A    between atoms: C_10  and  C_12 
REMARK    4  A    between atoms: C_15  and  S_11 
REMARK    5  A    between atoms: C_12  and  C_15 
ROOT
ATOM      1  N   UNL d   1      57.774   0.426  31.626  0.00  0.00    -0.206 N 
ATOM      2  C   UNL d   1      58.447   0.334  31.151  0.00  0.00     0.166 A 
ATOM      3  N   UNL d   1      56.958   0.224  30.509  0.00  0.00    -0.163 NA
ATOM      4  C   UNL d   1      58.372   0.188  30.357  0.00  0.00     0.055 A 
ATOM      5  C   UNL d   1      57.873   0.573  32.430  0.00  0.00     0.116 A 
ATOM      6  C   UNL d   1      57.627   0.133  30.037  0.00  0.00     0.104 A 
ATOM      7  N   UNL d   1      59.201   0.393  31.492  0.00  0.00    -0.227 NA
ATOM      8  C   UNL d   1      58.606   0.631  32.765  0.00  0.00     0.045 A 
ATOM      9  C   UNL d   1      59.279   0.540  32.289  0.00  0.00     0.085 A 
ATOM     10  C   UNL d   1      57.543  -0.014  29.238  0.00  0.00     0.023 C 
ATOM     11  C   UNL d   1      60.057   0.599  32.634  0.00  0.00     0.021 C 
ENDROOT
BRANCH   5  12
ATOM     12  S   UNL d   1      57.181   0.668  32.923  0.00  0.00    -0.064 SA
BRANCH  12  13
ATOM     13  C   UNL d   1      56.581   0.518  33.496  0.00  0.00     0.079 C 
BRANCH  13  14
ATOM     14  C   UNL d   1      55.779   0.431  33.264  0.00  0.00     0.208 C 
ATOM     15  O   UNL d   1      55.587   0.326  32.450  0.00  0.00    -0.285 OA
BRANCH  14  16
ATOM     16  C   UNL d   1      55.173   0.449  33.845  0.00  0.00     0.069 A 
ATOM     17  S   UNL d   1      54.347   0.590  33.712  0.00  0.00    -0.083 SA
ATOM     18  C   UNL d   1      53.950   0.555  34.463  0.00  0.00     0.035 A 
ATOM     19  C   UNL d   1      54.526   0.394  35.054  0.00  0.00     0.008 A 
ATOM     20  C   UNL d   1      55.281   0.328  34.677  0.00  0.00     0.010 A 
ENDBRANCH  14  16
ENDBRANCH  13  14
ENDBRANCH  12  13
ENDBRANCH   5  12
BRANCH   4  21
ATOM     21  C   UNL d   1      59.037   0.097  29.887  0.00  0.00     0.004 A 
ATOM     22  C   UNL d   1      59.212   0.675  29.324  0.00  0.00     0.001 A 
ATOM     23  C   UNL d   1      59.875   0.584  28.856  0.00  0.00     0.011 A 
ATOM     24  C   UNL d   1      60.351  -0.081  28.959  0.00  0.00     0.058 A 
ATOM     25  C   UNL d   1      60.182  -0.641  29.505  0.00  0.00     0.011 A 
ATOM     26 CL   UNL d   1      61.045  -0.176  28.469  0.00  0.00    -0.082 Cl
ATOM     27  C   UNL d   1      59.509  -0.550  29.980  0.00  0.00     0.001 A 
ENDBRANCH   4  21
TORSDOF 5
ENDMDL
MODEL 3
REMARK VINA RESULT:       4.6      1.612      2.284
REMARK  5 active torsions:
REMARK  status: ('A' for Active; 'I' for Inactive)
REMARK    1  A    between atoms: C_13  and  C_4 
REMARK    2  A    between atoms: S_11  and  C_5 
REMARK    3  A    between atoms: C_10  and  C_12 
REMARK    4  A    between atoms: C_15  and  S_11 
REMARK    5  A    between atoms: C_12  and  C_15 
ROOT
ATOM      1  N   UNL d   1      58.431   0.420  31.628  0.00  0.00    -0.206 N 
ATOM      2  C   UNL d   1      57.653   0.310  31.891  0.00  0.00     0.166 A 
ATOM      3  N   UNL d   1      58.876   0.435  32.954  0.00  0.00    -0.163 NA
ATOM      4  C   UNL d   1      57.490   0.263  32.684  0.00  0.00     0.055 A 
ATOM      5  C   UNL d   1      58.575   0.464  30.819  0.00  0.00     0.116 A 
ATOM      6  C   UNL d   1      58.102   0.325  33.215  0.00  0.00     0.104 A 
ATOM      7  N   UNL d   1      57.038   0.247  31.337  0.00  0.00    -0.227 NA
ATOM      8  C   UNL d   1      57.978   0.404  30.278  0.00  0.00     0.045 A 
ATOM      9  C   UNL d   1      57.199   0.294  30.540  0.00  0.00     0.085 A 
ATOM     10  C   UNL d   1      57.946   0.279  34.014  0.00  0.00     0.023 C 
ATOM     11  C   UNL d   1      56.563   0.229  29.976  0.00  0.00     0.021 C 
ENDROOT
BRANCH   5  12
ATOM     12  S   UNL d   1      59.376   0.578  30.545  0.00  0.00    -0.064 SA
BRANCH  12  13
ATOM     13  C   UNL d   1      60.155   0.418  30.264  0.00  0.00     0.079 C 
BRANCH  13  14
ATOM     14  C   UNL d   1      60.283   0.154  29.478  0.00  0.00     0.208 C 
ATOM     15  O   UNL d   1      60.158   0.681  28.833  0.00  0.00    -0.285 OA
BRANCH  14  16
ATOM     16  C   UNL d   1      60.535  -0.636  29.340  0.00  0.00     0.069 A 
ATOM     17  S   UNL d   1      60.362  -1.111  28.659  0.00  0.00    -0.083 SA
ATOM     18  C   UNL d   1      60.733  -1.868  28.765  0.00  0.00     0.035 A 
ATOM     19  C   UNL d   1      61.131  -1.860  29.505  0.00  0.00     0.008 A 
ATOM     20  C   UNL d   1      61.011  -1.102  29.863  0.00  0.00     0.010 A 
ENDBRANCH  14  16
ENDBRANCH  13  14
ENDBRANCH  12  13
ENDBRANCH   5  12
BRANCH   4  21
ATOM     21  C   UNL d   1      56.720   0.154  32.943  0.00  0.00     0.004 A 
ATOM     22  C   UNL d   1      56.294  -0.498  32.672  0.00  0.00     0.001 A 
ATOM     23  C   UNL d   1      55.527  -0.607  32.931  0.00  0.00     0.011 A 
ATOM     24  C   UNL d   1      55.200  -0.061  33.456  0.00  0.00     0.058 A 
ATOM     25  C   UNL d   1      55.613   0.572  33.719  0.00  0.00     0.011 A 
ATOM     26 CL   UNL d   1      54.397  -0.174  33.727  0.00  0.00    -0.082 Cl
ATOM     27  C   UNL d   1      56.391   0.682  33.456  0.00  0.00     0.001 A 
ENDBRANCH   4  21
TORSDOF 5
ENDMDL
