MODEL 1
REMARK VINA RESULT:      17.4      0.000      0.000
REMARK  3 active torsions:
REMARK  status: ('A' for Active; 'I' for Inactive)
REMARK    1  A    between atoms: C_10  and  C_4 
REMARK    2  A    between atoms: C_13  and  C_10 
REMARK    3  A    between atoms: C_11  and  C_13 
ROOT
ATOM      1  C   UNL d   1      57.102  49.677  50.614  0.00  0.00     0.752 A 
ATOM      2  N   UNL d   1      57.462  49.681  49.873  0.00  0.00    -0.056 N 
ATOM      3  N   UNL d   1      57.571  49.682  51.290  0.00  0.00    -0.059 NA
ATOM      4  C   UNL d   1      58.750  49.697  50.486  0.00  0.00     0.037 A 
ATOM      5  C   UNL d   1      58.288  49.692  49.803  0.00  0.00     0.102 A 
ATOM      6  N   UNL d   1      56.294  49.666  50.503  0.00  0.00    -0.035 NA
ATOM      7  C   UNL d   1      58.392  49.693  51.229  0.00  0.00     0.101 A 
ATOM      8  N   UNL d   1      56.867  49.674  49.305  0.00  0.00    -0.127 NA
ATOM      9  C   UNL d   1      56.136  49.665  49.692  0.00  0.00     0.239 A 
ATOM     10  C   UNL d   1      58.640  49.697  49.065  0.00  0.00     0.021 C 
ATOM     11  C   UNL d   1      58.855  49.698  51.912  0.00  0.00     0.021 C 
ENDROOT
BRANCH   4  12
ATOM     12  C   UNL d   1      59.566  49.708  50.431  0.00  0.00     0.009 C 
BRANCH  12  13
ATOM     13  C   UNL d   1      60.027  49.361  51.020  0.00  0.00     0.070 C 
BRANCH  13  14
ATOM     14  C   UNL d   1      60.845  49.461  51.015  0.00  0.00     0.211 C 
ATOM     15  O   UNL d   1      61.255  49.493  50.300  0.00  0.00    -0.644 OA
ATOM     16  O   UNL d   1      61.256  49.531  51.726  0.00  0.00    -0.644 OA
ENDBRANCH  13  14
ENDBRANCH  12  13
ENDBRANCH   4  12
TORSDOF 3
ENDMDL
MODEL 2
REMARK VINA RESULT:      17.9      2.380      3.591
REMARK  3 active torsions:
REMARK  status: ('A' for Active; 'I' for Inactive)
REMARK    1  A    between atoms: C_10  and  C_4 
REMARK    2  A    between atoms: C_13  and  C_10 
REMARK    3  A    between atoms: C_11  and  C_13 
ROOT
ATOM      1  C   UNL d   1      60.277  49.650  50.725  0.00  0.00     0.752 A 
ATOM      2  N   UNL d   1      59.827  49.666  51.415  0.00  0.00    -0.056 N 
ATOM      3  N   UNL d   1      59.896  49.652  49.995  0.00  0.00    -0.059 NA
ATOM      4  C   UNL d   1      58.626  49.686  50.646  0.00  0.00     0.037 A 
ATOM      5  C   UNL d   1      58.999  49.684  51.381  0.00  0.00     0.102 A 
ATOM      6  N   UNL d   1      61.065  49.635  50.935  0.00  0.00    -0.035 NA
ATOM      7  C   UNL d   1      59.073  49.670  49.953  0.00  0.00     0.101 A 
ATOM      8  N   UNL d   1      60.347  49.661  52.053  0.00  0.00    -0.127 NA
ATOM      9  C   UNL d   1      61.120  49.641  51.760  0.00  0.00     0.239 A 
ATOM     10  C   UNL d   1      58.558  49.700  52.069  0.00  0.00     0.021 C 
ATOM     11  C   UNL d   1      58.700  49.671  49.218  0.00  0.00     0.021 C 
ENDROOT
BRANCH   4  12
ATOM     12  C   UNL d   1      57.809  49.703  50.598  0.00  0.00     0.009 C 
BRANCH  12  13
ATOM     13  C   UNL d   1      57.434  49.668  49.864  0.00  0.00     0.070 C 
BRANCH  13  14
ATOM     14  C   UNL d   1      56.630  49.494  49.822  0.00  0.00     0.211 C 
ATOM     15  O   UNL d   1      56.144  49.614  50.477  0.00  0.00    -0.644 OA
ATOM     16  O   UNL d   1      56.309  49.199  49.122  0.00  0.00    -0.644 OA
ENDBRANCH  13  14
ENDBRANCH  12  13
ENDBRANCH   4  12
TORSDOF 3
ENDMDL
