MODEL 1
REMARK VINA RESULT:      -6.7      0.000      0.000
REMARK  7 active torsions:
REMARK  status: ('A' for Active; 'I' for Inactive)
REMARK    1  A    between atoms: C_6  and  N_1 
REMARK    2  A    between atoms: C_12  and  C_6 
REMARK    3  A    between atoms: C_7  and  C_8 
REMARK    4  A    between atoms: C_22  and  C_7 
REMARK    5  A    between atoms: C_15  and  C_12 
REMARK    6  A    between atoms: O_13  and  C_15 
REMARK    7  A    between atoms: C_14  and  O_13 
ROOT
ATOM      1  C   UNL d   1     -48.265  12.789  22.962  0.00  0.00     0.238 C 
ATOM      2  O   UNL d   1     -48.382  12.361  23.659  0.00  0.00    -0.283 OA
ENDROOT
BRANCH   1   3
ATOM      3  C   UNL d   1     -48.912  13.043  22.516  0.00  0.00     0.126 C 
BRANCH   3   4
ATOM      4  N   UNL d   1     -49.581  13.349  22.905  0.00  0.00    -0.286 N 
ATOM      5  C   UNL d   1     -50.214  12.899  23.200  0.00  0.00     0.148 A 
ATOM      6  N   UNL d   1     -50.760  13.422  23.546  0.00  0.00    -0.227 NA
ATOM      7  C   UNL d   1     -50.291  12.080  23.161  0.00  0.00     0.041 C 
ATOM      8  C   UNL d   1     -50.468  14.188  23.464  0.00  0.00     0.099 A 
ATOM      9  C   UNL d   1     -49.736  14.140  23.066  0.00  0.00     0.083 A 
ATOM     10  C   UNL d   1     -50.762  14.913  23.694  0.00  0.00     0.021 A 
ATOM     11  C   UNL d   1     -49.313  14.836  22.908  0.00  0.00     0.019 A 
ATOM     12  C   UNL d   1     -49.619  15.568  23.145  0.00  0.00     0.002 A 
ATOM     13  C   UNL d   1     -50.343  15.603  23.537  0.00  0.00     0.002 A 
ENDBRANCH   3   4
ENDBRANCH   1   3
BRANCH   1  14
ATOM     14  C   UNL d   1     -47.488  12.963  22.714  0.00  0.00     0.166 C 
BRANCH  14  15
ATOM     15  O   UNL d   1     -46.829  12.655  23.156  0.00  0.00    -0.302 OA
BRANCH  15  16
ATOM     16  C   UNL d   1     -46.065  12.613  22.822  0.00  0.00     0.100 A 
ATOM     17  C   UNL d   1     -45.568  11.987  23.007  0.00  0.00     0.025 A 
ATOM     18  C   UNL d   1     -44.810  11.949  22.675  0.00  0.00     0.005 A 
ATOM     19  C   UNL d   1     -44.561  12.532  22.165  0.00  0.00     0.039 A 
ATOM     20  C   UNL d   1     -45.066  13.162  21.981  0.00  0.00     0.005 A 
ATOM     21  C   UNL d   1     -45.816  13.196  22.313  0.00  0.00     0.025 A 
BRANCH  19  22
ATOM     22  C   UNL d   1     -43.808  12.496  21.833  0.00  0.00     0.196 C 
ATOM     23  O   UNL d   1     -43.307  11.871  22.008  0.00  0.00    -0.287 OA
BRANCH  22  24
ATOM     24  C   UNL d   1     -43.557  13.093  21.321  0.00  0.00     0.042 C 
ATOM     25  C   UNL d   1     -42.760  13.196  21.172  0.00  0.00     0.003 C 
ENDBRANCH  22  24
ENDBRANCH  19  22
ENDBRANCH  15  16
ENDBRANCH  14  15
ENDBRANCH   1  14
TORSDOF 7
ENDMDL
MODEL 2
REMARK VINA RESULT:      -5.3      8.139      9.752
REMARK  7 active torsions:
REMARK  status: ('A' for Active; 'I' for Inactive)
REMARK    1  A    between atoms: C_6  and  N_1 
REMARK    2  A    between atoms: C_12  and  C_6 
REMARK    3  A    between atoms: C_7  and  C_8 
REMARK    4  A    between atoms: C_22  and  C_7 
REMARK    5  A    between atoms: C_15  and  C_12 
REMARK    6  A    between atoms: O_13  and  C_15 
REMARK    7  A    between atoms: C_14  and  O_13 
ROOT
ATOM      1  C   UNL d   1     -40.369  14.740  18.484  0.00  0.00     0.238 C 
ATOM      2  O   UNL d   1     -40.841  14.216  18.054  0.00  0.00    -0.283 OA
ENDROOT
BRANCH   1   3
ATOM      3  C   UNL d   1     -40.264  15.517  18.223  0.00  0.00     0.126 C 
BRANCH   3   4
ATOM      4  N   UNL d   1     -40.102  15.658  17.419  0.00  0.00    -0.286 N 
ATOM      5  C   UNL d   1     -40.673  15.784  16.828  0.00  0.00     0.148 A 
ATOM      6  N   UNL d   1     -40.273  15.902  16.109  0.00  0.00    -0.227 NA
ATOM      7  C   UNL d   1     -41.489  15.791  16.931  0.00  0.00     0.041 C 
ATOM      8  C   UNL d   1     -39.464  15.850  16.254  0.00  0.00     0.099 A 
ATOM      9  C   UNL d   1     -39.360  15.699  17.068  0.00  0.00     0.083 A 
ATOM     10  C   UNL d   1     -38.815  15.919  15.764  0.00  0.00     0.021 A 
ATOM     11  C   UNL d   1     -38.593  15.619  17.372  0.00  0.00     0.019 A 
ATOM     12  C   UNL d   1     -37.940  15.690  16.869  0.00  0.00     0.002 A 
ATOM     13  C   UNL d   1     -38.054  15.840  16.066  0.00  0.00     0.002 A 
ENDBRANCH   3   4
ENDBRANCH   1   3
BRANCH   1  14
ATOM     14  C   UNL d   1     -39.999  14.479  19.184  0.00  0.00     0.166 C 
BRANCH  14  15
ATOM     15  O   UNL d   1     -40.356  14.653  19.937  0.00  0.00    -0.302 OA
BRANCH  15  16
ATOM     16  C   UNL d   1     -39.954  14.504  20.653  0.00  0.00     0.100 A 
ATOM     17  C   UNL d   1     -39.175  14.744  20.746  0.00  0.00     0.025 A 
ATOM     18  C   UNL d   1     -38.780  14.594  21.459  0.00  0.00     0.005 A 
ATOM     19  C   UNL d   1     -39.165  14.210  22.063  0.00  0.00     0.039 A 
ATOM     20  C   UNL d   1     -39.951  13.970  21.965  0.00  0.00     0.005 A 
ATOM     21  C   UNL d   1     -40.339  14.120  21.258  0.00  0.00     0.025 A 
BRANCH  19  22
ATOM     22  C   UNL d   1     -38.773  14.060  22.773  0.00  0.00     0.196 C 
ATOM     23  O   UNL d   1     -38.717  14.643  23.346  0.00  0.00    -0.287 OA
BRANCH  22  24
ATOM     24  C   UNL d   1     -38.436  13.318  22.907  0.00  0.00     0.042 C 
ATOM     25  C   UNL d   1     -38.282  13.070  23.670  0.00  0.00     0.003 C 
ENDBRANCH  22  24
ENDBRANCH  19  22
ENDBRANCH  15  16
ENDBRANCH  14  15
ENDBRANCH   1  14
TORSDOF 7
ENDMDL
MODEL 3
REMARK VINA RESULT:      -5.3      1.149      1.946
REMARK  7 active torsions:
REMARK  status: ('A' for Active; 'I' for Inactive)
REMARK    1  A    between atoms: C_6  and  N_1 
REMARK    2  A    between atoms: C_12  and  C_6 
REMARK    3  A    between atoms: C_7  and  C_8 
REMARK    4  A    between atoms: C_22  and  C_7 
REMARK    5  A    between atoms: C_15  and  C_12 
REMARK    6  A    between atoms: O_13  and  C_15 
REMARK    7  A    between atoms: C_14  and  O_13 
ROOT
ATOM      1  C   UNL d   1     -46.326  12.863  22.886  0.00  0.00     0.238 C 
ATOM      2  O   UNL d   1     -46.315  12.703  23.697  0.00  0.00    -0.283 OA
ENDROOT
BRANCH   1   3
ATOM      3  C   UNL d   1     -47.024  12.776  22.454  0.00  0.00     0.126 C 
BRANCH   3   4
ATOM      4  N   UNL d   1     -47.749  12.988  22.803  0.00  0.00    -0.286 N 
ATOM      5  C   UNL d   1     -48.242  12.479  23.237  0.00  0.00     0.148 A 
ATOM      6  N   UNL d   1     -48.905  12.915  23.484  0.00  0.00    -0.227 NA
ATOM      7  C   UNL d   1     -48.103  11.683  23.395  0.00  0.00     0.041 C 
ATOM      8  C   UNL d   1     -48.823  13.686  23.207  0.00  0.00     0.099 A 
ATOM      9  C   UNL d   1     -48.104  13.729  22.784  0.00  0.00     0.083 A 
ATOM     10  C   UNL d   1     -49.296  14.347  23.279  0.00  0.00     0.021 A 
ATOM     11  C   UNL d   1     -47.878  14.449  22.440  0.00  0.00     0.019 A 
ATOM     12  C   UNL d   1     -48.363  15.115  22.518  0.00  0.00     0.002 A 
ATOM     13  C   UNL d   1     -49.071  15.061  22.937  0.00  0.00     0.002 A 
ENDBRANCH   3   4
ENDBRANCH   1   3
BRANCH   1  14
ATOM     14  C   UNL d   1     -45.626  13.113  22.509  0.00  0.00     0.166 C 
BRANCH  14  15
ATOM     15  O   UNL d   1     -45.001  12.551  22.371  0.00  0.00    -0.302 OA
BRANCH  15  16
ATOM     16  C   UNL d   1     -44.296  12.772  21.983  0.00  0.00     0.100 A 
ATOM     17  C   UNL d   1     -43.649  12.268  21.983  0.00  0.00     0.025 A 
ATOM     18  C   UNL d   1     -42.951  12.490  21.597  0.00  0.00     0.005 A 
ATOM     19  C   UNL d   1     -42.909  13.209  21.218  0.00  0.00     0.039 A 
ATOM     20  C   UNL d   1     -43.564  13.715  21.219  0.00  0.00     0.005 A 
ATOM     21  C   UNL d   1     -44.254  13.490  21.604  0.00  0.00     0.025 A 
BRANCH  19  22
ATOM     22  C   UNL d   1     -42.216  13.432  20.832  0.00  0.00     0.196 C 
ATOM     23  O   UNL d   1     -42.060  13.167  20.073  0.00  0.00    -0.287 OA
BRANCH  22  24
ATOM     24  C   UNL d   1     -41.676  13.927  21.214  0.00  0.00     0.042 C 
ATOM     25  C   UNL d   1     -41.008  14.185  20.820  0.00  0.00     0.003 C 
ENDBRANCH  22  24
ENDBRANCH  19  22
ENDBRANCH  15  16
ENDBRANCH  14  15
ENDBRANCH   1  14
TORSDOF 7
ENDMDL
MODEL 4
REMARK VINA RESULT:      -5.1      2.061      5.717
REMARK  7 active torsions:
REMARK  status: ('A' for Active; 'I' for Inactive)
REMARK    1  A    between atoms: C_6  and  N_1 
REMARK    2  A    between atoms: C_12  and  C_6 
REMARK    3  A    between atoms: C_7  and  C_8 
REMARK    4  A    between atoms: C_22  and  C_7 
REMARK    5  A    between atoms: C_15  and  C_12 
REMARK    6  A    between atoms: O_13  and  C_15 
REMARK    7  A    between atoms: C_14  and  O_13 
ROOT
ATOM      1  C   UNL d   1     -45.937  13.214  22.689  0.00  0.00     0.238 C 
ATOM      2  O   UNL d   1     -45.440  13.486  23.291  0.00  0.00    -0.283 OA
ENDROOT
BRANCH   1   3
ATOM      3  C   UNL d   1     -45.731  12.547  22.247  0.00  0.00     0.126 C 
BRANCH   3   4
ATOM      4  N   UNL d   1     -45.008  12.164  22.402  0.00  0.00    -0.286 N 
ATOM      5  C   UNL d   1     -44.266  12.403  22.116  0.00  0.00     0.148 A 
ATOM      6  N   UNL d   1     -43.698  11.868  22.403  0.00  0.00    -0.227 NA
ATOM      7  C   UNL d   1     -44.115  13.053  21.635  0.00  0.00     0.041 C 
ATOM      8  C   UNL d   1     -44.085  11.304  22.861  0.00  0.00     0.099 A 
ATOM      9  C   UNL d   1     -44.899  11.489  22.859  0.00  0.00     0.083 A 
ATOM     10  C   UNL d   1     -43.814  10.655  23.274  0.00  0.00     0.021 A 
ATOM     11  C   UNL d   1     -45.426  11.008  23.281  0.00  0.00     0.019 A 
ATOM     12  C   UNL d   1     -45.143  10.352  23.698  0.00  0.00     0.002 A 
ATOM     13  C   UNL d   1     -44.338  10.177  23.693  0.00  0.00     0.002 A 
ENDBRANCH   3   4
ENDBRANCH   1   3
BRANCH   1  14
ATOM     14  C   UNL d   1     -46.648  13.619  22.530  0.00  0.00     0.166 C 
BRANCH  14  15
ATOM     15  O   UNL d   1     -47.141  13.868  23.179  0.00  0.00    -0.302 OA
BRANCH  15  16
ATOM     16  C   UNL d   1     -47.919  14.145  23.052  0.00  0.00     0.100 A 
ATOM     17  C   UNL d   1     -48.044  14.868  22.684  0.00  0.00     0.025 A 
ATOM     18  C   UNL d   1     -48.817  15.139  22.560  0.00  0.00     0.005 A 
ATOM     19  C   UNL d   1     -49.448  14.689  22.802  0.00  0.00     0.039 A 
ATOM     20  C   UNL d   1     -49.317  13.960  23.173  0.00  0.00     0.005 A 
ATOM     21  C   UNL d   1     -48.550  13.695  23.294  0.00  0.00     0.025 A 
BRANCH  19  22
ATOM     22  C   UNL d   1     -50.218  14.956  22.680  0.00  0.00     0.196 C 
ATOM     23  O   UNL d   1     -50.414  15.738  22.831  0.00  0.00    -0.287 OA
BRANCH  22  24
ATOM     24  C   UNL d   1     -50.795  14.434  22.402  0.00  0.00     0.042 C 
ATOM     25  C   UNL d   1     -51.047  14.477  21.626  0.00  0.00     0.003 C 
ENDBRANCH  22  24
ENDBRANCH  19  22
ENDBRANCH  15  16
ENDBRANCH  14  15
ENDBRANCH   1  14
TORSDOF 7
ENDMDL
MODEL 5
REMARK VINA RESULT:      -4.3      3.729      7.779
REMARK  7 active torsions:
REMARK  status: ('A' for Active; 'I' for Inactive)
REMARK    1  A    between atoms: C_6  and  N_1 
REMARK    2  A    between atoms: C_12  and  C_6 
REMARK    3  A    between atoms: C_7  and  C_8 
REMARK    4  A    between atoms: C_22  and  C_7 
REMARK    5  A    between atoms: C_15  and  C_12 
REMARK    6  A    between atoms: O_13  and  C_15 
REMARK    7  A    between atoms: C_14  and  O_13 
ROOT
ATOM      1  C   UNL d   1     -41.724  13.717  20.761  0.00  0.00     0.238 C 
ATOM      2  O   UNL d   1     -41.638  13.320  20.041  0.00  0.00    -0.283 OA
ENDROOT
BRANCH   1   3
ATOM      3  C   UNL d   1     -41.245  14.367  20.938  0.00  0.00     0.126 C 
BRANCH   3   4
ATOM      4  N   UNL d   1     -40.444  14.356  20.711  0.00  0.00    -0.286 N 
ATOM      5  C   UNL d   1     -40.151  14.600  19.973  0.00  0.00     0.148 A 
ATOM      6  N   UNL d   1     -39.325  14.497  19.981  0.00  0.00    -0.227 NA
ATOM      7  C   UNL d   1     -40.593  14.891  19.344  0.00  0.00     0.041 C 
ATOM      8  C   UNL d   1     -39.112  14.193  20.716  0.00  0.00     0.099 A 
ATOM      9  C   UNL d   1     -39.808  14.107  21.168  0.00  0.00     0.083 A 
ATOM     10  C   UNL d   1     -38.389  13.986  21.034  0.00  0.00     0.021 A 
ATOM     11  C   UNL d   1     -39.758  13.808  21.940  0.00  0.00     0.019 A 
ATOM     12  C   UNL d   1     -39.021  13.600  22.255  0.00  0.00     0.002 A 
ATOM     13  C   UNL d   1     -38.339  13.690  21.800  0.00  0.00     0.002 A 
ENDBRANCH   3   4
ENDBRANCH   1   3
BRANCH   1  14
ATOM     14  C   UNL d   1     -42.299  13.457  21.306  0.00  0.00     0.166 C 
BRANCH  14  15
ATOM     15  O   UNL d   1     -42.921  12.940  21.043  0.00  0.00    -0.302 OA
BRANCH  15  16
ATOM     16  C   UNL d   1     -43.584  12.778  21.525  0.00  0.00     0.100 A 
ATOM     17  C   UNL d   1     -44.253  13.251  21.477  0.00  0.00     0.025 A 
ATOM     18  C   UNL d   1     -44.909  13.088  21.956  0.00  0.00     0.005 A 
ATOM     19  C   UNL d   1     -44.887  12.460  22.472  0.00  0.00     0.039 A 
ATOM     20  C   UNL d   1     -44.210  11.985  22.517  0.00  0.00     0.005 A 
ATOM     21  C   UNL d   1     -43.563  12.150  22.041  0.00  0.00     0.025 A 
BRANCH  19  22
ATOM     22  C   UNL d   1     -45.538  12.295  22.950  0.00  0.00     0.196 C 
ATOM     23  O   UNL d   1     -45.529  11.651  23.457  0.00  0.00    -0.287 OA
BRANCH  22  24
ATOM     24  C   UNL d   1     -46.205  12.783  22.918  0.00  0.00     0.042 C 
ATOM     25  C   UNL d   1     -46.859  12.613  23.377  0.00  0.00     0.003 C 
ENDBRANCH  22  24
ENDBRANCH  19  22
ENDBRANCH  15  16
ENDBRANCH  14  15
ENDBRANCH   1  14
TORSDOF 7
ENDMDL
MODEL 6
REMARK VINA RESULT:      -4.2      1.291      1.567
REMARK  7 active torsions:
REMARK  status: ('A' for Active; 'I' for Inactive)
REMARK    1  A    between atoms: C_6  and  N_1 
REMARK    2  A    between atoms: C_12  and  C_6 
REMARK    3  A    between atoms: C_7  and  C_8 
REMARK    4  A    between atoms: C_22  and  C_7 
REMARK    5  A    between atoms: C_15  and  C_12 
REMARK    6  A    between atoms: O_13  and  C_15 
REMARK    7  A    between atoms: C_14  and  O_13 
ROOT
ATOM      1  C   UNL d   1     -48.722  12.493  23.013  0.00  0.00     0.238 C 
ATOM      2  O   UNL d   1     -49.148  12.312  23.698  0.00  0.00    -0.283 OA
ENDROOT
BRANCH   1   3
ATOM      3  C   UNL d   1     -49.039  13.007  22.449  0.00  0.00     0.126 C 
BRANCH   3   4
ATOM      4  N   UNL d   1     -49.738  13.424  22.624  0.00  0.00    -0.286 N 
ATOM      5  C   UNL d   1     -50.506  13.108  22.598  0.00  0.00     0.148 A 
ATOM      6  N   UNL d   1     -51.036  13.711  22.813  0.00  0.00    -0.227 NA
ATOM      7  C   UNL d   1     -50.710  12.337  22.396  0.00  0.00     0.041 C 
ATOM      8  C   UNL d   1     -50.601  14.392  22.970  0.00  0.00     0.099 A 
ATOM      9  C   UNL d   1     -49.795  14.211  22.852  0.00  0.00     0.083 A 
ATOM     10  C   UNL d   1     -50.823  15.143  23.201  0.00  0.00     0.021 A 
ATOM     11  C   UNL d   1     -49.224  14.801  22.972  0.00  0.00     0.019 A 
ATOM     12  C   UNL d   1     -49.457  15.560  23.206  0.00  0.00     0.002 A 
ATOM     13  C   UNL d   1     -50.257  15.728  23.320  0.00  0.00     0.002 A 
ENDBRANCH   3   4
ENDBRANCH   1   3
BRANCH   1  14
ATOM     14  C   UNL d   1     -47.970  12.152  22.896  0.00  0.00     0.166 C 
BRANCH  14  15
ATOM     15  O   UNL d   1     -47.549  11.829  23.562  0.00  0.00    -0.302 OA
BRANCH  15  16
ATOM     16  C   UNL d   1     -46.753  11.585  23.496  0.00  0.00     0.100 A 
ATOM     17  C   UNL d   1     -46.539  10.819  23.698  0.00  0.00     0.025 A 
ATOM     18  C   UNL d   1     -45.749  10.580  23.631  0.00  0.00     0.005 A 
ATOM     19  C   UNL d   1     -45.188  11.105  23.364  0.00  0.00     0.039 A 
ATOM     20  C   UNL d   1     -45.409  11.877  23.161  0.00  0.00     0.005 A 
ATOM     21  C   UNL d   1     -46.193  12.110  23.229  0.00  0.00     0.025 A 
BRANCH  19  22
ATOM     22  C   UNL d   1     -44.402  10.870  23.296  0.00  0.00     0.196 C 
ATOM     23  O   UNL d   1     -43.856  11.350  22.917  0.00  0.00    -0.287 OA
BRANCH  22  24
ATOM     24  C   UNL d   1     -44.161  10.145  23.612  0.00  0.00     0.042 C 
ATOM     25  C   UNL d   1     -43.384   9.905  23.539  0.00  0.00     0.003 C 
ENDBRANCH  22  24
ENDBRANCH  19  22
ENDBRANCH  15  16
ENDBRANCH  14  15
ENDBRANCH   1  14
TORSDOF 7
ENDMDL
