MODEL 1
REMARK VINA RESULT:      18.8      0.000      0.000
REMARK  4 active torsions:
REMARK  status: ('A' for Active; 'I' for Inactive)
REMARK    1  A    between atoms: C_7  and  C_1 
REMARK    2  A    between atoms: C_8  and  C_2 
REMARK    3  A    between atoms: C_10  and  C_4 
REMARK    4  A    between atoms: O_13  and  C_7 
ROOT
ATOM      1  C   UNL d   1      46.092 -18.029  43.031  0.00  0.00     0.086 A 
ATOM      2  C   UNL d   1      46.373 -19.174  42.239  0.00  0.00     0.064 A 
ATOM      3  C   UNL d   1      46.454 -18.685  41.561  0.00  0.00     0.205 A 
ATOM      4  C   UNL d   1      46.192 -18.833  42.964  0.00  0.00     0.012 A 
ATOM      5  C   UNL d   1      46.173 -17.540  42.353  0.00  0.00     0.107 A 
ATOM      6  O   UNL d   1      46.352 -17.870  41.628  0.00  0.00    -0.288 OA
ATOM      7  N   UNL d   1      46.641 -19.013  40.799  0.00  0.00    -0.121 N 
ATOM      8  C   UNL d   1      46.069 -16.684  42.409  0.00  0.00     0.027 C 
ENDROOT
BRANCH   4   9
ATOM      9  C   UNL d   1      46.114 -19.305  43.618  0.00  0.00     0.000 A 
ATOM     10  C   UNL d   1      45.509 -19.851  43.660  0.00  0.00     0.000 A 
ATOM     11  C   UNL d   1      45.430 -20.326  44.318  0.00  0.00     0.000 A 
ATOM     12  C   UNL d   1      45.955 -20.262  44.945  0.00  0.00     0.000 A 
ATOM     13  C   UNL d   1      46.568 -19.707  44.901  0.00  0.00     0.000 A 
ATOM     14  C   UNL d   1      46.647 -19.232  44.243  0.00  0.00     0.000 A 
ENDBRANCH   4   9
BRANCH   2  15
ATOM     15  C   UNL d   1      46.477 -19.995  42.160  0.00  0.00     0.126 C 
ATOM     16  N   UNL d   1      46.583 -20.329  41.408  0.00  0.00    -0.146 N 
ENDBRANCH   2  15
BRANCH   1  17
ATOM     17  C   UNL d   1      45.906 -17.667  43.771  0.00  0.00     0.298 C 
ATOM     18  O   UNL d   1      46.373 -17.813  44.428  0.00  0.00    -0.259 OA
BRANCH  17  19
ATOM     19  O   UNL d   1      45.250 -17.167  43.817  0.00  0.00    -0.296 OA
ATOM     20  C   UNL d   1      45.140 -16.666  44.475  0.00  0.00     0.185 C 
ENDBRANCH  17  19
ENDBRANCH   1  17
TORSDOF 4
ENDMDL
