MODEL 1
REMARK VINA RESULT:      -8.0      0.000      0.000
REMARK  3 active torsions:
REMARK  status: ('A' for Active; 'I' for Inactive)
REMARK    1  A    between atoms: C_2  and  O_1 
REMARK    2  A    between atoms: C_5  and  O_1 
REMARK    3  A    between atoms: C_10  and  C_5 
ROOT
ATOM      1  O   UNL d   1      52.799  32.662  53.919  0.00  0.00    -0.305 OA
ENDROOT
BRANCH   1   2
ATOM      2  C   UNL d   1      52.884  33.485  54.020  0.00  0.00     0.100 A 
ATOM      3  C   UNL d   1      52.582  34.021  53.453  0.00  0.00     0.026 A 
ATOM      4  C   UNL d   1      52.672  34.833  53.563  0.00  0.00     0.023 A 
ATOM      5  C   UNL d   1      53.060  35.117  54.233  0.00  0.00     0.103 A 
ATOM      6  C   UNL d   1      53.370  34.567  54.816  0.00  0.00     0.023 A 
ATOM      7  N   UNL d   1      53.156  35.944  54.354  0.00  0.00    -0.148 N 
ATOM      8  C   UNL d   1      53.272  33.768  54.691  0.00  0.00     0.026 A 
ENDBRANCH   1   2
BRANCH   1   9
ATOM      9  C   UNL d   1      53.305  32.261  53.410  0.00  0.00     0.122 C 
BRANCH   9  10
ATOM     10  C   UNL d   1      53.235  31.424  53.360  0.00  0.00     0.025 A 
ATOM     11  C   UNL d   1      53.742  30.941  53.818  0.00  0.00     0.002 A 
ATOM     12  C   UNL d   1      53.680  30.119  53.775  0.00  0.00     0.000 A 
ATOM     13  C   UNL d   1      53.099  29.774  53.264  0.00  0.00     0.000 A 
ATOM     14  C   UNL d   1      52.611  30.258  52.821  0.00  0.00     0.000 A 
ATOM     15  C   UNL d   1      52.673  31.080  52.865  0.00  0.00     0.002 A 
ENDBRANCH   9  10
ENDBRANCH   1   9
TORSDOF 3
ENDMDL
MODEL 2
REMARK VINA RESULT:      -7.7      2.230      3.096
REMARK  3 active torsions:
REMARK  status: ('A' for Active; 'I' for Inactive)
REMARK    1  A    between atoms: C_2  and  O_1 
REMARK    2  A    between atoms: C_5  and  O_1 
REMARK    3  A    between atoms: C_10  and  C_5 
ROOT
ATOM      1  O   UNL d   1      52.454  34.159  53.361  0.00  0.00    -0.305 OA
ENDROOT
BRANCH   1   2
ATOM      2  C   UNL d   1      51.720  34.216  52.971  0.00  0.00     0.100 A 
ATOM      3  C   UNL d   1      51.009  34.305  53.404  0.00  0.00     0.026 A 
ATOM      4  C   UNL d   1      50.288  34.361  53.008  0.00  0.00     0.023 A 
ATOM      5  C   UNL d   1      50.268  34.329  52.184  0.00  0.00     0.103 A 
ATOM      6  C   UNL d   1      50.997  34.238  51.739  0.00  0.00     0.023 A 
ATOM      7  N   UNL d   1      49.537  34.385  51.771  0.00  0.00    -0.148 N 
ATOM      8  C   UNL d   1      51.700  34.184  52.147  0.00  0.00     0.026 A 
ENDBRANCH   1   2
BRANCH   1   9
ATOM      9  C   UNL d   1      52.662  33.455  53.733  0.00  0.00     0.122 C 
BRANCH   9  10
ATOM     10  C   UNL d   1      53.422  33.406  54.090  0.00  0.00     0.025 A 
ATOM     11  C   UNL d   1      54.029  32.974  53.707  0.00  0.00     0.002 A 
ATOM     12  C   UNL d   1      54.777  32.921  54.050  0.00  0.00     0.000 A 
ATOM     13  C   UNL d   1      54.923  33.307  54.790  0.00  0.00     0.000 A 
ATOM     14  C   UNL d   1      54.321  33.726  55.153  0.00  0.00     0.000 A 
ATOM     15  C   UNL d   1      53.572  33.779  54.810  0.00  0.00     0.002 A 
ENDBRANCH   9  10
ENDBRANCH   1   9
TORSDOF 3
ENDMDL
MODEL 3
REMARK VINA RESULT:      -7.6      1.786      3.985
REMARK  3 active torsions:
REMARK  status: ('A' for Active; 'I' for Inactive)
REMARK    1  A    between atoms: C_2  and  O_1 
REMARK    2  A    between atoms: C_5  and  O_1 
REMARK    3  A    between atoms: C_10  and  C_5 
ROOT
ATOM      1  O   UNL d   1      53.266  32.620  53.415  0.00  0.00    -0.305 OA
ENDROOT
BRANCH   1   2
ATOM      2  C   UNL d   1      53.204  31.790  53.372  0.00  0.00     0.100 A 
ATOM      3  C   UNL d   1      52.615  31.427  52.902  0.00  0.00     0.026 A 
ATOM      4  C   UNL d   1      52.564  30.605  52.867  0.00  0.00     0.023 A 
ATOM      5  C   UNL d   1      53.093  30.141  53.297  0.00  0.00     0.103 A 
ATOM      6  C   UNL d   1      53.698  30.514  53.780  0.00  0.00     0.023 A 
ATOM      7  N   UNL d   1      53.048  29.301  53.267  0.00  0.00    -0.148 N 
ATOM      8  C   UNL d   1      53.734  31.327  53.802  0.00  0.00     0.026 A 
ENDBRANCH   1   2
BRANCH   1   9
ATOM      9  C   UNL d   1      52.702  33.048  53.833  0.00  0.00     0.122 C 
BRANCH   9  10
ATOM     10  C   UNL d   1      52.829  33.873  53.939  0.00  0.00     0.025 A 
ATOM     11  C   UNL d   1      53.166  34.148  54.654  0.00  0.00     0.002 A 
ATOM     12  C   UNL d   1      53.294  34.955  54.767  0.00  0.00     0.000 A 
ATOM     13  C   UNL d   1      53.082  35.499  54.153  0.00  0.00     0.000 A 
ATOM     14  C   UNL d   1      52.753  35.216  53.459  0.00  0.00     0.000 A 
ATOM     15  C   UNL d   1      52.625  34.409  53.346  0.00  0.00     0.002 A 
ENDBRANCH   9  10
ENDBRANCH   1   9
TORSDOF 3
ENDMDL
MODEL 4
REMARK VINA RESULT:      -7.5      2.179      4.027
REMARK  3 active torsions:
REMARK  status: ('A' for Active; 'I' for Inactive)
REMARK    1  A    between atoms: C_2  and  O_1 
REMARK    2  A    between atoms: C_5  and  O_1 
REMARK    3  A    between atoms: C_10  and  C_5 
ROOT
ATOM      1  O   UNL d   1      52.516  32.126  52.754  0.00  0.00    -0.305 OA
ENDROOT
BRANCH   1   2
ATOM      2  C   UNL d   1      52.824  31.420  53.073  0.00  0.00     0.100 A 
ATOM      3  C   UNL d   1      53.488  31.432  53.581  0.00  0.00     0.026 A 
ATOM      4  C   UNL d   1      53.784  30.727  53.891  0.00  0.00     0.023 A 
ATOM      5  C   UNL d   1      53.424  30.010  53.698  0.00  0.00     0.103 A 
ATOM      6  C   UNL d   1      52.742  29.998  53.176  0.00  0.00     0.023 A 
ATOM      7  N   UNL d   1      53.719  29.286  54.009  0.00  0.00    -0.148 N 
ATOM      8  C   UNL d   1      52.464  30.704  52.880  0.00  0.00     0.026 A 
ENDBRANCH   1   2
BRANCH   1   9
ATOM      9  C   UNL d   1      52.299  32.738  53.258  0.00  0.00     0.122 C 
BRANCH   9  10
ATOM     10  C   UNL d   1      51.764  33.320  52.968  0.00  0.00     0.025 A 
ATOM     11  C   UNL d   1      51.003  33.385  53.310  0.00  0.00     0.002 A 
ATOM     12  C   UNL d   1      50.473  33.953  53.031  0.00  0.00     0.000 A 
ATOM     13  C   UNL d   1      50.708  34.464  52.398  0.00  0.00     0.000 A 
ATOM     14  C   UNL d   1      51.455  34.389  52.073  0.00  0.00     0.000 A 
ATOM     15  C   UNL d   1      51.985  33.822  52.352  0.00  0.00     0.002 A 
ENDBRANCH   9  10
ENDBRANCH   1   9
TORSDOF 3
ENDMDL
MODEL 5
REMARK VINA RESULT:      -7.5      2.020      3.294
REMARK  3 active torsions:
REMARK  status: ('A' for Active; 'I' for Inactive)
REMARK    1  A    between atoms: C_2  and  O_1 
REMARK    2  A    between atoms: C_5  and  O_1 
REMARK    3  A    between atoms: C_10  and  C_5 
ROOT
ATOM      1  O   UNL d   1      52.463  33.648  53.719  0.00  0.00    -0.305 OA
ENDROOT
BRANCH   1   2
ATOM      2  C   UNL d   1      53.186  33.638  54.134  0.00  0.00     0.100 A 
ATOM      3  C   UNL d   1      53.341  34.194  54.741  0.00  0.00     0.026 A 
ATOM      4  C   UNL d   1      54.059  34.175  55.145  0.00  0.00     0.023 A 
ATOM      5  C   UNL d   1      54.625  33.607  54.951  0.00  0.00     0.103 A 
ATOM      6  C   UNL d   1      54.467  33.037  54.328  0.00  0.00     0.023 A 
ATOM      7  N   UNL d   1      55.361  33.580  55.358  0.00  0.00    -0.148 N 
ATOM      8  C   UNL d   1      53.752  33.070  53.940  0.00  0.00     0.026 A 
ENDBRANCH   1   2
BRANCH   1   9
ATOM      9  C   UNL d   1      52.246  34.320  53.299  0.00  0.00     0.122 C 
BRANCH   9  10
ATOM     10  C   UNL d   1      51.528  34.297  52.860  0.00  0.00     0.025 A 
ATOM     11  C   UNL d   1      51.558  34.198  52.029  0.00  0.00     0.002 A 
ATOM     12  C   UNL d   1      50.859  34.175  51.591  0.00  0.00     0.000 A 
ATOM     13  C   UNL d   1      50.116  34.253  51.991  0.00  0.00     0.000 A 
ATOM     14  C   UNL d   1      50.102  34.349  52.803  0.00  0.00     0.000 A 
ATOM     15  C   UNL d   1      50.801  34.372  53.241  0.00  0.00     0.002 A 
ENDBRANCH   9  10
ENDBRANCH   1   9
TORSDOF 3
ENDMDL
MODEL 6
REMARK VINA RESULT:      -7.2      1.657      2.042
REMARK  3 active torsions:
REMARK  status: ('A' for Active; 'I' for Inactive)
REMARK    1  A    between atoms: C_2  and  O_1 
REMARK    2  A    between atoms: C_5  and  O_1 
REMARK    3  A    between atoms: C_10  and  C_5 
ROOT
ATOM      1  O   UNL d   1      52.319  32.638  53.342  0.00  0.00    -0.305 OA
ENDROOT
BRANCH   1   2
ATOM      2  C   UNL d   1      51.732  33.188  53.127  0.00  0.00     0.100 A 
ATOM      3  C   UNL d   1      50.960  33.140  53.447  0.00  0.00     0.026 A 
ATOM      4  C   UNL d   1      50.386  33.691  53.228  0.00  0.00     0.023 A 
ATOM      5  C   UNL d   1      50.575  34.289  52.692  0.00  0.00     0.103 A 
ATOM      6  C   UNL d   1      51.367  34.339  52.364  0.00  0.00     0.023 A 
ATOM      7  N   UNL d   1      49.996  34.855  52.463  0.00  0.00    -0.148 N 
ATOM      8  C   UNL d   1      51.920  33.787  52.592  0.00  0.00     0.026 A 
ENDBRANCH   1   2
BRANCH   1   9
ATOM      9  C   UNL d   1      52.549  32.060  52.804  0.00  0.00     0.122 C 
BRANCH   9  10
ATOM     10  C   UNL d   1      52.928  31.370  53.102  0.00  0.00     0.025 A 
ATOM     11  C   UNL d   1      52.614  30.616  52.918  0.00  0.00     0.002 A 
ATOM     12  C   UNL d   1      52.979  29.935  53.206  0.00  0.00     0.000 A 
ATOM     13  C   UNL d   1      53.672  30.008  53.687  0.00  0.00     0.000 A 
ATOM     14  C   UNL d   1      53.968  30.751  53.859  0.00  0.00     0.000 A 
ATOM     15  C   UNL d   1      53.603  31.432  53.572  0.00  0.00     0.002 A 
ENDBRANCH   9  10
ENDBRANCH   1   9
TORSDOF 3
ENDMDL
MODEL 7
REMARK VINA RESULT:      -5.7      3.791      4.718
REMARK  3 active torsions:
REMARK  status: ('A' for Active; 'I' for Inactive)
REMARK    1  A    between atoms: C_2  and  O_1 
REMARK    2  A    between atoms: C_5  and  O_1 
REMARK    3  A    between atoms: C_10  and  C_5 
ROOT
ATOM      1  O   UNL d   1      49.734  34.455  52.144  0.00  0.00    -0.305 OA
ENDROOT
BRANCH   1   2
ATOM      2  C   UNL d   1      49.016  34.864  52.038  0.00  0.00     0.100 A 
ATOM      3  C   UNL d   1      48.716  35.367  52.635  0.00  0.00     0.026 A 
ATOM      4  C   UNL d   1      48.003  35.767  52.519  0.00  0.00     0.023 A 
ATOM      5  C   UNL d   1      47.587  35.669  51.813  0.00  0.00     0.103 A 
ATOM      6  C   UNL d   1      47.895  35.152  51.201  0.00  0.00     0.023 A 
ATOM      7  N   UNL d   1      46.860  36.072  51.686  0.00  0.00    -0.148 N 
ATOM      8  C   UNL d   1      48.600  34.766  51.332  0.00  0.00     0.026 A 
ENDBRANCH   1   2
BRANCH   1   9
ATOM      9  C   UNL d   1      50.140  34.526  52.855  0.00  0.00     0.122 C 
BRANCH   9  10
ATOM     10  C   UNL d   1      50.871  34.117  52.937  0.00  0.00     0.025 A 
ATOM     11  C   UNL d   1      51.586  34.512  52.754  0.00  0.00     0.002 A 
ATOM     12  C   UNL d   1      52.307  34.118  52.830  0.00  0.00     0.000 A 
ATOM     13  C   UNL d   1      52.313  33.313  53.096  0.00  0.00     0.000 A 
ATOM     14  C   UNL d   1      51.607  32.940  53.271  0.00  0.00     0.000 A 
ATOM     15  C   UNL d   1      50.886  33.333  53.194  0.00  0.00     0.002 A 
ENDBRANCH   9  10
ENDBRANCH   1   9
TORSDOF 3
ENDMDL
MODEL 8
REMARK VINA RESULT:      -5.1      9.803     10.651
REMARK  3 active torsions:
REMARK  status: ('A' for Active; 'I' for Inactive)
REMARK    1  A    between atoms: C_2  and  O_1 
REMARK    2  A    between atoms: C_5  and  O_1 
REMARK    3  A    between atoms: C_10  and  C_5 
ROOT
ATOM      1  O   UNL d   1      45.183  29.083  58.035  0.00  0.00    -0.305 OA
ENDROOT
BRANCH   1   2
ATOM      2  C   UNL d   1      45.158  28.280  58.255  0.00  0.00     0.100 A 
ATOM      3  C   UNL d   1      44.821  28.045  58.985  0.00  0.00     0.026 A 
ATOM      4  C   UNL d   1      44.801  27.247  59.193  0.00  0.00     0.023 A 
ATOM      5  C   UNL d   1      45.114  26.681  58.681  0.00  0.00     0.103 A 
ATOM      6  C   UNL d   1      45.460  26.922  57.932  0.00  0.00     0.023 A 
ATOM      7  N   UNL d   1      45.098  25.865  58.885  0.00  0.00    -0.148 N 
ATOM      8  C   UNL d   1      45.471  27.714  57.744  0.00  0.00     0.026 A 
ENDBRANCH   1   2
BRANCH   1   9
ATOM      9  C   UNL d   1      44.500  29.451  57.763  0.00  0.00     0.122 C 
BRANCH   9  10
ATOM     10  C   UNL d   1      44.557  30.250  57.504  0.00  0.00     0.025 A 
ATOM     11  C   UNL d   1      44.435  30.429  56.695  0.00  0.00     0.002 A 
ATOM     12  C   UNL d   1      44.489  31.208  56.432  0.00  0.00     0.000 A 
ATOM     13  C   UNL d   1      44.668  31.822  56.988  0.00  0.00     0.000 A 
ATOM     14  C   UNL d   1      44.785  31.633  57.775  0.00  0.00     0.000 A 
ATOM     15  C   UNL d   1      44.731  30.853  58.039  0.00  0.00     0.002 A 
ENDBRANCH   9  10
ENDBRANCH   1   9
TORSDOF 3
ENDMDL
