MODEL 1
REMARK VINA RESULT:      46.3      0.000      0.000
REMARK  6 active torsions:
REMARK  status: ('A' for Active; 'I' for Inactive)
REMARK    1  A    between atoms: C_12  and  C_3 
REMARK    2  A    between atoms: N_16  and  C_4 
REMARK    3  A    between atoms: N_11  and  C_23 
REMARK    4  A    between atoms: C_26  and  N_16 
REMARK    5  A    between atoms: C_23  and  C_24 
REMARK    6  A    between atoms: C_24  and  C_26 
ROOT
ATOM      1  C   UNL d   1     -50.705  25.707  33.510  0.00  0.00     0.168 A 
ATOM      2  N   UNL d   1     -49.976  26.145  33.536  0.00  0.00    -0.184 N 
ATOM      3  C   UNL d   1     -50.693  24.901  33.412  0.00  0.00     0.057 A 
ATOM      4  C   UNL d   1     -50.008  26.945  33.634  0.00  0.00     0.218 A 
ATOM      5  N   UNL d   1     -49.255  24.930  33.364  0.00  0.00    -0.160 NA
ATOM      6  N   UNL d   1     -51.418  26.099  33.582  0.00  0.00    -0.227 NA
ATOM      7  C   UNL d   1     -50.722  27.350  33.708  0.00  0.00     0.071 A 
ATOM      8  C   UNL d   1     -49.962  24.505  33.338  0.00  0.00     0.124 A 
ATOM      9  C   UNL d   1     -51.440  26.919  33.682  0.00  0.00     0.087 A 
ATOM     10  C   UNL d   1     -52.190  27.332  33.759  0.00  0.00     0.021 C 
ENDROOT
BRANCH   4  11
ATOM     11  N   UNL d   1     -49.273  27.391  33.661  0.00  0.00    -0.380 NA
BRANCH  11  12
ATOM     12  C   UNL d   1     -48.549  27.842  33.761  0.00  0.00     0.164 C 
BRANCH  12  13
ATOM     13  C   UNL d   1     -48.504  28.423  34.379  0.00  0.00     0.054 C 
BRANCH  13  14
ATOM     14  C   UNL d   1     -47.781  28.508  34.826  0.00  0.00     0.084 C 
BRANCH  14  15
ATOM     15  N   UNL d   1     -47.592  29.262  35.201  0.00  0.00    -0.285 N 
ATOM     16  C   UNL d   1     -48.152  29.842  35.486  0.00  0.00     0.183 A 
ATOM     17  N   UNL d   1     -47.713  30.497  35.812  0.00  0.00    -0.222 NA
ATOM     18  C   UNL d   1     -46.879  30.319  35.727  0.00  0.00     0.120 A 
ATOM     19  C   UNL d   1     -46.803  29.561  35.352  0.00  0.00     0.102 A 
ENDBRANCH  14  15
ENDBRANCH  13  14
ENDBRANCH  12  13
ENDBRANCH  11  12
ENDBRANCH   4  11
BRANCH   3  20
ATOM     20  C   UNL d   1     -51.400  24.477  33.387  0.00  0.00     0.005 A 
ATOM     21  C   UNL d   1     -51.383  23.663  33.347  0.00  0.00     0.001 A 
ATOM     22  C   UNL d   1     -52.090  23.239  33.321  0.00  0.00     0.011 A 
ATOM     23  C   UNL d   1     -52.802  23.635  33.336  0.00  0.00     0.058 A 
ATOM     24  C   UNL d   1     -52.807  24.456  33.376  0.00  0.00     0.011 A 
ATOM     25 CL   UNL d   1     -53.543  23.190  33.309  0.00  0.00    -0.082 Cl
ATOM     26  C   UNL d   1     -52.111  24.874  33.401  0.00  0.00     0.001 A 
ENDBRANCH   3  20
TORSDOF 6
ENDMDL
