MODEL 1
REMARK VINA RESULT:      15.8      0.000      0.000
REMARK  6 active torsions:
REMARK  status: ('A' for Active; 'I' for Inactive)
REMARK    1  A    between atoms: C_9  and  N_1 
REMARK    2  A    between atoms: S_14  and  C_3 
REMARK    3  A    between atoms: N_8  and  C_10 
REMARK    4  A    between atoms: C_18  and  C_9 
REMARK    5  A    between atoms: C_19  and  S_14 
REMARK    6  A    between atoms: C_20  and  C_18 
ROOT
ATOM      1  N   UNL d   1     -44.827-121.560 -54.067  0.00  0.00    -0.195 NA
ATOM      2  C   UNL d   1     -44.485-121.639 -53.305  0.00  0.00     0.086 C 
ATOM      3  C   UNL d   1     -44.145-121.718 -52.569  0.00  0.00     0.170 C 
ENDROOT
BRANCH   3   4
ATOM      4  S   UNL d   1     -43.367-121.986 -52.497  0.00  0.00    -0.060 SA
BRANCH   4   5
ATOM      5  C   UNL d   1     -43.058-122.181 -51.750  0.00  0.00     0.178 A 
ATOM      6  N   UNL d   1     -42.243-122.234 -51.638  0.00  0.00    -0.253 N 
ATOM      7  C   UNL d   1     -41.938-122.428 -50.894  0.00  0.00     0.268 A 
ATOM      8  C   UNL d   1     -42.461-122.566 -50.271  0.00  0.00     0.076 A 
ATOM      9  O   UNL d   1     -41.126-122.481 -50.782  0.00  0.00    -0.267 OA
ATOM     10  C   UNL d   1     -42.154-122.757 -49.538  0.00  0.00     0.024 A 
ATOM     11  C   UNL d   1     -43.268-122.513 -50.382  0.00  0.00     0.088 A 
ATOM     12  C   UNL d   1     -42.663-122.899 -48.900  0.00  0.00     0.065 A 
ATOM     13  C   UNL d   1     -43.482-122.842 -49.024  0.00  0.00     0.019 A 
ATOM     14  C   UNL d   1     -43.783-122.652 -49.757  0.00  0.00     0.021 A 
ATOM     15  N   UNL d   1     -43.574-122.321 -51.119  0.00  0.00    -0.222 NA
BRANCH   6  16
ATOM     16  C   UNL d   1     -41.735-122.093 -52.272  0.00  0.00     0.085 C 
BRANCH  16  17
ATOM     17  C   UNL d   1     -41.352-122.726 -52.636  0.00  0.00     0.019 C 
BRANCH  17  18
ATOM     18  C   UNL d   1     -41.281-122.750 -53.461  0.00  0.00     0.002 A 
ATOM     19  C   UNL d   1     -41.194-122.053 -53.886  0.00  0.00     0.000 A 
ATOM     20  C   UNL d   1     -41.123-122.074 -54.707  0.00  0.00     0.000 A 
ATOM     21  C   UNL d   1     -41.140-122.805 -55.106  0.00  0.00     0.000 A 
ATOM     22  C   UNL d   1     -41.228-123.505 -54.672  0.00  0.00     0.000 A 
ATOM     23  C   UNL d   1     -41.299-123.484 -53.851  0.00  0.00     0.000 A 
ENDBRANCH  17  18
ENDBRANCH  16  17
ENDBRANCH   6  16
BRANCH  12  24
ATOM     24  N   UNL d   1     -42.366-123.091 -48.160  0.00  0.00    -0.300 N 
ATOM     25  C   UNL d   1     -42.760-122.843 -47.475  0.00  0.00     0.107 A 
ATOM     26  C   UNL d   1     -42.456-123.040 -46.739  0.00  0.00     0.142 A 
ATOM     27  O   UNL d   1     -41.758-123.484 -46.679  0.00  0.00    -0.300 OA
ATOM     28  C   UNL d   1     -41.364-123.732 -47.363  0.00  0.00     0.142 A 
ATOM     29  C   UNL d   1     -41.668-123.535 -48.108  0.00  0.00     0.107 A 
ENDBRANCH  12  24
ENDBRANCH   4   5
ENDBRANCH   3   4
TORSDOF 6
ENDMDL
