MODEL 1
REMARK VINA RESULT:      31.7      0.000      0.000
REMARK  4 active torsions:
REMARK  status: ('A' for Active; 'I' for Inactive)
REMARK    1  A    between atoms: C_3  and  C_1 
REMARK    2  A    between atoms: N_5  and  C_3 
REMARK    3  A    between atoms: C_10  and  C_3 
REMARK    4  A    between atoms: C_7  and  N_5 
ROOT
ATOM      1  C   UNL d   1      45.620 -18.279  43.677  0.00  0.00     0.086 C 
ENDROOT
BRANCH   1   2
ATOM      2  C   UNL d   1      45.737 -17.516  44.013  0.00  0.00     0.058 A 
ATOM      3  C   UNL d   1      45.276 -16.891  43.712  0.00  0.00     0.214 A 
ATOM      4  C   UNL d   1      45.397 -16.147  44.046  0.00  0.00     0.120 A 
ATOM      5  O   UNL d   1      44.726 -17.013  43.109  0.00  0.00    -0.285 OA
ATOM      6  N   UNL d   1      44.932 -15.504  43.746  0.00  0.00    -0.241 NA
ATOM      7  C   UNL d   1      45.947 -16.026  44.650  0.00  0.00     0.021 A 
ATOM      8  C   UNL d   1      45.053 -14.760  44.081  0.00  0.00     0.099 A 
ATOM      9  C   UNL d   1      45.603 -14.638  44.684  0.00  0.00     0.021 A 
ATOM     10  C   UNL d   1      46.031 -15.261  44.952  0.00  0.00     0.003 A 
ATOM     11  C   UNL d   1      46.376 -16.648  44.918  0.00  0.00     0.002 A 
ATOM     12  C   UNL d   1      46.287 -17.395  44.616  0.00  0.00     0.005 A 
ENDBRANCH   1   2
BRANCH   1  13
ATOM     13  N   UNL d   1      45.327 -18.355  42.904  0.00  0.00    -0.227 NA
BRANCH  13  14
ATOM     14  C   UNL d   1      45.761 -18.701  42.318  0.00  0.00     0.162 A 
ATOM     15  N   UNL d   1      45.751 -19.521  42.234  0.00  0.00    -0.225 NA
ATOM     16  C   UNL d   1      46.190 -19.894  41.639  0.00  0.00     0.101 A 
ATOM     17  C   UNL d   1      46.634 -19.419  41.137  0.00  0.00     0.021 A 
ATOM     18  C   UNL d   1      46.644 -18.599  41.221  0.00  0.00     0.005 A 
ATOM     19  C   UNL d   1      46.210 -18.253  41.808  0.00  0.00     0.039 A 
ENDBRANCH  13  14
ENDBRANCH   1  13
BRANCH   1  20
ATOM     20  C   UNL d   1      45.790 -18.952  44.097  0.00  0.00     0.018 A 
ATOM     21  C   UNL d   1      46.473 -18.998  44.528  0.00  0.00     0.002 A 
ATOM     22  C   UNL d   1      46.646 -19.682  44.955  0.00  0.00     0.000 A 
ATOM     23  C   UNL d   1      46.135 -20.321  44.951  0.00  0.00     0.000 A 
ATOM     24  C   UNL d   1      45.441 -20.265  44.508  0.00  0.00     0.000 A 
ATOM     25  C   UNL d   1      45.268 -19.580  44.081  0.00  0.00     0.002 A 
ENDBRANCH   1  20
TORSDOF 4
ENDMDL
