MODEL 1
REMARK VINA RESULT:      -6.0      0.000      0.000
REMARK  4 active torsions:
REMARK  status: ('A' for Active; 'I' for Inactive)
REMARK       I    between atoms: N_2  and  C_3 
REMARK    1  A    between atoms: C_3  and  C_8 
REMARK    2  A    between atoms: S_7  and  C_5 
REMARK    3  A    between atoms: C_10  and  C_6 
REMARK    4  A    between atoms: C_8  and  S_7 
ROOT
ATOM      1  N   UNL d   1     -41.965-123.812 -50.585  0.00  0.00    -0.148 NA
ATOM      2  N   UNL d   1     -41.746-123.817 -51.380  0.00  0.00    -0.141 NA
ATOM      3  C   UNL d   1     -41.337-123.181 -51.704  0.00  0.00     0.133 A 
ATOM      4  C   UNL d   1     -41.770-123.162 -50.113  0.00  0.00     0.103 A 
ATOM      5  C   UNL d   1     -41.363-122.526 -50.428  0.00  0.00     0.023 A 
ATOM      6  C   UNL d   1     -41.144-122.527 -51.218  0.00  0.00     0.029 A 
ENDROOT
BRANCH   3   7
ATOM      7  S   UNL d   1     -41.123-123.190 -52.492  0.00  0.00    -0.061 SA
BRANCH   7   8
ATOM      8  C   UNL d   1     -41.647-122.919 -53.065  0.00  0.00     0.098 C 
BRANCH   8   9
ATOM      9  C   UNL d   1     -41.526-123.111 -53.856  0.00  0.00     0.271 C 
ATOM     10  N   UNL d   1     -41.770-122.587 -54.445  0.00  0.00    -0.272 N 
ATOM     11  C   UNL d   1     -41.653-122.774 -55.230  0.00  0.00     0.083 A 
ATOM     12  C   UNL d   1     -42.132-121.877 -54.233  0.00  0.00     0.083 A 
ATOM     13  C   UNL d   1     -41.891-122.262 -55.819  0.00  0.00     0.019 A 
ATOM     14  C   UNL d   1     -42.258-121.541 -55.620  0.00  0.00     0.003 A 
ATOM     15  C   UNL d   1     -42.374-121.358 -54.823  0.00  0.00     0.019 A 
ATOM     16  O   UNL d   1     -41.167-123.815 -54.067  0.00  0.00    -0.266 OA
ENDBRANCH   8   9
ENDBRANCH   7   8
ENDBRANCH   3   7
BRANCH   4  17
ATOM     17  C   UNL d   1     -41.988-123.156 -49.317  0.00  0.00     0.019 A 
ATOM     18  C   UNL d   1     -42.747-122.903 -49.094  0.00  0.00     0.002 A 
ATOM     19  C   UNL d   1     -42.967-122.897 -48.295  0.00  0.00     0.000 A 
ATOM     20  C   UNL d   1     -42.429-123.145 -47.713  0.00  0.00     0.000 A 
ATOM     21  C   UNL d   1     -41.682-123.394 -47.931  0.00  0.00     0.000 A 
ATOM     22  C   UNL d   1     -41.452-123.404 -48.728  0.00  0.00     0.002 A 
ENDBRANCH   4  17
TORSDOF 4
ENDMDL
