MODEL 1
REMARK VINA RESULT:      80.0      0.000      0.000
REMARK  4 active torsions:
REMARK  status: ('A' for Active; 'I' for Inactive)
REMARK    1  A    between atoms: N_11  and  C_4 
REMARK    2  A    between atoms: C_13  and  C_17 
REMARK    3  A    between atoms: C_17  and  N_16 
REMARK    4  A    between atoms: O_29  and  C_18 
ROOT
ATOM      1  N   UNL d   1      44.872 -13.957  38.594  0.00  0.00    -0.195 N 
ATOM      2  C   UNL d   1      44.848 -14.244  37.837  0.00  0.00     0.168 A 
ATOM      3  C   UNL d   1      44.247 -14.712  37.598  0.00  0.00     0.073 A 
ATOM      4  C   UNL d   1      45.479 -13.492  38.816  0.00  0.00     0.153 A 
ATOM      5  N   UNL d   1      43.692 -14.605  38.877  0.00  0.00    -0.143 NA
ATOM      6  C   UNL d   1      43.668 -14.892  38.120  0.00  0.00     0.185 A 
ATOM      7  N   UNL d   1      45.432 -14.058  37.321  0.00  0.00    -0.227 NA
ATOM      8  C   UNL d   1      44.223 -14.996  36.848  0.00  0.00     0.007 A 
ATOM      9  N   UNL d   1      43.053 -15.366  37.892  0.00  0.00    -0.225 NA
ATOM     10  C   UNL d   1      46.061 -13.304  38.309  0.00  0.00     0.057 A 
ATOM     11  C   UNL d   1      43.621 -15.465  36.609  0.00  0.00     0.019 A 
ATOM     12  C   UNL d   1      46.037 -13.590  37.552  0.00  0.00     0.086 A 
ATOM     13  C   UNL d   1      43.029 -15.652  37.134  0.00  0.00     0.083 A 
ATOM     14  C   UNL d   1      44.811 -14.808  36.332  0.00  0.00     0.000 C 
ATOM     15  C   UNL d   1      46.647 -13.395  37.018  0.00  0.00     0.021 C 
ATOM     16  C   UNL d   1      42.428 -16.118  36.903  0.00  0.00     0.021 C 
ENDROOT
BRANCH   4  17
ATOM     17  N   UNL d   1      45.497 -13.199  39.599  0.00  0.00    -0.286 N 
ATOM     18  C   UNL d   1      46.031 -13.232  40.222  0.00  0.00     0.101 A 
ATOM     19  C   UNL d   1      45.848 -12.860  40.946  0.00  0.00     0.100 A 
ATOM     20  N   UNL d   1      45.132 -12.455  41.049  0.00  0.00    -0.300 N 
ATOM     21  C   UNL d   1      44.585 -12.424  40.404  0.00  0.00     0.100 A 
ATOM     22  C   UNL d   1      44.775 -12.799  39.682  0.00  0.00     0.101 A 
BRANCH  20  23
ATOM     23  C   UNL d   1      44.949 -12.084  41.770  0.00  0.00     0.082 C 
BRANCH  23  24
ATOM     24  C   UNL d   1      45.056 -12.483  42.484  0.00  0.00     0.042 A 
ATOM     25  C   UNL d   1      44.426 -12.538  43.029  0.00  0.00     0.096 A 
ATOM     26  C   UNL d   1      44.546 -12.941  43.742  0.00  0.00     0.027 A 
ATOM     27  C   UNL d   1      45.277 -13.287  43.921  0.00  0.00     0.032 A 
ATOM     28  C   UNL d   1      45.909 -13.231  43.375  0.00  0.00     0.140 A 
ATOM     29  C   UNL d   1      45.792 -12.827  42.655  0.00  0.00     0.033 A 
ATOM     30  F   UNL d   1      46.647 -13.575  43.544  0.00  0.00    -0.204 F 
BRANCH  25  31
ATOM     31  O   UNL d   1      43.702 -12.199  42.859  0.00  0.00    -0.328 OA
ATOM     32  C   UNL d   1      43.074 -12.248  43.405  0.00  0.00     0.181 C 
ENDBRANCH  25  31
ENDBRANCH  23  24
ENDBRANCH  20  23
ENDBRANCH   4  17
TORSDOF 4
ENDMDL
MODEL 2
REMARK VINA RESULT:      80.5      4.476      6.582
REMARK  4 active torsions:
REMARK  status: ('A' for Active; 'I' for Inactive)
REMARK    1  A    between atoms: N_11  and  C_4 
REMARK    2  A    between atoms: C_13  and  C_17 
REMARK    3  A    between atoms: C_17  and  N_16 
REMARK    4  A    between atoms: O_29  and  C_18 
ROOT
ATOM      1  N   UNL d   1      46.187 -17.948  41.647  0.00  0.00    -0.195 N 
ATOM      2  C   UNL d   1      46.223 -18.265  42.391  0.00  0.00     0.168 A 
ATOM      3  C   UNL d   1      46.113 -17.806  43.035  0.00  0.00     0.073 A 
ATOM      4  C   UNL d   1      46.300 -18.422  41.015  0.00  0.00     0.153 A 
ATOM      5  N   UNL d   1      45.928 -16.710  42.186  0.00  0.00    -0.143 NA
ATOM      6  C   UNL d   1      45.965 -17.027  42.931  0.00  0.00     0.185 A 
ATOM      7  N   UNL d   1      46.372 -19.047  42.485  0.00  0.00    -0.227 NA
ATOM      8  C   UNL d   1      46.149 -18.120  43.772  0.00  0.00     0.007 A 
ATOM      9  N   UNL d   1      45.850 -16.549  43.573  0.00  0.00    -0.225 NA
ATOM     10  C   UNL d   1      46.448 -19.197  41.102  0.00  0.00     0.057 A 
ATOM     11  C   UNL d   1      46.037 -17.659  44.416  0.00  0.00     0.019 A 
ATOM     12  C   UNL d   1      46.484 -19.514  41.847  0.00  0.00     0.086 A 
ATOM     13  C   UNL d   1      45.887 -16.866  44.318  0.00  0.00     0.083 A 
ATOM     14  C   UNL d   1      46.298 -18.905  43.865  0.00  0.00     0.000 C 
ATOM     15  C   UNL d   1      46.639 -20.328  41.941  0.00  0.00     0.021 C 
ATOM     16  C   UNL d   1      45.775 -16.404  44.954  0.00  0.00     0.021 C 
ENDROOT
BRANCH   4  17
ATOM     17  N   UNL d   1      46.261 -18.088  40.250  0.00  0.00    -0.286 N 
ATOM     18  C   UNL d   1      46.293 -18.380  39.483  0.00  0.00     0.101 A 
ATOM     19  C   UNL d   1      46.233 -17.857  38.836  0.00  0.00     0.100 A 
ATOM     20  N   UNL d   1      46.141 -17.041  38.953  0.00  0.00    -0.300 N 
ATOM     21  C   UNL d   1      46.108 -16.744  39.745  0.00  0.00     0.100 A 
ATOM     22  C   UNL d   1      46.169 -17.275  40.388  0.00  0.00     0.101 A 
BRANCH  20  23
ATOM     23  C   UNL d   1      46.081 -16.520  38.310  0.00  0.00     0.082 C 
BRANCH  23  24
ATOM     24  C   UNL d   1      45.343 -16.256  38.052  0.00  0.00     0.042 A 
ATOM     25  C   UNL d   1      45.283 -15.791  37.361  0.00  0.00     0.096 A 
ATOM     26  C   UNL d   1      44.537 -15.533  37.114  0.00  0.00     0.027 A 
ATOM     27  C   UNL d   1      43.853 -15.729  37.539  0.00  0.00     0.032 A 
ATOM     28  C   UNL d   1      43.912 -16.195  38.231  0.00  0.00     0.140 A 
ATOM     29  C   UNL d   1      44.662 -16.457  38.484  0.00  0.00     0.033 A 
ATOM     30  F   UNL d   1      43.233 -16.397  38.666  0.00  0.00    -0.204 F 
BRANCH  25  31
ATOM     31  O   UNL d   1      45.954 -15.595  36.937  0.00  0.00    -0.328 OA
ATOM     32  C   UNL d   1      46.254 -14.817  36.958  0.00  0.00     0.181 C 
ENDBRANCH  25  31
ENDBRANCH  23  24
ENDBRANCH  20  23
ENDBRANCH   4  17
TORSDOF 4
ENDMDL
