MODEL 1
REMARK VINA RESULT:      -3.6      0.000      0.000
REMARK  9 active torsions:
REMARK  status: ('A' for Active; 'I' for Inactive)
REMARK    1  A    between atoms: N_3  and  C_1 
REMARK    2  A    between atoms: C_20  and  N_2 
REMARK       I    between atoms: C_7  and  N_3 
REMARK    3  A    between atoms: C_10  and  C_7 
REMARK    4  A    between atoms: C_9  and  C_10 
REMARK    5  A    between atoms: C_15  and  C_9 
REMARK       I    between atoms: C_12  and  N_13 
REMARK    6  A    between atoms: N_13  and  C_14 
REMARK    7  A    between atoms: C_26  and  C_20 
REMARK    8  A    between atoms: O_22  and  C_26 
REMARK    9  A    between atoms: C_27  and  O_22 
ROOT
ATOM      1  C   UNL d   1      58.106  -0.904  30.245  0.00  0.00     0.182 A 
ATOM      2  N   UNL d   1      58.831  -0.698  29.919  0.00  0.00    -0.283 N 
ATOM      3  S   UNL d   1      57.960  -1.693  30.060  0.00  0.00    -0.048 SA
ATOM      4  C   UNL d   1      58.600  -1.976  29.616  0.00  0.00     0.050 A 
ATOM      5  C   UNL d   1      59.140  -1.357  29.529  0.00  0.00     0.072 A 
ATOM      6  C   UNL d   1      58.758  -2.712  29.283  0.00  0.00     0.027 A 
ATOM      7  C   UNL d   1      59.839  -1.476  29.108  0.00  0.00     0.020 A 
ATOM      8  C   UNL d   1      59.456  -2.831  28.862  0.00  0.00     0.085 A 
ATOM      9  C   UNL d   1      59.997  -2.213  28.775  0.00  0.00     0.021 A 
ENDROOT
BRANCH   1  10
ATOM     10  N   UNL d   1      57.616  -0.403  30.680  0.00  0.00    -0.184 NA
ATOM     11  C   UNL d   1      57.160  -0.713  31.292  0.00  0.00     0.281 C 
ATOM     12  O   UNL d   1      57.197  -1.517  31.464  0.00  0.00    -0.265 OA
BRANCH  11  13
ATOM     13  C   UNL d   1      56.666  -0.218  31.733  0.00  0.00     0.063 C 
BRANCH  13  14
ATOM     14  C   UNL d   1      56.929   0.102  32.440  0.00  0.00     0.006 C 
BRANCH  14  15
ATOM     15  C   UNL d   1      56.411   0.243  33.058  0.00  0.00     0.011 A 
ATOM     16  C   UNL d   1      56.699   0.530  33.781  0.00  0.00     0.058 A 
ATOM     17 CL   UNL d   1      57.517   0.673  33.872  0.00  0.00    -0.082 Cl
ATOM     18  C   UNL d   1      56.170   0.675  34.415  0.00  0.00     0.011 A 
ATOM     19  C   UNL d   1      55.371   0.538  34.332  0.00  0.00     0.001 A 
ATOM     20  C   UNL d   1      55.081   0.251  33.612  0.00  0.00     0.000 A 
ATOM     21  C   UNL d   1      55.601   0.106  32.983  0.00  0.00     0.001 A 
ENDBRANCH  14  15
ENDBRANCH  13  14
ENDBRANCH  11  13
ENDBRANCH   1  10
BRANCH   2  22
ATOM     22  C   UNL d   1      59.196   0.042  29.968  0.00  0.00     0.109 C 
BRANCH  22  23
ATOM     23  C   UNL d   1      60.016   0.101  30.027  0.00  0.00     0.142 C 
BRANCH  23  24
ATOM     24  O   UNL d   1      60.353   0.678  30.499  0.00  0.00    -0.302 OA
BRANCH  24  25
ATOM     25  C   UNL d   1      60.408   0.584  31.321  0.00  0.00     0.123 C 
ATOM     26  C   UNL d   1      61.124   0.371  31.678  0.00  0.00     0.029 C 
ENDBRANCH  24  25
ENDBRANCH  23  24
ENDBRANCH  22  23
ENDBRANCH   2  22
BRANCH   8  27
ATOM     27  N   UNL d   1      59.619  -3.578  28.523  0.00  0.00    -0.208 NA
ATOM     28  C   UNL d   1      60.253  -4.016  28.793  0.00  0.00     0.279 C 
ATOM     29  O   UNL d   1      60.411  -4.752  28.458  0.00  0.00    -0.265 OA
ATOM     30  C   UNL d   1      60.738  -3.733  29.399  0.00  0.00     0.068 C 
ENDBRANCH   8  27
TORSDOF 9
ENDMDL
