MODEL 1
REMARK VINA RESULT:      -1.2      0.000      0.000
REMARK  5 active torsions:
REMARK  status: ('A' for Active; 'I' for Inactive)
REMARK    1  A    between atoms: N_7  and  C_1 
REMARK    2  A    between atoms: C_4  and  C_3 
REMARK       I    between atoms: C_8  and  N_7 
REMARK    3  A    between atoms: C_15  and  C_8 
REMARK    4  A    between atoms: O_20  and  C_15 
REMARK    5  A    between atoms: C_22  and  O_20 
ROOT
ATOM      1  C   UNL d   1      58.889  -9.388  33.134  0.00  0.00     0.204 A 
ATOM      2  S   UNL d   1      59.360  -8.788  33.439  0.00  0.00    -0.031 SA
ATOM      3  C   UNL d   1      59.303  -8.813  34.271  0.00  0.00     0.119 A 
ATOM      4  N   UNL d   1      58.536  -9.791  33.766  0.00  0.00    -0.123 NA
ATOM      5  N   UNL d   1      58.801  -9.425  34.457  0.00  0.00    -0.143 NA
ENDROOT
BRANCH   1   6
ATOM      6  N   UNL d   1      58.749  -9.604  32.348  0.00  0.00    -0.248 N 
ATOM      7  C   UNL d   1      57.927  -9.604  32.072  0.00  0.00     0.291 C 
ATOM      8  O   UNL d   1      57.302  -9.384  32.612  0.00  0.00    -0.264 OA
ATOM      9  C   UNL d   1      59.360  -9.810  31.853  0.00  0.00     0.104 C 
BRANCH   7  10
ATOM     10  C   UNL d   1      57.757  -9.815  31.292  0.00  0.00     0.184 C 
BRANCH  10  11
ATOM     11  O   UNL d   1      57.047  -9.535  30.946  0.00  0.00    -0.300 OA
BRANCH  11  12
ATOM     12  C   UNL d   1      57.066  -9.390  30.126  0.00  0.00     0.100 A 
ATOM     13  C   UNL d   1      57.585  -8.859  29.768  0.00  0.00     0.025 A 
ATOM     14  C   UNL d   1      57.583  -8.735  28.963  0.00  0.00     0.002 A 
ATOM     15  C   UNL d   1      57.052  -9.139  28.455  0.00  0.00     0.000 A 
ATOM     16  C   UNL d   1      56.509  -9.692  28.816  0.00  0.00     0.002 A 
ATOM     17  C   UNL d   1      56.518  -9.817  29.658  0.00  0.00     0.025 A 
ENDBRANCH  11  12
ENDBRANCH  10  11
ENDBRANCH   7  10
ENDBRANCH   1   6
BRANCH   3  18
ATOM     18  C   UNL d   1      59.653  -8.347  34.856  0.00  0.00     0.081 A 
ATOM     19  C   UNL d   1      59.608  -7.640  35.241  0.00  0.00    -0.017 A 
ATOM     20  C   UNL d   1      60.136  -7.479  35.798  0.00  0.00    -0.008 A 
ATOM     21  C   UNL d   1      60.059  -6.740  36.174  0.00  0.00    -0.001 A 
ATOM     22  C   UNL d   1      60.651  -8.100  35.874  0.00  0.00    -0.022 A 
ATOM     23  C   UNL d   1      60.285  -7.480  35.927  0.00  0.00    -0.008 A 
ATOM     24  C   UNL d   1      59.822  -7.746  35.364  0.00  0.00    -0.017 A 
ATOM     25  C   UNL d   1      60.918  -8.217  36.037  0.00  0.00    -0.022 A 
ATOM     26  C   UNL d   1      60.787  -8.859  35.537  0.00  0.00     0.045 A 
ATOM     27  C   UNL d   1      60.200  -8.947  34.973  0.00  0.00     0.023 A 
ENDBRANCH   3  18
TORSDOF 5
ENDMDL
MODEL 2
REMARK VINA RESULT:       0.5      7.963      9.508
REMARK  5 active torsions:
REMARK  status: ('A' for Active; 'I' for Inactive)
REMARK    1  A    between atoms: N_7  and  C_1 
REMARK    2  A    between atoms: C_4  and  C_3 
REMARK       I    between atoms: C_8  and  N_7 
REMARK    3  A    between atoms: C_15  and  C_8 
REMARK    4  A    between atoms: O_20  and  C_15 
REMARK    5  A    between atoms: C_22  and  O_20 
ROOT
ATOM      1  C   UNL d   1      57.909  -0.520  30.370  0.00  0.00     0.204 A 
ATOM      2  S   UNL d   1      58.328  -1.227  30.359  0.00  0.00    -0.031 SA
ATOM      3  C   UNL d   1      58.527  -1.398  29.566  0.00  0.00     0.119 A 
ATOM      4  N   UNL d   1      57.842  -0.244  29.591  0.00  0.00    -0.123 NA
ATOM      5  N   UNL d   1      58.227  -0.795  29.111  0.00  0.00    -0.143 NA
ENDROOT
BRANCH   1   6
ATOM      6  N   UNL d   1      57.585  -0.106  31.007  0.00  0.00    -0.248 N 
ATOM      7  C   UNL d   1      57.061  -0.540  31.544  0.00  0.00     0.291 C 
ATOM      8  O   UNL d   1      56.901  -1.367  31.397  0.00  0.00    -0.264 OA
ATOM      9  C   UNL d   1      57.753   0.681  31.126  0.00  0.00     0.104 C 
BRANCH   7  10
ATOM     10  C   UNL d   1      56.723  -0.152  32.190  0.00  0.00     0.184 C 
BRANCH  10  11
ATOM     11  O   UNL d   1      56.189  -0.575  32.678  0.00  0.00    -0.300 OA
BRANCH  11  12
ATOM     12  C   UNL d   1      55.864  -0.158  33.321  0.00  0.00     0.100 A 
ATOM     13  C   UNL d   1      56.309   0.117  33.959  0.00  0.00     0.025 A 
ATOM     14  C   UNL d   1      55.967   0.522  34.577  0.00  0.00     0.002 A 
ATOM     15  C   UNL d   1      55.144   0.682  34.598  0.00  0.00     0.000 A 
ATOM     16  C   UNL d   1      54.674   0.402  33.942  0.00  0.00     0.002 A 
ATOM     17  C   UNL d   1      55.038  -0.021  33.300  0.00  0.00     0.025 A 
ENDBRANCH  11  12
ENDBRANCH  10  11
ENDBRANCH   7  10
ENDBRANCH   1   6
BRANCH   3  18
ATOM     18  C   UNL d   1      58.941  -2.029  29.231  0.00  0.00     0.081 A 
ATOM     19  C   UNL d   1      58.879  -2.798  28.995  0.00  0.00    -0.017 A 
ATOM     20  C   UNL d   1      59.509  -3.149  28.687  0.00  0.00    -0.008 A 
ATOM     21  C   UNL d   1      59.410  -3.942  28.455  0.00  0.00    -0.001 A 
ATOM     22  C   UNL d   1      60.131  -2.630  28.670  0.00  0.00    -0.022 A 
ATOM     23  C   UNL d   1      59.686  -3.196  28.618  0.00  0.00    -0.008 A 
ATOM     24  C   UNL d   1      59.136  -2.750  28.933  0.00  0.00    -0.017 A 
ATOM     25  C   UNL d   1      60.451  -2.587  28.587  0.00  0.00    -0.022 A 
ATOM     26  C   UNL d   1      60.301  -1.833  28.882  0.00  0.00     0.045 A 
ATOM     27  C   UNL d   1      59.601  -1.544  29.191  0.00  0.00     0.023 A 
ENDBRANCH   3  18
TORSDOF 5
ENDMDL
