MODEL 1
REMARK VINA RESULT:      -4.7      0.000      0.000
REMARK  3 active torsions:
REMARK  status: ('A' for Active; 'I' for Inactive)
REMARK    1  A    between atoms: C_3  and  N_1 
REMARK    2  A    between atoms: N_2  and  C_4 
REMARK    3  A    between atoms: C_7  and  C_8 
ROOT
ATOM      1  C   UNL d   1      56.568  -0.370  32.577  0.00  0.00     0.146 A 
ATOM      2  C   UNL d   1      56.843  -0.379  31.794  0.00  0.00     0.025 A 
ATOM      3  C   UNL d   1      57.450   0.142  31.557  0.00  0.00     0.002 A 
ATOM      4  C   UNL d   1      56.901   0.161  33.130  0.00  0.00     0.125 A 
ATOM      5  C   UNL d   1      57.780   0.668  32.105  0.00  0.00     0.002 A 
ATOM      6  C   UNL d   1      57.508   0.681  32.893  0.00  0.00     0.023 A 
ATOM      7  N   UNL d   1      56.632   0.170  33.896  0.00  0.00    -0.146 N 
ENDROOT
BRANCH   3   8
ATOM      8  C   UNL d   1      57.723   0.134  30.782  0.00  0.00     0.002 A 
ATOM      9  C   UNL d   1      58.289  -0.417  30.546  0.00  0.00     0.025 A 
ATOM     10  C   UNL d   1      58.559  -0.420  29.769  0.00  0.00     0.146 A 
ATOM     11  C   UNL d   1      58.266   0.125  29.225  0.00  0.00     0.125 A 
ATOM     12  C   UNL d   1      57.701   0.676  29.461  0.00  0.00     0.023 A 
ATOM     13  N   UNL d   1      58.536   0.119  28.455  0.00  0.00    -0.146 N 
ATOM     14  C   UNL d   1      57.428   0.682  30.240  0.00  0.00     0.002 A 
BRANCH  10  15
ATOM     15  N   UNL d   1      59.122  -0.968  29.534  0.00  0.00    -0.112 N 
ATOM     16  O   UNL d   1      58.961  -1.733  29.272  0.00  0.00    -0.532 OA
ATOM     17  O   UNL d   1      59.924  -0.823  29.531  0.00  0.00    -0.532 OA
ENDBRANCH  10  15
ENDBRANCH   3   8
BRANCH   1  18
ATOM     18  N   UNL d   1      55.976  -0.878  32.808  0.00  0.00    -0.112 N 
ATOM     19  O   UNL d   1      55.204  -0.645  32.992  0.00  0.00    -0.532 OA
ATOM     20  O   UNL d   1      56.076  -1.677  32.883  0.00  0.00    -0.532 OA
ENDBRANCH   1  18
TORSDOF 3
ENDMDL
MODEL 2
REMARK VINA RESULT:      -4.7      0.276      3.941
REMARK  3 active torsions:
REMARK  status: ('A' for Active; 'I' for Inactive)
REMARK    1  A    between atoms: C_3  and  N_1 
REMARK    2  A    between atoms: N_2  and  C_4 
REMARK    3  A    between atoms: C_7  and  C_8 
ROOT
ATOM      1  C   UNL d   1      58.350  -0.652  29.785  0.00  0.00     0.146 A 
ATOM      2  C   UNL d   1      58.083  -0.619  30.570  0.00  0.00     0.025 A 
ATOM      3  C   UNL d   1      57.664   0.048  30.843  0.00  0.00     0.002 A 
ATOM      4  C   UNL d   1      58.200  -0.013  29.267  0.00  0.00     0.125 A 
ATOM      5  C   UNL d   1      57.515   0.682  30.330  0.00  0.00     0.002 A 
ATOM      6  C   UNL d   1      57.781   0.655  29.540  0.00  0.00     0.023 A 
ATOM      7  N   UNL d   1      58.461  -0.044  28.499  0.00  0.00    -0.146 N 
ENDROOT
BRANCH   3   8
ATOM      8  C   UNL d   1      57.399   0.081  31.621  0.00  0.00     0.002 A 
ATOM      9  C   UNL d   1      56.825  -0.447  31.886  0.00  0.00     0.025 A 
ATOM     10  C   UNL d   1      56.563  -0.410  32.666  0.00  0.00     0.146 A 
ATOM     11  C   UNL d   1      56.872   0.153  33.181  0.00  0.00     0.125 A 
ATOM     12  C   UNL d   1      57.445   0.682  32.915  0.00  0.00     0.023 A 
ATOM     13  N   UNL d   1      56.609   0.187  33.953  0.00  0.00    -0.146 N 
ATOM     14  C   UNL d   1      57.710   0.647  32.135  0.00  0.00     0.002 A 
BRANCH  10  15
ATOM     15  N   UNL d   1      55.992  -0.936  32.930  0.00  0.00    -0.112 N 
ATOM     16  O   UNL d   1      55.180  -0.792  32.940  0.00  0.00    -0.532 OA
ATOM     17  O   UNL d   1      56.159  -1.679  33.221  0.00  0.00    -0.532 OA
ENDBRANCH  10  15
ENDBRANCH   3   8
BRANCH   1  18
ATOM     18  N   UNL d   1      58.758  -1.303  29.519  0.00  0.00    -0.112 N 
ATOM     19  O   UNL d   1      59.580  -1.339  29.434  0.00  0.00    -0.532 OA
ATOM     20  O   UNL d   1      58.401  -1.996  29.304  0.00  0.00    -0.532 OA
ENDBRANCH   1  18
TORSDOF 3
ENDMDL
MODEL 3
REMARK VINA RESULT:      -3.0      1.885      4.421
REMARK  3 active torsions:
REMARK  status: ('A' for Active; 'I' for Inactive)
REMARK    1  A    between atoms: C_3  and  N_1 
REMARK    2  A    between atoms: N_2  and  C_4 
REMARK    3  A    between atoms: C_7  and  C_8 
ROOT
ATOM      1  C   UNL d   1      57.302  -0.150  31.146  0.00  0.00     0.146 A 
ATOM      2  C   UNL d   1      56.872   0.126  31.801  0.00  0.00     0.025 A 
ATOM      3  C   UNL d   1      56.486  -0.414  32.306  0.00  0.00     0.002 A 
ATOM      4  C   UNL d   1      57.348  -0.970  30.993  0.00  0.00     0.125 A 
ATOM      5  C   UNL d   1      56.531  -1.228  32.154  0.00  0.00     0.002 A 
ATOM      6  C   UNL d   1      56.962  -1.510  31.498  0.00  0.00     0.023 A 
ATOM      7  N   UNL d   1      57.768  -1.240  30.353  0.00  0.00    -0.146 N 
ENDROOT
BRANCH   3   8
ATOM      8  C   UNL d   1      56.060  -0.143  32.954  0.00  0.00     0.002 A 
ATOM      9  C   UNL d   1      56.448   0.051  33.655  0.00  0.00     0.025 A 
ATOM     10  C   UNL d   1      56.017   0.322  34.301  0.00  0.00     0.146 A 
ATOM     11  C   UNL d   1      55.199   0.401  34.251  0.00  0.00     0.125 A 
ATOM     12  C   UNL d   1      54.811   0.207  33.551  0.00  0.00     0.023 A 
ATOM     13  N   UNL d   1      54.775   0.670  34.894  0.00  0.00    -0.146 N 
ATOM     14  C   UNL d   1      55.240  -0.065  32.901  0.00  0.00     0.002 A 
BRANCH  10  15
ATOM     15  N   UNL d   1      56.404   0.514  34.998  0.00  0.00    -0.112 N 
ATOM     16  O   UNL d   1      56.036   0.671  35.719  0.00  0.00    -0.532 OA
ATOM     17  O   UNL d   1      57.214   0.576  35.066  0.00  0.00    -0.532 OA
ENDBRANCH  10  15
ENDBRANCH   3   8
BRANCH   1  18
ATOM     18  N   UNL d   1      57.679   0.377  30.654  0.00  0.00    -0.112 N 
ATOM     19  O   UNL d   1      57.354   0.682  29.958  0.00  0.00    -0.532 OA
ATOM     20  O   UNL d   1      58.422   0.665  30.793  0.00  0.00    -0.532 OA
ENDBRANCH   1  18
TORSDOF 3
ENDMDL
MODEL 4
REMARK VINA RESULT:      -2.7      1.183      3.856
REMARK  3 active torsions:
REMARK  status: ('A' for Active; 'I' for Inactive)
REMARK    1  A    between atoms: C_3  and  N_1 
REMARK    2  A    between atoms: N_2  and  C_4 
REMARK    3  A    between atoms: C_7  and  C_8 
ROOT
ATOM      1  C   UNL d   1      58.765  -1.436  29.593  0.00  0.00     0.146 A 
ATOM      2  C   UNL d   1      58.142  -1.219  30.098  0.00  0.00     0.025 A 
ATOM      3  C   UNL d   1      58.172  -0.496  30.512  0.00  0.00     0.002 A 
ATOM      4  C   UNL d   1      59.423  -0.930  29.501  0.00  0.00     0.125 A 
ATOM      5  C   UNL d   1      58.824   0.007  30.421  0.00  0.00     0.002 A 
ATOM      6  C   UNL d   1      59.452  -0.207  29.916  0.00  0.00     0.023 A 
ATOM      7  N   UNL d   1      60.032  -1.141  29.008  0.00  0.00    -0.146 N 
ENDROOT
BRANCH   3   8
ATOM      8  C   UNL d   1      57.556  -0.280  31.012  0.00  0.00     0.002 A 
ATOM      9  C   UNL d   1      57.290  -0.800  31.592  0.00  0.00     0.025 A 
ATOM     10  C   UNL d   1      56.673  -0.579  32.090  0.00  0.00     0.146 A 
ATOM     11  C   UNL d   1      56.321   0.161  32.011  0.00  0.00     0.125 A 
ATOM     12  C   UNL d   1      56.587   0.682  31.430  0.00  0.00     0.023 A 
ATOM     13  N   UNL d   1      55.709   0.377  32.506  0.00  0.00    -0.146 N 
ATOM     14  C   UNL d   1      57.205   0.463  30.930  0.00  0.00     0.002 A 
BRANCH  10  15
ATOM     15  N   UNL d   1      56.408  -1.097  32.668  0.00  0.00    -0.112 N 
ATOM     16  O   UNL d   1      56.843  -1.342  33.324  0.00  0.00    -0.532 OA
ATOM     17  O   UNL d   1      55.669  -1.441  32.665  0.00  0.00    -0.532 OA
ENDBRANCH  10  15
ENDBRANCH   3   8
BRANCH   1  18
ATOM     18  N   UNL d   1      58.736  -2.141  29.189  0.00  0.00    -0.112 N 
ATOM     19  O   UNL d   1      59.130  -2.831  29.420  0.00  0.00    -0.532 OA
ATOM     20  O   UNL d   1      58.313  -2.249  28.508  0.00  0.00    -0.532 OA
ENDBRANCH   1  18
TORSDOF 3
ENDMDL
MODEL 5
REMARK VINA RESULT:      -2.0      2.422      4.401
REMARK  3 active torsions:
REMARK  status: ('A' for Active; 'I' for Inactive)
REMARK    1  A    between atoms: C_3  and  N_1 
REMARK    2  A    between atoms: N_2  and  C_4 
REMARK    3  A    between atoms: C_7  and  C_8 
ROOT
ATOM      1  C   UNL d   1      59.519  -3.503  28.834  0.00  0.00     0.146 A 
ATOM      2  C   UNL d   1      59.072  -2.805  28.885  0.00  0.00     0.025 A 
ATOM      3  C   UNL d   1      59.442  -2.085  29.087  0.00  0.00     0.002 A 
ATOM      4  C   UNL d   1      60.341  -3.483  28.985  0.00  0.00     0.125 A 
ATOM      5  C   UNL d   1      60.257  -2.065  29.237  0.00  0.00     0.002 A 
ATOM      6  C   UNL d   1      60.710  -2.763  29.187  0.00  0.00     0.023 A 
ATOM      7  N   UNL d   1      60.779  -4.165  28.934  0.00  0.00    -0.146 N 
ENDROOT
BRANCH   3   8
ATOM      8  C   UNL d   1      59.000  -1.393  29.139  0.00  0.00     0.002 A 
ATOM      9  C   UNL d   1      58.718  -1.134  29.868  0.00  0.00     0.025 A 
ATOM     10  C   UNL d   1      58.276  -0.441  29.914  0.00  0.00     0.146 A 
ATOM     11  C   UNL d   1      58.116  -0.005  29.234  0.00  0.00     0.125 A 
ATOM     12  C   UNL d   1      58.399  -0.264  28.505  0.00  0.00     0.023 A 
ATOM     13  N   UNL d   1      57.678   0.682  29.284  0.00  0.00    -0.146 N 
ATOM     14  C   UNL d   1      58.842  -0.959  28.455  0.00  0.00     0.002 A 
BRANCH  10  15
ATOM     15  N   UNL d   1      57.995  -0.184  30.640  0.00  0.00    -0.112 N 
ATOM     16  O   UNL d   1      57.314  -0.462  31.013  0.00  0.00    -0.532 OA
ATOM     17  O   UNL d   1      58.359   0.389  31.091  0.00  0.00    -0.532 OA
ENDBRANCH  10  15
ENDBRANCH   3   8
BRANCH   1  18
ATOM     18  N   UNL d   1      59.159  -4.204  28.637  0.00  0.00    -0.112 N 
ATOM     19  O   UNL d   1      58.342  -4.308  28.565  0.00  0.00    -0.532 OA
ATOM     20  O   UNL d   1      59.565  -4.888  28.487  0.00  0.00    -0.532 OA
ENDBRANCH   1  18
TORSDOF 3
ENDMDL
MODEL 6
REMARK VINA RESULT:      -2.0      9.242      9.680
REMARK  3 active torsions:
REMARK  status: ('A' for Active; 'I' for Inactive)
REMARK    1  A    between atoms: C_3  and  N_1 
REMARK    2  A    between atoms: N_2  and  C_4 
REMARK    3  A    between atoms: C_7  and  C_8 
ROOT
ATOM      1  C   UNL d   1      59.655  -8.556  35.128  0.00  0.00     0.146 A 
ATOM      2  C   UNL d   1      59.502  -8.684  34.323  0.00  0.00     0.025 A 
ATOM      3  C   UNL d   1      59.881  -9.307  33.918  0.00  0.00     0.002 A 
ATOM      4  C   UNL d   1      60.190  -9.052  35.535  0.00  0.00     0.125 A 
ATOM      5  C   UNL d   1      60.412  -9.799  34.321  0.00  0.00     0.002 A 
ATOM      6  C   UNL d   1      60.569  -9.675  35.130  0.00  0.00     0.023 A 
ATOM      7  N   UNL d   1      60.341  -8.928  36.323  0.00  0.00    -0.146 N 
ENDROOT
BRANCH   3   8
ATOM      8  C   UNL d   1      59.730  -9.435  33.120  0.00  0.00     0.002 A 
ATOM      9  C   UNL d   1      58.955  -9.516  32.852  0.00  0.00     0.025 A 
ATOM     10  C   UNL d   1      58.810  -9.644  32.052  0.00  0.00     0.146 A 
ATOM     11  C   UNL d   1      59.435  -9.691  31.518  0.00  0.00     0.125 A 
ATOM     12  C   UNL d   1      60.210  -9.610  31.787  0.00  0.00     0.023 A 
ATOM     13  N   UNL d   1      59.287  -9.818  30.726  0.00  0.00    -0.146 N 
ATOM     14  C   UNL d   1      60.359  -9.481  32.588  0.00  0.00     0.002 A 
BRANCH  10  15
ATOM     15  N   UNL d   1      58.039  -9.724  31.785  0.00  0.00    -0.112 N 
ATOM     16  O   UNL d   1      57.811  -9.775  30.994  0.00  0.00    -0.532 OA
ATOM     17  O   UNL d   1      57.390  -9.765  32.277  0.00  0.00    -0.532 OA
ENDBRANCH  10  15
ENDBRANCH   3   8
BRANCH   1  18
ATOM     18  N   UNL d   1      59.285  -7.948  35.523  0.00  0.00    -0.112 N 
ATOM     19  O   UNL d   1      58.663  -8.047  36.058  0.00  0.00    -0.532 OA
ATOM     20  O   UNL d   1      59.488  -7.170  35.435  0.00  0.00    -0.532 OA
ENDBRANCH   1  18
TORSDOF 3
ENDMDL
