MODEL 1
REMARK VINA RESULT:      58.3      0.000      0.000
REMARK  8 active torsions:
REMARK  status: ('A' for Active; 'I' for Inactive)
REMARK    1  A    between atoms: S_10  and  C_2 
REMARK    2  A    between atoms: C_7  and  C_4 
REMARK    3  A    between atoms: C_17  and  S_10 
REMARK    4  A    between atoms: C_14  and  C_17 
REMARK    5  A    between atoms: O_18  and  C_14 
REMARK    6  A    between atoms: O_19  and  C_15 
REMARK    7  A    between atoms: C_22  and  O_18 
REMARK    8  A    between atoms: C_24  and  C_22 
ROOT
ATOM      1  C   UNL d   1      59.067  49.697  50.848  0.00  0.00     0.093 A 
ATOM      2  C   UNL d   1      58.337  49.701  51.251  0.00  0.00     0.124 A 
ATOM      3  N   UNL d   1      58.324  49.704  52.075  0.00  0.00    -0.200 NA
ATOM      4  C   UNL d   1      59.772  49.694  51.276  0.00  0.00     0.028 A 
ATOM      5  C   UNL d   1      59.756  49.697  52.098  0.00  0.00     0.127 A 
ATOM      6  C   UNL d   1      59.027  49.701  52.500  0.00  0.00     0.289 A 
ATOM      7  C   UNL d   1      59.085  49.694  50.030  0.00  0.00     0.103 C 
ATOM      8  C   UNL d   1      60.461  49.695  52.525  0.00  0.00     0.106 C 
ATOM      9  N   UNL d   1      59.097  49.692  49.219  0.00  0.00    -0.191 NA
ATOM     10  N   UNL d   1      61.154  49.693  52.947  0.00  0.00    -0.191 NA
ATOM     11  O   UNL d   1      59.065  49.704  53.396  0.00  0.00    -0.264 OA
ENDROOT
BRANCH   2  12
ATOM     12  S   UNL d   1      57.630  49.703  50.749  0.00  0.00    -0.061 SA
BRANCH  12  13
ATOM     13  C   UNL d   1      57.008  49.097  50.685  0.00  0.00     0.105 C 
BRANCH  13  14
ATOM     14  C   UNL d   1      56.597  48.988  49.928  0.00  0.00     0.307 C 
ATOM     15  O   UNL d   1      56.662  49.312  49.516  0.00  0.00    -0.258 OA
BRANCH  14  16
ATOM     16  O   UNL d   1      56.055  48.287  49.903  0.00  0.00    -0.271 OA
BRANCH  16  17
ATOM     17  C   UNL d   1      56.085  47.749  50.629  0.00  0.00     0.126 C 
BRANCH  17  18
ATOM     18  C   UNL d   1      56.650  47.030  50.423  0.00  0.00     0.027 C 
ATOM     19  C   UNL d   1      56.514  46.390  51.043  0.00  0.00     0.002 C 
ENDBRANCH  17  18
ENDBRANCH  16  17
ENDBRANCH  14  16
ENDBRANCH  13  14
ENDBRANCH  12  13
ENDBRANCH   2  12
BRANCH   4  20
ATOM     20  C   UNL d   1      60.491  49.690  50.879  0.00  0.00     0.024 A 
ATOM     21  C   UNL d   1      61.195  49.676  51.304  0.00  0.00     0.094 A 
ATOM     22  C   UNL d   1      61.917  49.672  50.906  0.00  0.00     0.024 A 
ATOM     23  C   UNL d   1      61.936  49.681  50.082  0.00  0.00     0.002 A 
ATOM     24  C   UNL d   1      61.228  49.695  49.656  0.00  0.00     0.000 A 
ATOM     25  C   UNL d   1      60.505  49.699  50.055  0.00  0.00     0.002 A 
BRANCH  21  26
ATOM     26  O   UNL d   1      61.264  49.667  51.999  0.00  0.00    -0.328 OA
ATOM     27  C   UNL d   1      61.923  49.271  52.366  0.00  0.00     0.181 C 
ENDBRANCH  21  26
ENDBRANCH   4  20
TORSDOF 8
ENDMDL
