MODEL 1
REMARK VINA RESULT:      11.5      0.000      0.000
REMARK  7 active torsions:
REMARK  status: ('A' for Active; 'I' for Inactive)
REMARK    1  A    between atoms: C_6  and  C_13 
REMARK       I    between atoms: N_12  and  C_6 
REMARK    2  A    between atoms: O_8  and  C_7 
REMARK    3  A    between atoms: C_13  and  O_8 
REMARK    4  A    between atoms: O_14  and  C_10 
REMARK    5  A    between atoms: C_11  and  C_20 
REMARK    6  A    between atoms: C_15  and  N_12 
REMARK    7  A    between atoms: C_20  and  C_15 
ROOT
ATOM      1  C   UNL d   1      46.148 -16.189  44.318  0.00  0.00     0.304 C 
ATOM      2  O   UNL d   1      46.621 -15.877  43.714  0.00  0.00    -0.263 OA
ATOM      3  N   UNL d   1      46.116 -16.997  44.457  0.00  0.00    -0.205 NA
ENDROOT
BRANCH   1   4
ATOM      4  C   UNL d   1      45.701 -15.676  44.787  0.00  0.00     0.185 C 
BRANCH   4   5
ATOM      5  O   UNL d   1      45.310 -15.040  44.441  0.00  0.00    -0.298 OA
BRANCH   5   6
ATOM      6  C   UNL d   1      45.642 -14.293  44.472  0.00  0.00     0.122 A 
ATOM      7  C   UNL d   1      45.302 -13.671  44.050  0.00  0.00     0.117 A 
ATOM      8  O   UNL d   1      44.633 -13.641  43.556  0.00  0.00    -0.330 OA
ATOM      9  C   UNL d   1      45.637 -12.917  44.081  0.00  0.00     0.022 A 
ATOM     10  C   UNL d   1      44.558 -12.861  43.282  0.00  0.00     0.117 A 
ATOM     11  C   UNL d   1      44.558 -12.080  43.063  0.00  0.00     0.035 C 
ATOM     12  C   UNL d   1      43.910 -13.198  42.907  0.00  0.00     0.035 C 
ATOM     13  C   UNL d   1      45.177 -12.418  43.607  0.00  0.00     0.003 A 
ATOM     14  C   UNL d   1      46.312 -12.787  44.534  0.00  0.00     0.002 A 
ATOM     15  C   UNL d   1      46.646 -13.401  44.949  0.00  0.00     0.002 A 
ATOM     16  C   UNL d   1      46.310 -14.155  44.918  0.00  0.00     0.027 A 
ENDBRANCH   5   6
ENDBRANCH   4   5
ENDBRANCH   1   4
BRANCH   3  17
ATOM     17  C   UNL d   1      46.559 -17.505  43.992  0.00  0.00     0.102 C 
BRANCH  17  18
ATOM     18  C   UNL d   1      46.583 -18.317  44.159  0.00  0.00     0.023 C 
BRANCH  18  19
ATOM     19  C   UNL d   1      46.374 -18.866  43.589  0.00  0.00     0.024 A 
ATOM     20  C   UNL d   1      46.268 -19.657  43.796  0.00  0.00     0.094 A 
ATOM     21  C   UNL d   1      46.057 -20.203  43.211  0.00  0.00     0.024 A 
ATOM     22  C   UNL d   1      45.952 -19.965  42.428  0.00  0.00     0.002 A 
ATOM     23  C   UNL d   1      46.055 -19.182  42.218  0.00  0.00     0.000 A 
ATOM     24  C   UNL d   1      46.265 -18.628  42.788  0.00  0.00     0.002 A 
BRANCH  20  25
ATOM     25  O   UNL d   1      46.371 -19.894  44.567  0.00  0.00    -0.328 OA
ATOM     26  C   UNL d   1      45.772 -20.294  44.954  0.00  0.00     0.181 C 
ENDBRANCH  20  25
ENDBRANCH  18  19
ENDBRANCH  17  18
ENDBRANCH   3  17
TORSDOF 7
ENDMDL
