MODEL 1
REMARK VINA RESULT:      -7.5      0.000      0.000
REMARK  4 active torsions:
REMARK  status: ('A' for Active; 'I' for Inactive)
REMARK    1  A    between atoms: C_17  and  N_3 
REMARK    2  A    between atoms: C_9  and  C_5 
REMARK    3  A    between atoms: O_21  and  C_12 
REMARK    4  A    between atoms: C_19  and  C_17 
ROOT
ATOM      1  C   UNL d   1     -47.247  12.546  23.106  0.00  0.00     0.083 A 
ATOM      2  C   UNL d   1     -46.588  13.031  23.042  0.00  0.00     0.161 A 
ATOM      3  N   UNL d   1     -47.671  13.806  22.811  0.00  0.00    -0.272 N 
ATOM      4  C   UNL d   1     -46.839  13.798  22.862  0.00  0.00     0.288 A 
ATOM      5  C   UNL d   1     -47.935  13.032  22.961  0.00  0.00     0.072 A 
ATOM      6  C   UNL d   1     -47.171  11.743  23.282  0.00  0.00     0.201 A 
ATOM      7  O   UNL d   1     -45.829  12.701  23.158  0.00  0.00    -0.302 OA
ATOM      8  C   UNL d   1     -46.417  11.420  23.397  0.00  0.00     0.062 A 
ATOM      9  C   UNL d   1     -45.741  11.903  23.334  0.00  0.00     0.103 A 
ATOM     10  O   UNL d   1     -46.350  14.458  22.751  0.00  0.00    -0.264 OA
ATOM     11  O   UNL d   1     -47.840  11.265  23.344  0.00  0.00    -0.286 OA
ATOM     12  C   UNL d   1     -46.333  10.614  23.574  0.00  0.00     0.005 A 
ATOM     13  C   UNL d   1     -44.988  11.574  23.450  0.00  0.00     0.025 A 
ATOM     14  C   UNL d   1     -45.577  10.296  23.688  0.00  0.00     0.000 A 
ATOM     15  C   UNL d   1     -44.908  10.774  23.626  0.00  0.00     0.002 A 
ENDROOT
BRANCH   5  16
ATOM     16  C   UNL d   1     -48.716  12.775  22.969  0.00  0.00     0.019 A 
ATOM     17  C   UNL d   1     -49.098  12.602  22.266  0.00  0.00     0.029 A 
ATOM     18  C   UNL d   1     -49.878  12.345  22.261  0.00  0.00     0.133 A 
ATOM     19  C   UNL d   1     -50.280  12.261  22.977  0.00  0.00     0.218 A 
ATOM     20  C   UNL d   1     -49.894  12.436  23.693  0.00  0.00     0.044 A 
ATOM     21  O   UNL d   1     -51.064  12.003  22.986  0.00  0.00    -0.284 OA
ATOM     22  C   UNL d   1     -49.119  12.691  23.681  0.00  0.00     0.005 A 
BRANCH  18  23
ATOM     23  O   UNL d   1     -50.260  12.172  21.558  0.00  0.00    -0.325 OA
ATOM     24  C   UNL d   1     -50.288  12.735  20.952  0.00  0.00     0.181 C 
ENDBRANCH  18  23
ENDBRANCH   5  16
BRANCH   3  25
ATOM     25  C   UNL d   1     -48.150  14.455  22.643  0.00  0.00     0.083 C 
BRANCH  25  26
ATOM     26  C   UNL d   1     -47.811  15.178  22.442  0.00  0.00     0.019 C 
ATOM     27  C   UNL d   1     -48.275  15.857  22.408  0.00  0.00     0.002 C 
ENDBRANCH  25  26
ENDBRANCH   3  25
TORSDOF 4
ENDMDL
MODEL 2
REMARK VINA RESULT:      -6.9      1.223      4.358
REMARK  4 active torsions:
REMARK  status: ('A' for Active; 'I' for Inactive)
REMARK    1  A    between atoms: C_17  and  N_3 
REMARK    2  A    between atoms: C_9  and  C_5 
REMARK    3  A    between atoms: O_21  and  C_12 
REMARK    4  A    between atoms: C_19  and  C_17 
ROOT
ATOM      1  C   UNL d   1     -48.355  12.724  22.602  0.00  0.00     0.083 A 
ATOM      2  C   UNL d   1     -48.817  12.082  22.823  0.00  0.00     0.161 A 
ATOM      3  N   UNL d   1     -47.577  11.862  23.313  0.00  0.00    -0.272 N 
ATOM      4  C   UNL d   1     -48.350  11.554  23.255  0.00  0.00     0.288 A 
ATOM      5  C   UNL d   1     -47.569  12.589  22.909  0.00  0.00     0.072 A 
ATOM      6  C   UNL d   1     -48.672  13.346  22.161  0.00  0.00     0.201 A 
ATOM      7  O   UNL d   1     -49.621  12.064  22.595  0.00  0.00    -0.302 OA
ATOM      8  C   UNL d   1     -49.469  13.324  21.937  0.00  0.00     0.062 A 
ATOM      9  C   UNL d   1     -49.947  12.678  22.156  0.00  0.00     0.103 A 
ATOM     10  O   UNL d   1     -48.601  10.836  23.582  0.00  0.00    -0.264 OA
ATOM     11  O   UNL d   1     -48.198  13.985  21.945  0.00  0.00    -0.286 OA
ATOM     12  C   UNL d   1     -49.793  13.945  21.494  0.00  0.00     0.005 A 
ATOM     13  C   UNL d   1     -50.745  12.661  21.929  0.00  0.00     0.025 A 
ATOM     14  C   UNL d   1     -50.590  13.919  21.273  0.00  0.00     0.000 A 
ATOM     15  C   UNL d   1     -51.064  13.279  21.490  0.00  0.00     0.002 A 
ENDROOT
BRANCH   5  16
ATOM     16  C   UNL d   1     -46.925  13.091  22.820  0.00  0.00     0.019 A 
ATOM     17  C   UNL d   1     -46.375  12.951  22.231  0.00  0.00     0.029 A 
ATOM     18  C   UNL d   1     -45.726  13.446  22.132  0.00  0.00     0.133 A 
ATOM     19  C   UNL d   1     -45.631  14.093  22.635  0.00  0.00     0.218 A 
ATOM     20  C   UNL d   1     -46.189  14.238  23.235  0.00  0.00     0.044 A 
ATOM     21  O   UNL d   1     -44.984  14.598  22.547  0.00  0.00    -0.284 OA
ATOM     22  C   UNL d   1     -46.828  13.737  23.321  0.00  0.00     0.005 A 
BRANCH  18  23
ATOM     23  O   UNL d   1     -45.175  13.305  21.543  0.00  0.00    -0.325 OA
ATOM     24  C   UNL d   1     -44.599  12.719  21.646  0.00  0.00     0.181 C 
ENDBRANCH  18  23
ENDBRANCH   5  16
BRANCH   3  25
ATOM     25  C   UNL d   1     -46.935  11.516  23.696  0.00  0.00     0.083 C 
BRANCH  25  26
ATOM     26  C   UNL d   1     -46.847  10.697  23.698  0.00  0.00     0.019 C 
ATOM     27  C   UNL d   1     -46.094  10.362  23.698  0.00  0.00     0.002 C 
ENDBRANCH  25  26
ENDBRANCH   3  25
TORSDOF 4
ENDMDL
MODEL 3
REMARK VINA RESULT:      -5.7      1.467      3.754
REMARK  4 active torsions:
REMARK  status: ('A' for Active; 'I' for Inactive)
REMARK    1  A    between atoms: C_17  and  N_3 
REMARK    2  A    between atoms: C_9  and  C_5 
REMARK    3  A    between atoms: O_21  and  C_12 
REMARK    4  A    between atoms: C_19  and  C_17 
ROOT
ATOM      1  C   UNL d   1     -48.471  14.016  22.940  0.00  0.00     0.083 A 
ATOM      2  C   UNL d   1     -48.155  14.773  22.983  0.00  0.00     0.161 A 
ATOM      3  N   UNL d   1     -47.141  13.941  22.658  0.00  0.00    -0.272 N 
ATOM      4  C   UNL d   1     -47.347  14.734  22.812  0.00  0.00     0.288 A 
ATOM      5  C   UNL d   1     -47.832  13.486  22.735  0.00  0.00     0.072 A 
ATOM      6  C   UNL d   1     -49.272  13.879  23.085  0.00  0.00     0.201 A 
ATOM      7  O   UNL d   1     -48.659  15.411  23.176  0.00  0.00    -0.302 OA
ATOM      8  C   UNL d   1     -49.767  14.514  23.276  0.00  0.00     0.062 A 
ATOM      9  C   UNL d   1     -49.458  15.286  23.322  0.00  0.00     0.103 A 
ATOM     10  O   UNL d   1     -46.821  15.373  22.795  0.00  0.00    -0.264 OA
ATOM     11  O   UNL d   1     -49.577  13.114  23.039  0.00  0.00    -0.286 OA
ATOM     12  C   UNL d   1     -50.573  14.383  23.422  0.00  0.00     0.005 A 
ATOM     13  C   UNL d   1     -49.959  15.919  23.514  0.00  0.00     0.025 A 
ATOM     14  C   UNL d   1     -51.064  15.021  23.613  0.00  0.00     0.000 A 
ATOM     15  C   UNL d   1     -50.758  15.786  23.658  0.00  0.00     0.002 A 
ENDROOT
BRANCH   5  16
ATOM     16  C   UNL d   1     -47.896  12.673  22.633  0.00  0.00     0.019 A 
ATOM     17  C   UNL d   1     -47.606  12.164  23.205  0.00  0.00     0.029 A 
ATOM     18  C   UNL d   1     -47.664  11.350  23.114  0.00  0.00     0.133 A 
ATOM     19  C   UNL d   1     -48.019  11.043  22.436  0.00  0.00     0.218 A 
ATOM     20  C   UNL d   1     -48.315  11.557  21.853  0.00  0.00     0.044 A 
ATOM     21  O   UNL d   1     -48.084  10.226  22.332  0.00  0.00    -0.284 OA
ATOM     22  C   UNL d   1     -48.250  12.365  21.957  0.00  0.00     0.005 A 
BRANCH  18  23
ATOM     23  O   UNL d   1     -47.374  10.841  23.686  0.00  0.00    -0.325 OA
ATOM     24  C   UNL d   1     -46.626  10.498  23.596  0.00  0.00     0.181 C 
ENDBRANCH  18  23
ENDBRANCH   5  16
BRANCH   3  25
ATOM     25  C   UNL d   1     -46.393  13.653  22.464  0.00  0.00     0.083 C 
BRANCH  25  26
ATOM     26  C   UNL d   1     -45.786  14.176  22.273  0.00  0.00     0.019 C 
ATOM     27  C   UNL d   1     -45.010  13.905  22.216  0.00  0.00     0.002 C 
ENDBRANCH  25  26
ENDBRANCH   3  25
TORSDOF 4
ENDMDL
MODEL 4
REMARK VINA RESULT:      -5.4      7.385      9.253
REMARK  4 active torsions:
REMARK  status: ('A' for Active; 'I' for Inactive)
REMARK    1  A    between atoms: C_17  and  N_3 
REMARK    2  A    between atoms: C_9  and  C_5 
REMARK    3  A    between atoms: O_21  and  C_12 
REMARK    4  A    between atoms: C_19  and  C_17 
ROOT
ATOM      1  C   UNL d   1     -39.496  14.217  19.203  0.00  0.00     0.083 A 
ATOM      2  C   UNL d   1     -38.827  13.746  19.128  0.00  0.00     0.161 A 
ATOM      3  N   UNL d   1     -39.114  13.816  20.447  0.00  0.00    -0.272 N 
ATOM      4  C   UNL d   1     -38.590  13.500  19.881  0.00  0.00     0.288 A 
ATOM      5  C   UNL d   1     -39.681  14.264  20.035  0.00  0.00     0.072 A 
ATOM      6  C   UNL d   1     -39.862  14.546  18.540  0.00  0.00     0.201 A 
ATOM      7  O   UNL d   1     -38.517  13.602  18.365  0.00  0.00    -0.302 OA
ATOM      8  C   UNL d   1     -39.551  14.401  17.787  0.00  0.00     0.062 A 
ATOM      9  C   UNL d   1     -38.873  13.925  17.698  0.00  0.00     0.103 A 
ATOM     10  O   UNL d   1     -37.940  13.017  20.053  0.00  0.00    -0.264 OA
ATOM     11  O   UNL d   1     -40.534  15.017  18.628  0.00  0.00    -0.286 OA
ATOM     12  C   UNL d   1     -39.914  14.729  17.117  0.00  0.00     0.005 A 
ATOM     13  C   UNL d   1     -38.565  13.782  16.941  0.00  0.00     0.025 A 
ATOM     14  C   UNL d   1     -39.600  14.581  16.366  0.00  0.00     0.000 A 
ATOM     15  C   UNL d   1     -38.928  14.110  16.278  0.00  0.00     0.002 A 
ENDROOT
BRANCH   5  16
ATOM     16  C   UNL d   1     -40.309  14.679  20.366  0.00  0.00     0.019 A 
ATOM     17  C   UNL d   1     -41.005  14.291  20.550  0.00  0.00     0.029 A 
ATOM     18  C   UNL d   1     -41.640  14.695  20.881  0.00  0.00     0.133 A 
ATOM     19  C   UNL d   1     -41.570  15.504  21.029  0.00  0.00     0.218 A 
ATOM     20  C   UNL d   1     -40.864  15.901  20.843  0.00  0.00     0.044 A 
ATOM     21  O   UNL d   1     -42.200  15.922  21.361  0.00  0.00    -0.284 OA
ATOM     22  C   UNL d   1     -40.242  15.486  20.514  0.00  0.00     0.005 A 
BRANCH  18  23
ATOM     23  O   UNL d   1     -42.337  14.307  21.065  0.00  0.00    -0.325 OA
ATOM     24  C   UNL d   1     -42.361  13.479  21.069  0.00  0.00     0.181 C 
ENDBRANCH  18  23
ENDBRANCH   5  16
BRANCH   3  25
ATOM     25  C   UNL d   1     -39.082  13.710  21.263  0.00  0.00     0.083 C 
BRANCH  25  26
ATOM     26  C   UNL d   1     -38.408  13.392  21.612  0.00  0.00     0.019 C 
ATOM     27  C   UNL d   1     -38.376  13.287  22.429  0.00  0.00     0.002 C 
ENDBRANCH  25  26
ENDBRANCH   3  25
TORSDOF 4
ENDMDL
