MODEL 1
REMARK VINA RESULT:      -7.1      0.000      0.000
REMARK  5 active torsions:
REMARK  status: ('A' for Active; 'I' for Inactive)
REMARK    1  A    between atoms: C_9  and  C_5 
REMARK    2  A    between atoms: N_14  and  C_6 
REMARK    3  A    between atoms: N_11  and  C_9 
REMARK    4  A    between atoms: C_15  and  N_11 
REMARK    5  A    between atoms: C_16  and  C_15 
ROOT
ATOM      1  N   UNL d   1     -48.778  12.601  22.556  0.00  0.00    -0.258 N 
ATOM      2  N   UNL d   1     -47.963  13.713  22.581  0.00  0.00    -0.209 NA
ATOM      3  C   UNL d   1     -48.649  13.356  22.352  0.00  0.00     0.152 A 
ATOM      4  C   UNL d   1     -48.242  12.160  22.992  0.00  0.00     0.270 A 
ATOM      5  C   UNL d   1     -47.524  12.533  23.231  0.00  0.00     0.111 A 
ATOM      6  C   UNL d   1     -47.419  13.306  23.008  0.00  0.00     0.170 A 
ATOM      7  C   UNL d   1     -49.217  13.780  21.905  0.00  0.00     0.035 A 
ATOM      8  C   UNL d   1     -49.511  12.220  22.311  0.00  0.00     0.084 A 
ATOM      9  O   UNL d   1     -48.362  11.381  23.209  0.00  0.00    -0.266 OA
ATOM     10  C   UNL d   1     -50.038  12.635  21.889  0.00  0.00     0.019 A 
ATOM     11  C   UNL d   1     -49.924  13.412  21.670  0.00  0.00     0.005 A 
ATOM     12  C   UNL d   1     -49.086  14.566  21.691  0.00  0.00     0.003 C 
ENDROOT
BRANCH   5  13
ATOM     13  C   UNL d   1     -46.947  12.115  23.680  0.00  0.00     0.107 C 
BRANCH  13  14
ATOM     14  N   UNL d   1     -46.304  11.741  23.308  0.00  0.00    -0.242 NA
BRANCH  14  15
ATOM     15  C   UNL d   1     -45.985  11.057  23.648  0.00  0.00     0.099 C 
BRANCH  15  16
ATOM     16  C   UNL d   1     -45.213  10.848  23.499  0.00  0.00     0.019 A 
ATOM     17  C   UNL d   1     -44.695  11.381  23.153  0.00  0.00     0.002 A 
ATOM     18  C   UNL d   1     -43.921  11.185  22.998  0.00  0.00     0.000 A 
ATOM     19  C   UNL d   1     -43.652  10.424  23.197  0.00  0.00     0.000 A 
ATOM     20  C   UNL d   1     -44.182   9.879  23.551  0.00  0.00     0.000 A 
ATOM     21  C   UNL d   1     -44.945  10.088  23.698  0.00  0.00     0.002 A 
ENDBRANCH  15  16
ENDBRANCH  14  15
ENDBRANCH  13  14
ENDBRANCH   5  13
BRANCH   6  22
ATOM     22  N   UNL d   1     -46.702  13.679  23.248  0.00  0.00    -0.223 NA
ATOM     23  C   UNL d   1     -46.554  14.459  23.011  0.00  0.00     0.121 C 
ENDBRANCH   6  22
TORSDOF 5
ENDMDL
MODEL 2
REMARK VINA RESULT:      -7.1      1.367      1.914
REMARK  5 active torsions:
REMARK  status: ('A' for Active; 'I' for Inactive)
REMARK    1  A    between atoms: C_9  and  C_5 
REMARK    2  A    between atoms: N_14  and  C_6 
REMARK    3  A    between atoms: N_11  and  C_9 
REMARK    4  A    between atoms: C_15  and  N_11 
REMARK    5  A    between atoms: C_16  and  C_15 
ROOT
ATOM      1  N   UNL d   1     -49.479  12.828  23.002  0.00  0.00    -0.258 N 
ATOM      2  N   UNL d   1     -49.457  14.037  22.340  0.00  0.00    -0.209 NA
ATOM      3  C   UNL d   1     -49.855  13.373  22.565  0.00  0.00     0.152 A 
ATOM      4  C   UNL d   1     -48.699  12.908  23.237  0.00  0.00     0.270 A 
ATOM      5  C   UNL d   1     -48.282  13.603  23.001  0.00  0.00     0.111 A 
ATOM      6  C   UNL d   1     -48.691  14.143  22.555  0.00  0.00     0.170 A 
ATOM      7  C   UNL d   1     -50.654  13.263  22.340  0.00  0.00     0.035 A 
ATOM      8  C   UNL d   1     -49.905  12.118  23.243  0.00  0.00     0.084 A 
ATOM      9  O   UNL d   1     -48.299  12.354  23.687  0.00  0.00    -0.266 OA
ATOM     10  C   UNL d   1     -50.661  12.029  23.022  0.00  0.00     0.019 A 
ATOM     11  C   UNL d   1     -51.064  12.579  22.573  0.00  0.00     0.005 A 
ATOM     12  C   UNL d   1     -51.048  13.828  21.886  0.00  0.00     0.003 C 
ENDROOT
BRANCH   5  13
ATOM     13  C   UNL d   1     -47.479  13.722  23.223  0.00  0.00     0.107 C 
BRANCH  13  14
ATOM     14  N   UNL d   1     -46.865  13.307  22.845  0.00  0.00    -0.242 NA
BRANCH  14  15
ATOM     15  C   UNL d   1     -46.085  13.420  23.100  0.00  0.00     0.099 C 
BRANCH  15  16
ATOM     16  C   UNL d   1     -45.466  13.121  22.667  0.00  0.00     0.019 A 
ATOM     17  C   UNL d   1     -45.121  13.564  22.070  0.00  0.00     0.002 A 
ATOM     18  C   UNL d   1     -44.500  13.276  21.628  0.00  0.00     0.000 A 
ATOM     19  C   UNL d   1     -44.213  12.514  21.791  0.00  0.00     0.000 A 
ATOM     20  C   UNL d   1     -44.566  12.061  22.401  0.00  0.00     0.000 A 
ATOM     21  C   UNL d   1     -45.178  12.359  22.829  0.00  0.00     0.002 A 
ENDBRANCH  15  16
ENDBRANCH  14  15
ENDBRANCH  13  14
ENDBRANCH   5  13
BRANCH   6  22
ATOM     22  N   UNL d   1     -48.275  14.837  22.320  0.00  0.00    -0.223 NA
ATOM     23  C   UNL d   1     -48.696  15.542  22.209  0.00  0.00     0.121 C 
ENDBRANCH   6  22
TORSDOF 5
ENDMDL
MODEL 3
REMARK VINA RESULT:      -6.7      8.074      9.556
REMARK  5 active torsions:
REMARK  status: ('A' for Active; 'I' for Inactive)
REMARK    1  A    between atoms: C_9  and  C_5 
REMARK    2  A    between atoms: N_14  and  C_6 
REMARK    3  A    between atoms: N_11  and  C_9 
REMARK    4  A    between atoms: C_15  and  N_11 
REMARK    5  A    between atoms: C_16  and  C_15 
ROOT
ATOM      1  N   UNL d   1     -38.904  13.814  17.467  0.00  0.00    -0.258 N 
ATOM      2  N   UNL d   1     -39.523  15.013  17.185  0.00  0.00    -0.209 NA
ATOM      3  C   UNL d   1     -39.015  14.423  16.972  0.00  0.00     0.152 A 
ATOM      4  C   UNL d   1     -39.284  13.753  18.191  0.00  0.00     0.270 A 
ATOM      5  C   UNL d   1     -39.815  14.371  18.413  0.00  0.00     0.111 A 
ATOM      6  C   UNL d   1     -39.908  14.981  17.887  0.00  0.00     0.170 A 
ATOM      7  C   UNL d   1     -38.612  14.456  16.239  0.00  0.00     0.035 A 
ATOM      8  C   UNL d   1     -38.362  13.183  17.241  0.00  0.00     0.084 A 
ATOM      9  O   UNL d   1     -39.178  13.130  18.711  0.00  0.00    -0.266 OA
ATOM     10  C   UNL d   1     -37.988  13.230  16.543  0.00  0.00     0.019 A 
ATOM     11  C   UNL d   1     -38.089  13.849  16.021  0.00  0.00     0.005 A 
ATOM     12  C   UNL d   1     -38.725  15.089  15.722  0.00  0.00     0.003 C 
ENDROOT
BRANCH   5  13
ATOM     13  C   UNL d   1     -40.224  14.346  19.148  0.00  0.00     0.107 C 
BRANCH  13  14
ATOM     14  N   UNL d   1     -39.816  14.425  19.868  0.00  0.00    -0.242 NA
BRANCH  14  15
ATOM     15  C   UNL d   1     -40.247  14.496  20.571  0.00  0.00     0.099 C 
BRANCH  15  16
ATOM     16  C   UNL d   1     -39.862  14.600  21.279  0.00  0.00     0.019 A 
ATOM     17  C   UNL d   1     -39.670  15.351  21.545  0.00  0.00     0.002 A 
ATOM     18  C   UNL d   1     -39.283  15.468  22.252  0.00  0.00     0.000 A 
ATOM     19  C   UNL d   1     -39.080  14.807  22.712  0.00  0.00     0.000 A 
ATOM     20  C   UNL d   1     -39.277  14.039  22.440  0.00  0.00     0.000 A 
ATOM     21  C   UNL d   1     -39.659  13.938  21.739  0.00  0.00     0.002 A 
ENDBRANCH  15  16
ENDBRANCH  14  15
ENDBRANCH  13  14
ENDBRANCH   5  13
BRANCH   6  22
ATOM     22  N   UNL d   1     -40.439  15.597  18.109  0.00  0.00    -0.223 NA
ATOM     23  C   UNL d   1     -40.944  15.920  17.538  0.00  0.00     0.121 C 
ENDBRANCH   6  22
TORSDOF 5
ENDMDL
MODEL 4
REMARK VINA RESULT:      -6.5      0.910      4.517
REMARK  5 active torsions:
REMARK  status: ('A' for Active; 'I' for Inactive)
REMARK    1  A    between atoms: C_9  and  C_5 
REMARK    2  A    between atoms: N_14  and  C_6 
REMARK    3  A    between atoms: N_11  and  C_9 
REMARK    4  A    between atoms: C_15  and  N_11 
REMARK    5  A    between atoms: C_16  and  C_15 
ROOT
ATOM      1  N   UNL d   1     -45.806  11.494  23.327  0.00  0.00    -0.258 N 
ATOM      2  N   UNL d   1     -45.149  12.492  22.640  0.00  0.00    -0.209 NA
ATOM      3  C   UNL d   1     -45.143  11.763  22.987  0.00  0.00     0.152 A 
ATOM      4  C   UNL d   1     -46.504  11.923  23.345  0.00  0.00     0.270 A 
ATOM      5  C   UNL d   1     -46.510  12.685  22.982  0.00  0.00     0.111 A 
ATOM      6  C   UNL d   1     -45.817  12.935  22.641  0.00  0.00     0.170 A 
ATOM      7  C   UNL d   1     -44.446  11.300  22.985  0.00  0.00     0.035 A 
ATOM      8  C   UNL d   1     -45.800  10.716  23.698  0.00  0.00     0.084 A 
ATOM      9  O   UNL d   1     -47.195  11.657  23.693  0.00  0.00    -0.266 OA
ATOM     10  C   UNL d   1     -45.132  10.290  23.688  0.00  0.00     0.019 A 
ATOM     11  C   UNL d   1     -44.440  10.550  23.342  0.00  0.00     0.005 A 
ATOM     12  C   UNL d   1     -43.754  11.578  22.631  0.00  0.00     0.003 C 
ENDROOT
BRANCH   5  13
ATOM     13  C   UNL d   1     -47.206  13.158  22.979  0.00  0.00     0.107 C 
BRANCH  13  14
ATOM     14  N   UNL d   1     -47.855  12.960  22.498  0.00  0.00    -0.242 NA
BRANCH  14  15
ATOM     15  C   UNL d   1     -48.452  13.520  22.375  0.00  0.00     0.099 C 
BRANCH  15  16
ATOM     16  C   UNL d   1     -49.192  13.284  22.135  0.00  0.00     0.019 A 
ATOM     17  C   UNL d   1     -49.847  13.410  22.612  0.00  0.00     0.002 A 
ATOM     18  C   UNL d   1     -50.593  13.178  22.384  0.00  0.00     0.000 A 
ATOM     19  C   UNL d   1     -50.688  12.804  21.648  0.00  0.00     0.000 A 
ATOM     20  C   UNL d   1     -50.019  12.674  21.161  0.00  0.00     0.000 A 
ATOM     21  C   UNL d   1     -49.288  12.909  21.400  0.00  0.00     0.002 A 
ENDBRANCH  15  16
ENDBRANCH  14  15
ENDBRANCH  13  14
ENDBRANCH   5  13
BRANCH   6  22
ATOM     22  N   UNL d   1     -45.823  13.696  22.279  0.00  0.00    -0.223 NA
ATOM     23  C   UNL d   1     -45.124  14.139  22.258  0.00  0.00     0.121 C 
ENDBRANCH   6  22
TORSDOF 5
ENDMDL
MODEL 5
REMARK VINA RESULT:      -6.0      7.973      9.214
REMARK  5 active torsions:
REMARK  status: ('A' for Active; 'I' for Inactive)
REMARK    1  A    between atoms: C_9  and  C_5 
REMARK    2  A    between atoms: N_14  and  C_6 
REMARK    3  A    between atoms: N_11  and  C_9 
REMARK    4  A    between atoms: C_15  and  N_11 
REMARK    5  A    between atoms: C_16  and  C_15 
ROOT
ATOM      1  N   UNL d   1     -39.312  15.499  18.059  0.00  0.00    -0.258 N 
ATOM      2  N   UNL d   1     -40.489  15.776  18.721  0.00  0.00    -0.209 NA
ATOM      3  C   UNL d   1     -40.092  15.636  18.032  0.00  0.00     0.152 A 
ATOM      4  C   UNL d   1     -38.885  15.492  18.758  0.00  0.00     0.270 A 
ATOM      5  C   UNL d   1     -39.300  15.638  19.478  0.00  0.00     0.111 A 
ATOM      6  C   UNL d   1     -40.097  15.775  19.421  0.00  0.00     0.170 A 
ATOM      7  C   UNL d   1     -40.501  15.637  17.302  0.00  0.00     0.035 A 
ATOM      8  C   UNL d   1     -38.888  15.350  17.323  0.00  0.00     0.084 A 
ATOM      9  O   UNL d   1     -38.079  15.352  18.799  0.00  0.00    -0.266 OA
ATOM     10  C   UNL d   1     -39.289  15.354  16.640  0.00  0.00     0.019 A 
ATOM     11  C   UNL d   1     -40.092  15.493  16.593  0.00  0.00     0.005 A 
ATOM     12  C   UNL d   1     -41.313  15.779  17.271  0.00  0.00     0.003 C 
ENDROOT
BRANCH   5  13
ATOM     13  C   UNL d   1     -38.897  15.639  20.217  0.00  0.00     0.107 C 
BRANCH  13  14
ATOM     14  N   UNL d   1     -38.741  14.928  20.621  0.00  0.00    -0.242 NA
BRANCH  14  15
ATOM     15  C   UNL d   1     -38.236  14.940  21.276  0.00  0.00     0.099 C 
BRANCH  15  16
ATOM     16  C   UNL d   1     -38.247  14.328  21.812  0.00  0.00     0.019 A 
ATOM     17  C   UNL d   1     -38.561  14.435  22.562  0.00  0.00     0.002 A 
ATOM     18  C   UNL d   1     -38.578  13.831  23.107  0.00  0.00     0.000 A 
ATOM     19  C   UNL d   1     -38.270  13.089  22.894  0.00  0.00     0.000 A 
ATOM     20  C   UNL d   1     -37.950  12.980  22.127  0.00  0.00     0.000 A 
ATOM     21  C   UNL d   1     -37.940  13.587  21.598  0.00  0.00     0.002 A 
ENDBRANCH  15  16
ENDBRANCH  14  15
ENDBRANCH  13  14
ENDBRANCH   5  13
BRANCH   6  22
ATOM     22  N   UNL d   1     -40.512  15.921  20.140  0.00  0.00    -0.223 NA
ATOM     23  C   UNL d   1     -41.340  15.921  20.136  0.00  0.00     0.121 C 
ENDBRANCH   6  22
TORSDOF 5
ENDMDL
MODEL 6
REMARK VINA RESULT:      -5.5      8.006      9.977
REMARK  5 active torsions:
REMARK  status: ('A' for Active; 'I' for Inactive)
REMARK    1  A    between atoms: C_9  and  C_5 
REMARK    2  A    between atoms: N_14  and  C_6 
REMARK    3  A    between atoms: N_11  and  C_9 
REMARK    4  A    between atoms: C_15  and  N_11 
REMARK    5  A    between atoms: C_16  and  C_15 
ROOT
ATOM      1  N   UNL d   1     -38.721  15.113  20.762  0.00  0.00    -0.258 N 
ATOM      2  N   UNL d   1     -39.827  14.294  20.682  0.00  0.00    -0.209 NA
ATOM      3  C   UNL d   1     -39.204  14.586  21.104  0.00  0.00     0.152 A 
ATOM      4  C   UNL d   1     -38.823  15.378  19.994  0.00  0.00     0.270 A 
ATOM      5  C   UNL d   1     -39.474  15.073  19.552  0.00  0.00     0.111 A 
ATOM      6  C   UNL d   1     -39.952  14.535  19.927  0.00  0.00     0.170 A 
ATOM      7  C   UNL d   1     -39.074  14.335  21.892  0.00  0.00     0.035 A 
ATOM      8  C   UNL d   1     -38.056  15.426  21.214  0.00  0.00     0.084 A 
ATOM      9  O   UNL d   1     -38.331  15.922  19.630  0.00  0.00    -0.266 OA
ATOM     10  C   UNL d   1     -37.946  15.177  21.958  0.00  0.00     0.019 A 
ATOM     11  C   UNL d   1     -38.433  14.636  22.327  0.00  0.00     0.005 A 
ATOM     12  C   UNL d   1     -39.575  13.786  22.250  0.00  0.00     0.003 C 
ENDROOT
BRANCH   5  13
ATOM     13  C   UNL d   1     -39.613  15.320  18.760  0.00  0.00     0.107 C 
BRANCH  13  14
ATOM     14  N   UNL d   1     -39.154  15.024  18.132  0.00  0.00    -0.242 NA
BRANCH  14  15
ATOM     15  C   UNL d   1     -39.397  15.165  17.354  0.00  0.00     0.099 C 
BRANCH  15  16
ATOM     16  C   UNL d   1     -38.919  14.953  16.732  0.00  0.00     0.019 A 
ATOM     17  C   UNL d   1     -38.502  15.522  16.312  0.00  0.00     0.002 A 
ATOM     18  C   UNL d   1     -38.020  15.323  15.687  0.00  0.00     0.000 A 
ATOM     19  C   UNL d   1     -37.950  14.523  15.473  0.00  0.00     0.000 A 
ATOM     20  C   UNL d   1     -38.376  13.942  15.902  0.00  0.00     0.000 A 
ATOM     21  C   UNL d   1     -38.849  14.154  16.517  0.00  0.00     0.002 A 
ENDBRANCH  15  16
ENDBRANCH  14  15
ENDBRANCH  13  14
ENDBRANCH   5  13
BRANCH   6  22
ATOM     22  N   UNL d   1     -40.602  14.230  19.486  0.00  0.00    -0.223 NA
ATOM     23  C   UNL d   1     -41.335  14.135  19.860  0.00  0.00     0.121 C 
ENDBRANCH   6  22
TORSDOF 5
ENDMDL
