MODEL 1
REMARK VINA RESULT:      21.1      0.000      0.000
REMARK  3 active torsions:
REMARK  status: ('A' for Active; 'I' for Inactive)
REMARK    1  A    between atoms: N_2  and  C_1 
REMARK    2  A    between atoms: C_3  and  C_1 
REMARK    3  A    between atoms: N_6  and  C_5 
ROOT
ATOM      1  C   UNL d   1     -54.946-102.024 -37.704  0.00  0.00     0.027 A 
ATOM      2  C   UNL d   1     -55.174-102.318 -39.316  0.00  0.00     0.064 A 
ATOM      3  C   UNL d   1     -55.294-102.735 -37.955  0.00  0.00     0.004 A 
ATOM      4  C   UNL d   1     -54.711-101.457 -38.268  0.00  0.00     0.004 A 
ATOM      5  C   UNL d   1     -55.407-102.880 -38.759  0.00  0.00     0.018 A 
ATOM      6  C   UNL d   1     -54.826-101.606 -39.077  0.00  0.00     0.018 A 
ENDROOT
BRANCH   1   7
ATOM      7  C   UNL d   1     -54.833-101.877 -36.899  0.00  0.00     0.120 C 
ATOM      8  S   UNL d   1     -54.725-102.514 -36.380  0.00  0.00    -0.059 SA
BRANCH   7   9
ATOM      9  N   UNL d   1     -54.827-101.103 -36.618  0.00  0.00    -0.292 N 
ATOM     10  C   UNL d   1     -54.720-100.481 -37.146  0.00  0.00     0.108 A 
ATOM     11  C   UNL d   1     -54.714 -99.706 -36.864  0.00  0.00     0.142 A 
ATOM     12  O   UNL d   1     -54.816 -99.558 -36.062  0.00  0.00    -0.300 OA
ATOM     13  C   UNL d   1     -54.924-100.186 -35.535  0.00  0.00     0.142 A 
ATOM     14  C   UNL d   1     -54.929-100.962 -35.816  0.00  0.00     0.108 A 
ENDBRANCH   7   9
ENDBRANCH   1   7
BRANCH   2  15
ATOM     15  N   UNL d   1     -55.287-102.463 -40.118  0.00  0.00    -0.301 N 
ATOM     16  C   UNL d   1     -55.966-102.855 -40.376  0.00  0.00     0.100 C 
ATOM     17  C   UNL d   1     -54.721-102.215 -40.664  0.00  0.00     0.100 C 
ENDBRANCH   2  15
TORSDOF 3
ENDMDL
