MODEL 1
REMARK VINA RESULT:      48.8      0.000      0.000
REMARK  5 active torsions:
REMARK  status: ('A' for Active; 'I' for Inactive)
REMARK    1  A    between atoms: C_11  and  C_1 
REMARK    2  A    between atoms: C_14  and  N_4 
REMARK    3  A    between atoms: C_5  and  S_12 
REMARK    4  A    between atoms: C_16  and  C_11 
REMARK    5  A    between atoms: S_12  and  C_16 
ROOT
ATOM      1  C   UNL d   1      13.364  13.484  -3.935  0.00  0.00     0.057 A 
ATOM      2  C   UNL d   1      13.423  13.821  -4.694  0.00  0.00     0.067 A 
ATOM      3  N   UNL d   1      13.529  14.625  -4.604  0.00  0.00    -0.306 N 
ATOM      4  C   UNL d   1      13.539  14.806  -3.789  0.00  0.00     0.064 A 
ATOM      5  C   UNL d   1      13.435  14.085  -3.385  0.00  0.00     0.022 A 
ATOM      6  C   UNL d   1      13.380  13.403  -5.440  0.00  0.00     0.019 C 
ATOM      7  C   UNL d   1      13.633  15.560  -3.447  0.00  0.00     0.019 C 
ENDROOT
BRANCH   1   8
ATOM      8  C   UNL d   1      13.254  12.673  -3.866  0.00  0.00     0.204 C 
ATOM      9  O   UNL d   1      13.404  12.200  -4.515  0.00  0.00    -0.286 OA
BRANCH   8  10
ATOM     10  C   UNL d   1      12.997  12.340  -3.152  0.00  0.00     0.080 C 
BRANCH  10  11
ATOM     11  S   UNL d   1      13.460  11.789  -2.760  0.00  0.00    -0.044 SA
BRANCH  11  12
ATOM     12  C   UNL d   1      13.502  11.788  -1.932  0.00  0.00     0.201 A 
ATOM     13  N   UNL d   1      14.168  11.791  -1.460  0.00  0.00    -0.268 N 
ATOM     14  C   UNL d   1      13.925  11.787  -0.665  0.00  0.00     0.171 A 
ATOM     15  C   UNL d   1      14.989  11.796  -1.643  0.00  0.00     0.084 A 
ATOM     16  C   UNL d   1      14.498  11.789  -0.055  0.00  0.00     0.039 A 
ATOM     17  N   UNL d   1      13.110  11.782  -0.663  0.00  0.00    -0.128 NA
ATOM     18  C   UNL d   1      15.302  11.795  -0.234  0.00  0.00     0.005 A 
ATOM     19  C   UNL d   1      15.536  11.798  -1.023  0.00  0.00     0.019 A 
ATOM     20  N   UNL d   1      12.856  11.782  -1.427  0.00  0.00    -0.121 NA
ENDBRANCH  11  12
ENDBRANCH  10  11
ENDBRANCH   8  10
ENDBRANCH   1   8
BRANCH   3  21
ATOM     21  C   UNL d   1      13.621  15.238  -5.163  0.00  0.00     0.064 A 
ATOM     22  C   UNL d   1      12.964  15.668  -5.417  0.00  0.00     0.018 A 
ATOM     23  C   UNL d   1      13.055  16.271  -5.968  0.00  0.00     0.002 A 
ATOM     24  C   UNL d   1      13.793  16.447  -6.265  0.00  0.00     0.000 A 
ATOM     25  C   UNL d   1      14.459  16.015  -6.011  0.00  0.00     0.002 A 
ATOM     26  C   UNL d   1      14.361  15.416  -5.463  0.00  0.00     0.018 A 
ENDBRANCH   3  21
TORSDOF 5
ENDMDL
