MODEL 1
REMARK VINA RESULT:      -8.6      0.000      0.000
REMARK  5 active torsions:
REMARK  status: ('A' for Active; 'I' for Inactive)
REMARK    1  A    between atoms: C_11  and  N_1 
REMARK    2  A    between atoms: S_10  and  C_2 
REMARK    3  A    between atoms: S_3  and  C_12 
REMARK    4  A    between atoms: C_13  and  C_11 
REMARK    5  A    between atoms: C_12  and  C_13 
ROOT
ATOM      1  N   UNL d   1      53.046  32.774  53.489  0.00  0.00    -0.295 N 
ATOM      2  C   UNL d   1      52.424  33.307  53.458  0.00  0.00     0.121 A 
ATOM      3  S   UNL d   1      52.581  33.931  53.970  0.00  0.00    -0.062 SA
ATOM      4  C   UNL d   1      53.600  33.066  54.026  0.00  0.00     0.071 A 
ATOM      5  C   UNL d   1      53.309  33.789  54.327  0.00  0.00     0.047 A 
ATOM      6  C   UNL d   1      54.328  32.774  54.282  0.00  0.00     0.018 A 
ATOM      7  C   UNL d   1      53.752  34.205  54.878  0.00  0.00     0.008 A 
ATOM      8  C   UNL d   1      54.769  33.201  54.840  0.00  0.00     0.002 A 
ATOM      9  C   UNL d   1      54.485  33.906  55.133  0.00  0.00     0.001 A 
ENDROOT
BRANCH   1  10
ATOM     10  C   UNL d   1      53.107  32.083  53.067  0.00  0.00     0.082 C 
BRANCH  10  11
ATOM     11  C   UNL d   1      52.930  31.352  53.426  0.00  0.00     0.034 C 
BRANCH  11  12
ATOM     12  C   UNL d   1      52.937  30.659  52.986  0.00  0.00     0.119 C 
BRANCH  12  13
ATOM     13  S   UNL d   1      52.895  29.928  53.371  0.00  0.00     0.140 S 
ATOM     14  O   UNL d   1      52.848  29.213  53.747  0.00  0.00    -0.591 OA
ATOM     15  O   UNL d   1      53.717  29.891  53.392  0.00  0.00    -0.591 OA
ATOM     16  O   UNL d   1      52.068  29.965  53.350  0.00  0.00    -0.591 OA
ENDBRANCH  12  13
ENDBRANCH  11  12
ENDBRANCH  10  11
ENDBRANCH   1  10
BRANCH   2  17
ATOM     17  S   UNL d   1      51.751  33.231  52.991  0.00  0.00    -0.089 SA
ATOM     18  C   UNL d   1      51.238  33.855  52.902  0.00  0.00     0.076 C 
ENDBRANCH   2  17
TORSDOF 5
ENDMDL
MODEL 2
REMARK VINA RESULT:      -8.5      0.848      2.068
REMARK  5 active torsions:
REMARK  status: ('A' for Active; 'I' for Inactive)
REMARK    1  A    between atoms: C_11  and  N_1 
REMARK    2  A    between atoms: S_10  and  C_2 
REMARK    3  A    between atoms: S_3  and  C_12 
REMARK    4  A    between atoms: C_13  and  C_11 
REMARK    5  A    between atoms: C_12  and  C_13 
ROOT
ATOM      1  N   UNL d   1      53.415  32.878  53.642  0.00  0.00    -0.295 N 
ATOM      2  C   UNL d   1      53.747  33.275  54.277  0.00  0.00     0.121 A 
ATOM      3  S   UNL d   1      53.342  33.981  54.393  0.00  0.00    -0.062 SA
ATOM      4  C   UNL d   1      52.794  33.340  53.355  0.00  0.00     0.071 A 
ATOM      5  C   UNL d   1      52.749  34.029  53.825  0.00  0.00     0.047 A 
ATOM      6  C   UNL d   1      52.265  33.228  52.732  0.00  0.00     0.018 A 
ATOM      7  C   UNL d   1      52.175  34.593  53.662  0.00  0.00     0.008 A 
ATOM      8  C   UNL d   1      51.688  33.803  52.574  0.00  0.00     0.002 A 
ATOM      9  C   UNL d   1      51.644  34.476  53.033  0.00  0.00     0.001 A 
ENDROOT
BRANCH   1  10
ATOM     10  C   UNL d   1      53.653  32.160  53.347  0.00  0.00     0.082 C 
BRANCH  10  11
ATOM     11  C   UNL d   1      53.257  31.461  53.569  0.00  0.00     0.034 C 
BRANCH  11  12
ATOM     12  C   UNL d   1      53.534  30.729  53.320  0.00  0.00     0.119 C 
BRANCH  12  13
ATOM     13  S   UNL d   1      53.062  30.057  53.419  0.00  0.00     0.140 S 
ATOM     14  O   UNL d   1      52.603  29.398  53.520  0.00  0.00    -0.591 OA
ATOM     15  O   UNL d   1      52.782  30.140  52.648  0.00  0.00    -0.591 OA
ATOM     16  O   UNL d   1      53.343  29.973  54.193  0.00  0.00    -0.591 OA
ENDBRANCH  12  13
ENDBRANCH  11  12
ENDBRANCH  10  11
ENDBRANCH   1  10
BRANCH   2  17
ATOM     17  S   UNL d   1      54.383  33.011  54.727  0.00  0.00    -0.089 SA
ATOM     18  C   UNL d   1      54.795  33.525  55.202  0.00  0.00     0.076 C 
ENDBRANCH   2  17
TORSDOF 5
ENDMDL
MODEL 3
REMARK VINA RESULT:      -7.9      2.101      3.337
REMARK  5 active torsions:
REMARK  status: ('A' for Active; 'I' for Inactive)
REMARK    1  A    between atoms: C_11  and  N_1 
REMARK    2  A    between atoms: S_10  and  C_2 
REMARK    3  A    between atoms: S_3  and  C_12 
REMARK    4  A    between atoms: C_13  and  C_11 
REMARK    5  A    between atoms: C_12  and  C_13 
ROOT
ATOM      1  N   UNL d   1      53.064  32.881  53.280  0.00  0.00    -0.295 N 
ATOM      2  C   UNL d   1      52.735  32.144  53.134  0.00  0.00     0.121 A 
ATOM      3  S   UNL d   1      51.943  32.239  52.936  0.00  0.00    -0.062 SA
ATOM      4  C   UNL d   1      52.471  33.444  53.172  0.00  0.00     0.071 A 
ATOM      5  C   UNL d   1      51.771  33.043  52.957  0.00  0.00     0.047 A 
ATOM      6  C   UNL d   1      52.473  34.267  53.239  0.00  0.00     0.018 A 
ATOM      7  C   UNL d   1      51.086  33.473  52.813  0.00  0.00     0.008 A 
ATOM      8  C   UNL d   1      51.777  34.693  53.093  0.00  0.00     0.002 A 
ATOM      9  C   UNL d   1      51.094  34.302  52.883  0.00  0.00     0.001 A 
ENDROOT
BRANCH   1  10
ATOM     10  C   UNL d   1      53.833  33.029  53.493  0.00  0.00     0.082 C 
BRANCH  10  11
ATOM     11  C   UNL d   1      54.029  33.182  54.289  0.00  0.00     0.034 C 
BRANCH  11  12
ATOM     12  C   UNL d   1      54.814  33.257  54.517  0.00  0.00     0.119 C 
BRANCH  12  13
ATOM     13  S   UNL d   1      54.999  33.608  55.243  0.00  0.00     0.140 S 
ATOM     14  O   UNL d   1      55.182  33.955  55.951  0.00  0.00    -0.591 OA
ATOM     15  O   UNL d   1      54.603  33.002  55.636  0.00  0.00    -0.591 OA
ATOM     16  O   UNL d   1      55.397  34.217  54.847  0.00  0.00    -0.591 OA
ENDBRANCH  12  13
ENDBRANCH  11  12
ENDBRANCH  10  11
ENDBRANCH   1  10
BRANCH   2  17
ATOM     17  S   UNL d   1      53.133  31.425  53.179  0.00  0.00    -0.089 SA
ATOM     18  C   UNL d   1      52.776  30.740  52.928  0.00  0.00     0.076 C 
ENDBRANCH   2  17
TORSDOF 5
ENDMDL
MODEL 4
REMARK VINA RESULT:      -7.9      2.305      3.036
REMARK  5 active torsions:
REMARK  status: ('A' for Active; 'I' for Inactive)
REMARK    1  A    between atoms: C_11  and  N_1 
REMARK    2  A    between atoms: S_10  and  C_2 
REMARK    3  A    between atoms: S_3  and  C_12 
REMARK    4  A    between atoms: C_13  and  C_11 
REMARK    5  A    between atoms: C_12  and  C_13 
ROOT
ATOM      1  N   UNL d   1      53.104  32.954  53.414  0.00  0.00    -0.295 N 
ATOM      2  C   UNL d   1      53.118  32.134  53.432  0.00  0.00     0.121 A 
ATOM      3  S   UNL d   1      53.582  31.889  54.066  0.00  0.00    -0.062 SA
ATOM      4  C   UNL d   1      53.564  33.226  54.043  0.00  0.00     0.071 A 
ATOM      5  C   UNL d   1      53.862  32.561  54.450  0.00  0.00     0.047 A 
ATOM      6  C   UNL d   1      53.751  33.987  54.301  0.00  0.00     0.018 A 
ATOM      7  C   UNL d   1      54.343  32.670  55.106  0.00  0.00     0.008 A 
ATOM      8  C   UNL d   1      54.238  34.088  54.965  0.00  0.00     0.002 A 
ATOM      9  C   UNL d   1      54.529  33.439  55.362  0.00  0.00     0.001 A 
ENDROOT
BRANCH   1  10
ATOM     10  C   UNL d   1      52.709  33.415  52.875  0.00  0.00     0.082 C 
BRANCH  10  11
ATOM     11  C   UNL d   1      51.916  33.635  53.009  0.00  0.00     0.034 C 
BRANCH  11  12
ATOM     12  C   UNL d   1      51.576  34.249  52.582  0.00  0.00     0.119 C 
BRANCH  12  13
ATOM     13  S   UNL d   1      50.753  34.300  52.522  0.00  0.00     0.140 S 
ATOM     14  O   UNL d   1      49.948  34.349  52.457  0.00  0.00    -0.591 OA
ATOM     15  O   UNL d   1      50.708  34.516  53.315  0.00  0.00    -0.591 OA
ATOM     16  O   UNL d   1      50.798  34.083  51.724  0.00  0.00    -0.591 OA
ENDBRANCH  12  13
ENDBRANCH  11  12
ENDBRANCH  10  11
ENDBRANCH   1  10
BRANCH   2  17
ATOM     17  S   UNL d   1      52.732  31.638  52.903  0.00  0.00    -0.089 SA
ATOM     18  C   UNL d   1      52.837  30.832  52.941  0.00  0.00     0.076 C 
ENDBRANCH   2  17
TORSDOF 5
ENDMDL
MODEL 5
REMARK VINA RESULT:      -7.8      2.283      3.464
REMARK  5 active torsions:
REMARK  status: ('A' for Active; 'I' for Inactive)
REMARK    1  A    between atoms: C_11  and  N_1 
REMARK    2  A    between atoms: S_10  and  C_2 
REMARK    3  A    between atoms: S_3  and  C_12 
REMARK    4  A    between atoms: C_13  and  C_11 
REMARK    5  A    between atoms: C_12  and  C_13 
ROOT
ATOM      1  N   UNL d   1      53.269  32.770  53.501  0.00  0.00    -0.295 N 
ATOM      2  C   UNL d   1      53.747  32.866  54.160  0.00  0.00     0.121 A 
ATOM      3  S   UNL d   1      53.971  32.125  54.437  0.00  0.00    -0.062 SA
ATOM      4  C   UNL d   1      53.193  31.961  53.362  0.00  0.00     0.071 A 
ATOM      5  C   UNL d   1      53.632  31.558  53.947  0.00  0.00     0.047 A 
ATOM      6  C   UNL d   1      52.785  31.536  52.784  0.00  0.00     0.018 A 
ATOM      7  C   UNL d   1      53.654  30.737  53.943  0.00  0.00     0.008 A 
ATOM      8  C   UNL d   1      52.813  30.707  52.787  0.00  0.00     0.002 A 
ATOM      9  C   UNL d   1      53.241  30.313  53.358  0.00  0.00     0.001 A 
ENDROOT
BRANCH   1  10
ATOM     10  C   UNL d   1      52.931  33.365  53.063  0.00  0.00     0.082 C 
BRANCH  10  11
ATOM     11  C   UNL d   1      52.120  33.539  53.142  0.00  0.00     0.034 C 
BRANCH  11  12
ATOM     12  C   UNL d   1      51.801  34.208  52.789  0.00  0.00     0.119 C 
BRANCH  12  13
ATOM     13  S   UNL d   1      50.986  34.252  52.654  0.00  0.00     0.140 S 
ATOM     14  O   UNL d   1      50.190  34.295  52.517  0.00  0.00    -0.591 OA
ATOM     15  O   UNL d   1      50.859  34.364  53.460  0.00  0.00    -0.591 OA
ATOM     16  O   UNL d   1      51.114  34.140  51.844  0.00  0.00    -0.591 OA
ENDBRANCH  12  13
ENDBRANCH  11  12
ENDBRANCH  10  11
ENDBRANCH   1  10
BRANCH   2  17
ATOM     17  S   UNL d   1      53.966  33.586  54.492  0.00  0.00    -0.089 SA
ATOM     18  C   UNL d   1      54.546  33.619  55.060  0.00  0.00     0.076 C 
ENDBRANCH   2  17
TORSDOF 5
ENDMDL
MODEL 6
REMARK VINA RESULT:      -7.8      2.134      3.340
REMARK  5 active torsions:
REMARK  status: ('A' for Active; 'I' for Inactive)
REMARK    1  A    between atoms: C_11  and  N_1 
REMARK    2  A    between atoms: S_10  and  C_2 
REMARK    3  A    between atoms: S_3  and  C_12 
REMARK    4  A    between atoms: C_13  and  C_11 
REMARK    5  A    between atoms: C_12  and  C_13 
ROOT
ATOM      1  N   UNL d   1      53.394  32.276  53.324  0.00  0.00    -0.295 N 
ATOM      2  C   UNL d   1      52.676  32.580  53.068  0.00  0.00     0.121 A 
ATOM      3  S   UNL d   1      52.160  31.958  52.920  0.00  0.00    -0.062 SA
ATOM      4  C   UNL d   1      53.326  31.453  53.337  0.00  0.00     0.071 A 
ATOM      5  C   UNL d   1      52.556  31.255  53.084  0.00  0.00     0.047 A 
ATOM      6  C   UNL d   1      53.860  30.859  53.543  0.00  0.00     0.018 A 
ATOM      7  C   UNL d   1      52.334  30.466  53.043  0.00  0.00     0.008 A 
ATOM      8  C   UNL d   1      53.628  30.064  53.499  0.00  0.00     0.002 A 
ATOM      9  C   UNL d   1      52.876  29.870  53.252  0.00  0.00     0.001 A 
ENDROOT
BRANCH   1  10
ATOM     10  C   UNL d   1      54.051  32.706  53.529  0.00  0.00     0.082 C 
BRANCH  10  11
ATOM     11  C   UNL d   1      54.153  32.975  54.311  0.00  0.00     0.034 C 
BRANCH  11  12
ATOM     12  C   UNL d   1      54.879  33.267  54.560  0.00  0.00     0.119 C 
BRANCH  12  13
ATOM     13  S   UNL d   1      54.925  33.715  55.253  0.00  0.00     0.140 S 
ATOM     14  O   UNL d   1      54.973  34.158  55.929  0.00  0.00    -0.591 OA
ATOM     15  O   UNL d   1      54.681  33.062  55.692  0.00  0.00    -0.591 OA
ATOM     16  O   UNL d   1      55.171  34.371  54.813  0.00  0.00    -0.591 OA
ENDBRANCH  12  13
ENDBRANCH  11  12
ENDBRANCH  10  11
ENDBRANCH   1  10
BRANCH   2  17
ATOM     17  S   UNL d   1      52.501  33.378  52.975  0.00  0.00    -0.089 SA
ATOM     18  C   UNL d   1      51.785  33.610  52.669  0.00  0.00     0.076 C 
ENDBRANCH   2  17
TORSDOF 5
ENDMDL
MODEL 7
REMARK VINA RESULT:      -6.9      2.685      3.657
REMARK  5 active torsions:
REMARK  status: ('A' for Active; 'I' for Inactive)
REMARK    1  A    between atoms: C_11  and  N_1 
REMARK    2  A    between atoms: S_10  and  C_2 
REMARK    3  A    between atoms: S_3  and  C_12 
REMARK    4  A    between atoms: C_13  and  C_11 
REMARK    5  A    between atoms: C_12  and  C_13 
ROOT
ATOM      1  N   UNL d   1      52.747  33.360  53.166  0.00  0.00    -0.295 N 
ATOM      2  C   UNL d   1      51.991  33.284  52.858  0.00  0.00     0.121 A 
ATOM      3  S   UNL d   1      51.815  32.485  52.773  0.00  0.00    -0.062 SA
ATOM      4  C   UNL d   1      53.050  32.601  53.276  0.00  0.00     0.071 A 
ATOM      5  C   UNL d   1      52.468  32.054  53.030  0.00  0.00     0.047 A 
ATOM      6  C   UNL d   1      53.775  32.332  53.565  0.00  0.00     0.018 A 
ATOM      7  C   UNL d   1      52.623  31.249  53.079  0.00  0.00     0.008 A 
ATOM      8  C   UNL d   1      53.922  31.517  53.610  0.00  0.00     0.002 A 
ATOM      9  C   UNL d   1      53.355  30.984  53.371  0.00  0.00     0.001 A 
ENDROOT
BRANCH   1  10
ATOM     10  C   UNL d   1      53.128  34.057  53.333  0.00  0.00     0.082 C 
BRANCH  10  11
ATOM     11  C   UNL d   1      52.956  34.476  54.034  0.00  0.00     0.034 C 
BRANCH  11  12
ATOM     12  C   UNL d   1      53.469  35.054  54.310  0.00  0.00     0.119 C 
BRANCH  12  13
ATOM     13  S   UNL d   1      53.174  35.682  54.761  0.00  0.00     0.140 S 
ATOM     14  O   UNL d   1      52.886  36.293  55.207  0.00  0.00    -0.591 OA
ATOM     15  O   UNL d   1      53.242  36.181  54.110  0.00  0.00    -0.591 OA
ATOM     16  O   UNL d   1      53.107  35.180  55.416  0.00  0.00    -0.591 OA
ENDBRANCH  12  13
ENDBRANCH  11  12
ENDBRANCH  10  11
ENDBRANCH   1  10
BRANCH   2  17
ATOM     17  S   UNL d   1      51.488  33.906  52.666  0.00  0.00    -0.089 SA
ATOM     18  C   UNL d   1      50.748  33.760  52.364  0.00  0.00     0.076 C 
ENDBRANCH   2  17
TORSDOF 5
ENDMDL
MODEL 8
REMARK VINA RESULT:      -5.9      2.754      4.010
REMARK  5 active torsions:
REMARK  status: ('A' for Active; 'I' for Inactive)
REMARK    1  A    between atoms: C_11  and  N_1 
REMARK    2  A    between atoms: S_10  and  C_2 
REMARK    3  A    between atoms: S_3  and  C_12 
REMARK    4  A    between atoms: C_13  and  C_11 
REMARK    5  A    between atoms: C_12  and  C_13 
ROOT
ATOM      1  N   UNL d   1      53.662  33.107  53.828  0.00  0.00    -0.295 N 
ATOM      2  C   UNL d   1      54.126  32.831  54.444  0.00  0.00     0.121 A 
ATOM      3  S   UNL d   1      54.057  32.012  54.486  0.00  0.00    -0.062 SA
ATOM      4  C   UNL d   1      53.297  32.455  53.478  0.00  0.00     0.071 A 
ATOM      5  C   UNL d   1      53.544  31.771  53.889  0.00  0.00     0.047 A 
ATOM      6  C   UNL d   1      52.775  32.390  52.842  0.00  0.00     0.018 A 
ATOM      7  C   UNL d   1      53.263  31.036  53.656  0.00  0.00     0.008 A 
ATOM      8  C   UNL d   1      52.496  31.643  52.613  0.00  0.00     0.002 A 
ATOM      9  C   UNL d   1      52.737  30.976  53.015  0.00  0.00     0.001 A 
ENDROOT
BRANCH   1  10
ATOM     10  C   UNL d   1      53.577  33.882  53.602  0.00  0.00     0.082 C 
BRANCH  10  11
ATOM     11  C   UNL d   1      53.105  34.403  54.050  0.00  0.00     0.034 C 
BRANCH  11  12
ATOM     12  C   UNL d   1      52.955  35.164  53.782  0.00  0.00     0.119 C 
BRANCH  12  13
ATOM     13  S   UNL d   1      52.703  35.745  54.314  0.00  0.00     0.140 S 
ATOM     14  O   UNL d   1      52.461  36.315  54.836  0.00  0.00    -0.591 OA
ATOM     15  O   UNL d   1      51.933  35.454  54.266  0.00  0.00    -0.591 OA
ATOM     16  O   UNL d   1      53.476  36.036  54.362  0.00  0.00    -0.591 OA
ENDBRANCH  12  13
ENDBRANCH  11  12
ENDBRANCH  10  11
ENDBRANCH   1  10
BRANCH   2  17
ATOM     17  S   UNL d   1      54.587  33.296  54.942  0.00  0.00    -0.089 SA
ATOM     18  C   UNL d   1      54.767  33.044  55.693  0.00  0.00     0.076 C 
ENDBRANCH   2  17
TORSDOF 5
ENDMDL
