MODEL 1
REMARK VINA RESULT:      -5.7      0.000      0.000
REMARK  1 active torsions:
REMARK  status: ('A' for Active; 'I' for Inactive)
REMARK    1  A    between atoms: O_8  and  C_4 
ROOT
ATOM      1  C   UNL d   1      53.619  31.443  53.665  0.00  0.00     0.065 A 
ATOM      2  C   UNL d   1      53.037  31.230  53.118  0.00  0.00     0.186 A 
ATOM      3  N   UNL d   1      52.595  31.814  52.739  0.00  0.00    -0.224 NA
ATOM      4  C   UNL d   1      53.756  32.240  53.830  0.00  0.00     0.099 A 
ATOM      5  N   UNL d   1      52.898  30.438  52.952  0.00  0.00    -0.127 N 
ATOM      6  C   UNL d   1      52.733  32.607  52.905  0.00  0.00     0.103 A 
ATOM      7  C   UNL d   1      53.315  32.820  53.452  0.00  0.00     0.045 A 
ENDROOT
BRANCH   4   8
ATOM      8  O   UNL d   1      54.333  32.451  54.372  0.00  0.00    -0.328 OA
ATOM      9  C   UNL d   1      54.145  32.944  55.002  0.00  0.00     0.181 C 
ENDBRANCH   4   8
TORSDOF 1
ENDMDL
MODEL 2
REMARK VINA RESULT:      -5.5      2.038      2.655
REMARK  1 active torsions:
REMARK  status: ('A' for Active; 'I' for Inactive)
REMARK    1  A    between atoms: O_8  and  C_4 
ROOT
ATOM      1  C   UNL d   1      54.414  32.978  54.453  0.00  0.00     0.065 A 
ATOM      2  C   UNL d   1      54.541  33.648  54.920  0.00  0.00     0.186 A 
ATOM      3  N   UNL d   1      53.952  34.223  54.985  0.00  0.00    -0.224 NA
ATOM      4  C   UNL d   1      53.699  32.885  54.054  0.00  0.00     0.099 A 
ATOM      5  N   UNL d   1      55.252  33.744  55.320  0.00  0.00    -0.127 N 
ATOM      6  C   UNL d   1      53.241  34.128  54.586  0.00  0.00     0.103 A 
ATOM      7  C   UNL d   1      53.114  33.457  54.119  0.00  0.00     0.045 A 
ENDROOT
BRANCH   4   8
ATOM      8  O   UNL d   1      53.574  32.220  53.591  0.00  0.00    -0.328 OA
ATOM      9  C   UNL d   1      52.925  32.185  53.088  0.00  0.00     0.181 C 
ENDBRANCH   4   8
TORSDOF 1
ENDMDL
MODEL 3
REMARK VINA RESULT:      -5.4      1.649      2.390
REMARK  1 active torsions:
REMARK  status: ('A' for Active; 'I' for Inactive)
REMARK    1  A    between atoms: O_8  and  C_4 
ROOT
ATOM      1  C   UNL d   1      52.692  32.940  53.264  0.00  0.00     0.065 A 
ATOM      2  C   UNL d   1      52.949  33.510  53.804  0.00  0.00     0.186 A 
ATOM      3  N   UNL d   1      53.604  33.359  54.283  0.00  0.00    -0.224 NA
ATOM      4  C   UNL d   1      53.091  32.220  53.205  0.00  0.00     0.099 A 
ATOM      5  N   UNL d   1      52.554  34.227  53.865  0.00  0.00    -0.127 N 
ATOM      6  C   UNL d   1      54.000  32.642  54.222  0.00  0.00     0.103 A 
ATOM      7  C   UNL d   1      53.743  32.071  53.681  0.00  0.00     0.045 A 
ENDROOT
BRANCH   4   8
ATOM      8  O   UNL d   1      52.836  31.655  52.670  0.00  0.00    -0.328 OA
ATOM      9  C   UNL d   1      52.751  30.873  52.906  0.00  0.00     0.181 C 
ENDBRANCH   4   8
TORSDOF 1
ENDMDL
MODEL 4
REMARK VINA RESULT:      -5.3      1.551      2.068
REMARK  1 active torsions:
REMARK  status: ('A' for Active; 'I' for Inactive)
REMARK    1  A    between atoms: O_8  and  C_4 
ROOT
ATOM      1  C   UNL d   1      53.458  32.965  53.638  0.00  0.00     0.065 A 
ATOM      2  C   UNL d   1      53.746  32.298  54.035  0.00  0.00     0.186 A 
ATOM      3  N   UNL d   1      54.109  32.382  54.771  0.00  0.00    -0.224 NA
ATOM      4  C   UNL d   1      53.534  33.711  53.980  0.00  0.00     0.099 A 
ATOM      5  N   UNL d   1      53.671  31.554  53.697  0.00  0.00    -0.127 N 
ATOM      6  C   UNL d   1      54.184  33.127  55.109  0.00  0.00     0.103 A 
ATOM      7  C   UNL d   1      53.896  33.793  54.713  0.00  0.00     0.045 A 
ENDROOT
BRANCH   4   8
ATOM      8  O   UNL d   1      53.250  34.371  53.587  0.00  0.00    -0.328 OA
ATOM      9  C   UNL d   1      52.879  34.972  54.007  0.00  0.00     0.181 C 
ENDBRANCH   4   8
TORSDOF 1
ENDMDL
MODEL 5
REMARK VINA RESULT:      -5.0      2.075      2.529
REMARK  1 active torsions:
REMARK  status: ('A' for Active; 'I' for Inactive)
REMARK    1  A    between atoms: O_8  and  C_4 
ROOT
ATOM      1  C   UNL d   1      52.701  33.593  53.737  0.00  0.00     0.065 A 
ATOM      2  C   UNL d   1      52.388  34.271  53.382  0.00  0.00     0.186 A 
ATOM      3  N   UNL d   1      52.590  35.017  53.670  0.00  0.00    -0.224 NA
ATOM      4  C   UNL d   1      53.215  33.664  54.378  0.00  0.00     0.099 A 
ATOM      5  N   UNL d   1      51.876  34.203  52.744  0.00  0.00    -0.127 N 
ATOM      6  C   UNL d   1      53.102  35.085  54.309  0.00  0.00     0.103 A 
ATOM      7  C   UNL d   1      53.415  34.407  54.664  0.00  0.00     0.045 A 
ENDROOT
BRANCH   4   8
ATOM      8  O   UNL d   1      53.525  32.992  54.729  0.00  0.00    -0.328 OA
ATOM      9  C   UNL d   1      54.262  33.019  55.091  0.00  0.00     0.181 C 
ENDBRANCH   4   8
TORSDOF 1
ENDMDL
MODEL 6
REMARK VINA RESULT:      -4.8      2.168      2.839
REMARK  1 active torsions:
REMARK  status: ('A' for Active; 'I' for Inactive)
REMARK    1  A    between atoms: O_8  and  C_4 
ROOT
ATOM      1  C   UNL d   1      52.151  33.242  52.844  0.00  0.00     0.065 A 
ATOM      2  C   UNL d   1      52.828  33.098  53.296  0.00  0.00     0.186 A 
ATOM      3  N   UNL d   1      53.175  33.712  53.725  0.00  0.00    -0.224 NA
ATOM      4  C   UNL d   1      51.823  33.998  52.824  0.00  0.00     0.099 A 
ATOM      5  N   UNL d   1      53.157  32.346  53.319  0.00  0.00    -0.127 N 
ATOM      6  C   UNL d   1      52.847  34.465  53.703  0.00  0.00     0.103 A 
ATOM      7  C   UNL d   1      52.169  34.608  53.251  0.00  0.00     0.045 A 
ENDROOT
BRANCH   4   8
ATOM      8  O   UNL d   1      51.152  34.141  52.376  0.00  0.00    -0.328 OA
ATOM      9  C   UNL d   1      50.439  34.313  52.746  0.00  0.00     0.181 C 
ENDBRANCH   4   8
TORSDOF 1
ENDMDL
MODEL 7
REMARK VINA RESULT:      -3.5      9.606      9.841
REMARK  1 active torsions:
REMARK  status: ('A' for Active; 'I' for Inactive)
REMARK    1  A    between atoms: O_8  and  C_4 
ROOT
ATOM      1  C   UNL d   1      45.177  28.227  57.014  0.00  0.00     0.065 A 
ATOM      2  C   UNL d   1      45.361  27.948  57.770  0.00  0.00     0.186 A 
ATOM      3  N   UNL d   1      45.303  28.452  58.421  0.00  0.00    -0.224 NA
ATOM      4  C   UNL d   1      44.935  29.009  56.911  0.00  0.00     0.099 A 
ATOM      5  N   UNL d   1      45.602  27.170  57.875  0.00  0.00    -0.127 N 
ATOM      6  C   UNL d   1      45.062  29.231  58.316  0.00  0.00     0.103 A 
ATOM      7  C   UNL d   1      44.877  29.510  57.560  0.00  0.00     0.045 A 
ENDROOT
BRANCH   4   8
ATOM      8  O   UNL d   1      44.753  29.285  56.162  0.00  0.00    -0.328 OA
ATOM      9  C   UNL d   1      44.563  30.077  56.050  0.00  0.00     0.181 C 
ENDBRANCH   4   8
TORSDOF 1
ENDMDL
MODEL 8
REMARK VINA RESULT:      -3.5      9.974     10.364
REMARK  1 active torsions:
REMARK  status: ('A' for Active; 'I' for Inactive)
REMARK    1  A    between atoms: O_8  and  C_4 
ROOT
ATOM      1  C   UNL d   1      45.267  28.040  58.420  0.00  0.00     0.065 A 
ATOM      2  C   UNL d   1      45.139  28.632  57.857  0.00  0.00     0.186 A 
ATOM      3  N   UNL d   1      45.143  28.443  57.053  0.00  0.00    -0.224 NA
ATOM      4  C   UNL d   1      45.399  27.263  58.178  0.00  0.00     0.099 A 
ATOM      5  N   UNL d   1      45.007  29.406  58.095  0.00  0.00    -0.127 N 
ATOM      6  C   UNL d   1      45.275  27.668  56.814  0.00  0.00     0.103 A 
ATOM      7  C   UNL d   1      45.403  27.077  57.378  0.00  0.00     0.045 A 
ENDROOT
BRANCH   4   8
ATOM      8  O   UNL d   1      45.526  26.678  58.736  0.00  0.00    -0.328 OA
ATOM      9  C   UNL d   1      44.966  26.087  58.849  0.00  0.00     0.181 C 
ENDBRANCH   4   8
TORSDOF 1
ENDMDL
MODEL 9
REMARK VINA RESULT:      -3.2     10.067     10.454
REMARK  1 active torsions:
REMARK  status: ('A' for Active; 'I' for Inactive)
REMARK    1  A    between atoms: O_8  and  C_4 
ROOT
ATOM      1  C   UNL d   1      45.357  27.403  57.295  0.00  0.00     0.065 A 
ATOM      2  C   UNL d   1      45.107  26.621  57.197  0.00  0.00     0.186 A 
ATOM      3  N   UNL d   1      44.892  26.172  57.856  0.00  0.00    -0.224 NA
ATOM      4  C   UNL d   1      45.391  27.733  58.050  0.00  0.00     0.099 A 
ATOM      5  N   UNL d   1      45.072  26.290  56.447  0.00  0.00    -0.127 N 
ATOM      6  C   UNL d   1      44.927  26.503  58.607  0.00  0.00     0.103 A 
ATOM      7  C   UNL d   1      45.177  27.285  58.704  0.00  0.00     0.045 A 
ENDROOT
BRANCH   4   8
ATOM      8  O   UNL d   1      45.638  28.508  58.146  0.00  0.00    -0.328 OA
ATOM      9  C   UNL d   1      45.134  29.062  58.485  0.00  0.00     0.181 C 
ENDBRANCH   4   8
TORSDOF 1
ENDMDL
