MODEL 1
REMARK VINA RESULT:      47.8      0.000      0.000
REMARK  4 active torsions:
REMARK  status: ('A' for Active; 'I' for Inactive)
REMARK    1  A    between atoms: C_3  and  C_1 
REMARK    2  A    between atoms: C_5  and  C_1 
REMARK    3  A    between atoms: C_2  and  C_3 
REMARK       I    between atoms: N_4  and  C_2 
REMARK    4  A    between atoms: C_6  and  N_4 
ROOT
ATOM      1  C   UNL d   1     -49.415  27.547  34.262  0.00  0.00     0.279 C 
ATOM      2  N   UNL d   1     -50.013  27.477  33.693  0.00  0.00    -0.208 NA
ATOM      3  O   UNL d   1     -49.219  26.887  34.716  0.00  0.00    -0.265 OA
ENDROOT
BRANCH   1   4
ATOM      4  C   UNL d   1     -49.006  28.257  34.392  0.00  0.00     0.063 C 
BRANCH   4   5
ATOM      5  C   UNL d   1     -48.572  28.374  35.058  0.00  0.00     0.006 C 
BRANCH   5   6
ATOM      6  C   UNL d   1     -48.192  29.101  35.211  0.00  0.00     0.011 A 
ATOM      7  C   UNL d   1     -47.699  29.214  35.860  0.00  0.00     0.058 A 
ATOM      8 CL   UNL d   1     -47.571  28.590  36.385  0.00  0.00    -0.082 Cl
ATOM      9  C   UNL d   1     -47.337  29.924  35.997  0.00  0.00     0.011 A 
ATOM     10  C   UNL d   1     -47.464  30.564  35.466  0.00  0.00     0.001 A 
ATOM     11  C   UNL d   1     -47.950  30.476  34.811  0.00  0.00     0.000 A 
ATOM     12  C   UNL d   1     -48.319  29.740  34.679  0.00  0.00     0.001 A 
ENDBRANCH   5   6
ENDBRANCH   4   5
ENDBRANCH   1   4
BRANCH   2  13
ATOM     13  C   UNL d   1     -50.422  26.769  33.563  0.00  0.00     0.088 A 
ATOM     14  C   UNL d   1     -51.244  26.790  33.498  0.00  0.00     0.061 A 
ATOM     15  C   UNL d   1     -51.670  26.120  33.372  0.00  0.00     0.197 A 
ATOM     16  O   UNL d   1     -52.489  26.141  33.307  0.00  0.00    -0.286 OA
ATOM     17  C   UNL d   1     -51.266  25.390  33.306  0.00  0.00     0.042 A 
ATOM     18  C   UNL d   1     -50.444  25.368  33.371  0.00  0.00     0.005 A 
ATOM     19  C   UNL d   1     -50.035  26.077  33.501  0.00  0.00     0.019 A 
ENDBRANCH   2  13
TORSDOF 4
ENDMDL
