MODEL 1
REMARK VINA RESULT:      17.9      0.000      0.000
REMARK  5 active torsions:
REMARK  status: ('A' for Active; 'I' for Inactive)
REMARK    1  A    between atoms: N_2  and  S_1 
REMARK    2  A    between atoms: C_6  and  S_1 
REMARK    3  A    between atoms: C_5  and  N_2 
REMARK    4  A    between atoms: C_3  and  C_8 
REMARK    5  A    between atoms: C_7  and  C_4 
ROOT
ATOM      1  S   UNL d   1      46.247 -16.472  44.175  0.00  0.00     0.285 S 
ATOM      2  O   UNL d   1      45.979 -16.455  43.407  0.00  0.00    -0.198 OA
ATOM      3  O   UNL d   1      46.518 -16.490  44.954  0.00  0.00    -0.198 OA
ENDROOT
BRANCH   1   4
ATOM      4  N   UNL d   1      46.240 -15.653  44.195  0.00  0.00    -0.158 NA
BRANCH   4   5
ATOM      5  C   UNL d   1      45.571 -15.240  44.444  0.00  0.00     0.100 A 
ATOM      6  C   UNL d   1      45.560 -14.451  44.450  0.00  0.00     0.083 A 
ATOM      7  C   UNL d   1      44.890 -14.037  44.699  0.00  0.00     0.008 A 
ATOM      8  C   UNL d   1      44.200 -14.474  44.955  0.00  0.00     0.000 A 
ATOM      9  C   UNL d   1      44.211 -15.263  44.950  0.00  0.00     0.002 A 
ATOM     10  C   UNL d   1      44.914 -15.676  44.688  0.00  0.00     0.020 A 
BRANCH   6  11
ATOM     11  C   UNL d   1      46.216 -14.015  44.206  0.00  0.00     0.212 C 
ATOM     12  O   UNL d   1      46.517 -14.091  43.448  0.00  0.00    -0.644 OA
ATOM     13  O   UNL d   1      46.561 -13.499  44.750  0.00  0.00    -0.644 OA
ENDBRANCH   6  11
ENDBRANCH   4   5
ENDBRANCH   1   4
BRANCH   1  14
ATOM     14  C   UNL d   1      46.253 -17.298  44.153  0.00  0.00     0.105 A 
ATOM     15  C   UNL d   1      46.278 -17.703  43.436  0.00  0.00     0.017 A 
ATOM     16  C   UNL d   1      46.284 -18.499  43.416  0.00  0.00     0.072 A 
ATOM     17  C   UNL d   1      46.265 -18.941  44.112  0.00  0.00     0.004 A 
ATOM     18  C   UNL d   1      46.240 -18.536  44.829  0.00  0.00     0.001 A 
ATOM     19  C   UNL d   1      46.234 -17.740  44.849  0.00  0.00     0.013 A 
BRANCH  16  20
ATOM     20  C   UNL d   1      46.311 -18.904  42.663  0.00  0.00     0.419 C 
ATOM     21  F   UNL d   1      46.329 -19.321  41.941  0.00  0.00    -0.166 F 
ATOM     22  F   UNL d   1      46.066 -19.630  43.043  0.00  0.00    -0.166 F 
ATOM     23  F   UNL d   1      46.546 -18.196  42.310  0.00  0.00    -0.166 F 
ENDBRANCH  16  20
ENDBRANCH   1  14
TORSDOF 5
ENDMDL
MODEL 2
REMARK VINA RESULT:      18.1      2.223      4.188
REMARK  5 active torsions:
REMARK  status: ('A' for Active; 'I' for Inactive)
REMARK    1  A    between atoms: N_2  and  S_1 
REMARK    2  A    between atoms: C_6  and  S_1 
REMARK    3  A    between atoms: C_5  and  N_2 
REMARK    4  A    between atoms: C_3  and  C_8 
REMARK    5  A    between atoms: C_7  and  C_4 
ROOT
ATOM      1  S   UNL d   1      45.907 -16.840  44.458  0.00  0.00     0.285 S 
ATOM      2  O   UNL d   1      46.611 -16.478  44.272  0.00  0.00    -0.198 OA
ATOM      3  O   UNL d   1      45.193 -17.207  44.647  0.00  0.00    -0.198 OA
ENDROOT
BRANCH   1   4
ATOM      4  N   UNL d   1      46.260 -17.573  44.364  0.00  0.00    -0.158 NA
BRANCH   4   5
ATOM      5  C   UNL d   1      46.251 -17.958  43.634  0.00  0.00     0.100 A 
ATOM      6  C   UNL d   1      46.291 -18.744  43.589  0.00  0.00     0.083 A 
ATOM      7  C   UNL d   1      46.282 -19.129  42.858  0.00  0.00     0.008 A 
ATOM      8  C   UNL d   1      46.229 -18.664  42.141  0.00  0.00     0.000 A 
ATOM      9  C   UNL d   1      46.188 -17.878  42.187  0.00  0.00     0.002 A 
ATOM     10  C   UNL d   1      46.199 -17.495  42.952  0.00  0.00     0.020 A 
BRANCH   6  11
ATOM     11  C   UNL d   1      46.343 -19.207  44.270  0.00  0.00     0.212 C 
ATOM     12  O   UNL d   1      46.102 -19.990  44.268  0.00  0.00    -0.644 OA
ATOM     13  O   UNL d   1      46.646 -18.857  44.953  0.00  0.00    -0.644 OA
ENDBRANCH   6  11
ENDBRANCH   4   5
ENDBRANCH   1   4
BRANCH   1  14
ATOM     14  C   UNL d   1      45.552 -16.100  44.554  0.00  0.00     0.105 A 
ATOM     15  C   UNL d   1      45.960 -15.407  44.371  0.00  0.00     0.017 A 
ATOM     16  C   UNL d   1      45.618 -14.694  44.463  0.00  0.00     0.072 A 
ATOM     17  C   UNL d   1      44.845 -14.628  44.743  0.00  0.00     0.004 A 
ATOM     18  C   UNL d   1      44.437 -15.321  44.926  0.00  0.00     0.001 A 
ATOM     19  C   UNL d   1      44.780 -16.033  44.834  0.00  0.00     0.013 A 
BRANCH  16  20
ATOM     20  C   UNL d   1      46.056 -13.985  44.269  0.00  0.00     0.419 C 
ATOM     21  F   UNL d   1      46.467 -13.291  44.059  0.00  0.00    -0.166 F 
ATOM     22  F   UNL d   1      45.570 -13.874  43.575  0.00  0.00    -0.166 F 
ATOM     23  F   UNL d   1      46.516 -14.107  44.943  0.00  0.00    -0.166 F 
ENDBRANCH  16  20
ENDBRANCH   1  14
TORSDOF 5
ENDMDL
MODEL 3
REMARK VINA RESULT:      18.8      1.087      1.399
REMARK  5 active torsions:
REMARK  status: ('A' for Active; 'I' for Inactive)
REMARK    1  A    between atoms: N_2  and  S_1 
REMARK    2  A    between atoms: C_6  and  S_1 
REMARK    3  A    between atoms: C_5  and  N_2 
REMARK    4  A    between atoms: C_3  and  C_8 
REMARK    5  A    between atoms: C_7  and  C_4 
ROOT
ATOM      1  S   UNL d   1      45.356 -16.076  44.222  0.00  0.00     0.285 S 
ATOM      2  O   UNL d   1      45.668 -15.865  43.501  0.00  0.00    -0.198 OA
ATOM      3  O   UNL d   1      45.039 -16.289  44.953  0.00  0.00    -0.198 OA
ENDROOT
BRANCH   1   4
ATOM      4  N   UNL d   1      44.989 -15.345  44.276  0.00  0.00    -0.158 NA
BRANCH   4   5
ATOM      5  C   UNL d   1      45.421 -14.666  44.456  0.00  0.00     0.100 A 
ATOM      6  C   UNL d   1      45.113 -13.947  44.346  0.00  0.00     0.083 A 
ATOM      7  C   UNL d   1      45.546 -13.267  44.526  0.00  0.00     0.008 A 
ATOM      8  C   UNL d   1      46.339 -13.346  44.837  0.00  0.00     0.000 A 
ATOM      9  C   UNL d   1      46.647 -14.065  44.948  0.00  0.00     0.002 A 
ATOM     10  C   UNL d   1      46.185 -14.759  44.756  0.00  0.00     0.020 A 
BRANCH   6  11
ATOM     11  C   UNL d   1      44.350 -13.853  44.046  0.00  0.00     0.212 C 
ATOM     12  O   UNL d   1      44.226 -13.565  43.290  0.00  0.00    -0.644 OA
ATOM     13  O   UNL d   1      43.716 -14.059  44.532  0.00  0.00    -0.644 OA
ENDBRANCH   6  11
ENDBRANCH   4   5
ENDBRANCH   1   4
BRANCH   1  14
ATOM     14  C   UNL d   1      45.725 -16.812  44.167  0.00  0.00     0.105 A 
ATOM     15  C   UNL d   1      45.870 -17.161  43.434  0.00  0.00     0.017 A 
ATOM     16  C   UNL d   1      46.226 -17.871  43.382  0.00  0.00     0.072 A 
ATOM     17  C   UNL d   1      46.461 -18.278  44.058  0.00  0.00     0.004 A 
ATOM     18  C   UNL d   1      46.317 -17.930  44.791  0.00  0.00     0.001 A 
ATOM     19  C   UNL d   1      45.961 -17.220  44.844  0.00  0.00     0.013 A 
BRANCH  16  20
ATOM     20  C   UNL d   1      46.368 -18.218  42.613  0.00  0.00     0.419 C 
ATOM     21  F   UNL d   1      46.498 -18.580  41.873  0.00  0.00    -0.166 F 
ATOM     22  F   UNL d   1      46.111 -18.978  42.907  0.00  0.00    -0.166 F 
ATOM     23  F   UNL d   1      46.613 -17.478  42.343  0.00  0.00    -0.166 F 
ENDBRANCH  16  20
ENDBRANCH   1  14
TORSDOF 5
ENDMDL
