MODEL 1
REMARK VINA RESULT:      56.6      0.000      0.000
REMARK  10 active torsions:
REMARK  status: ('A' for Active; 'I' for Inactive)
REMARK    1  A    between atoms: S_6  and  C_1 
REMARK    2  A    between atoms: C_12  and  N_2 
REMARK    3  A    between atoms: C_11  and  C_4 
REMARK    4  A    between atoms: C_10  and  S_6 
REMARK       I    between atoms: C_7  and  N_9 
REMARK    5  A    between atoms: C_13  and  C_7 
REMARK    6  A    between atoms: C_8  and  C_10 
REMARK    7  A    between atoms: O_18  and  C_8 
REMARK    8  A    between atoms: N_9  and  C_11 
REMARK    9  A    between atoms: C_26  and  O_18 
REMARK   10  A    between atoms: O_22  and  C_19 
ROOT
ATOM      1  C   UNL d   1      14.263  14.419  -2.689  0.00  0.00     0.201 A 
ATOM      2  N   UNL d   1      14.012  14.282  -3.462  0.00  0.00    -0.268 N 
ATOM      3  N   UNL d   1      14.530  15.202  -2.634  0.00  0.00    -0.121 NA
ATOM      4  C   UNL d   1      14.128  14.991  -3.884  0.00  0.00     0.190 A 
ATOM      5  N   UNL d   1      14.448  15.554  -3.363  0.00  0.00    -0.126 NA
ENDROOT
BRANCH   4   6
ATOM      6  C   UNL d   1      13.954  15.115  -4.683  0.00  0.00     0.141 C 
BRANCH   6   7
ATOM      7  N   UNL d   1      13.992  15.940  -4.760  0.00  0.00    -0.203 NA
ATOM      8  C   UNL d   1      14.217  16.273  -5.482  0.00  0.00     0.279 C 
ATOM      9  O   UNL d   1      14.402  15.794  -6.122  0.00  0.00    -0.265 OA
BRANCH   8  10
ATOM     10  C   UNL d   1      14.253  17.095  -5.551  0.00  0.00     0.058 A 
ATOM     11  C   UNL d   1      13.709  17.499  -6.010  0.00  0.00     0.007 A 
ATOM     12  C   UNL d   1      13.746  18.321  -6.078  0.00  0.00     0.024 A 
ATOM     13  C   UNL d   1      14.341  18.734  -5.677  0.00  0.00     0.094 A 
ATOM     14  C   UNL d   1      14.884  18.328  -5.219  0.00  0.00     0.024 A 
ATOM     15  C   UNL d   1      14.848  17.507  -5.150  0.00  0.00     0.007 A 
BRANCH  13  16
ATOM     16  O   UNL d   1      14.377  19.555  -5.745  0.00  0.00    -0.328 OA
ATOM     17  C   UNL d   1      13.932  19.935  -6.318  0.00  0.00     0.181 C 
ENDBRANCH  13  16
ENDBRANCH   8  10
ENDBRANCH   6   7
ENDBRANCH   4   6
BRANCH   2  18
ATOM     18  C   UNL d   1      13.710  13.586  -3.755  0.00  0.00     0.067 A 
ATOM     19  C   UNL d   1      14.031  12.863  -3.528  0.00  0.00     0.018 A 
ATOM     20  C   UNL d   1      13.726  12.163  -3.823  0.00  0.00     0.002 A 
ATOM     21  C   UNL d   1      13.096  12.175  -4.349  0.00  0.00     0.000 A 
ATOM     22  C   UNL d   1      12.770  12.897  -4.580  0.00  0.00     0.002 A 
ATOM     23  C   UNL d   1      13.078  13.604  -4.282  0.00  0.00     0.018 A 
ENDBRANCH   2  18
BRANCH   1  24
ATOM     24  S   UNL d   1      14.252  13.870  -2.069  0.00  0.00    -0.043 SA
BRANCH  24  25
ATOM     25  C   UNL d   1      14.619  14.043  -1.350  0.00  0.00     0.096 C 
ATOM     26  C   UNL d   1      14.605  14.806  -1.056  0.00  0.00     0.013 C 
BRANCH  25  27
ATOM     27  C   UNL d   1      15.005  13.448  -0.923  0.00  0.00     0.306 C 
ATOM     28  O   UNL d   1      15.773  13.231  -1.116  0.00  0.00    -0.258 OA
BRANCH  27  29
ATOM     29  O   UNL d   1      14.610  13.082  -0.307  0.00  0.00    -0.271 OA
BRANCH  29  30
ATOM     30  C   UNL d   1      14.729  12.271  -0.162  0.00  0.00     0.126 C 
ATOM     31  C   UNL d   1      14.109  11.780  -0.015  0.00  0.00     0.029 C 
ENDBRANCH  29  30
ENDBRANCH  27  29
ENDBRANCH  25  27
ENDBRANCH  24  25
ENDBRANCH   1  24
TORSDOF 10
ENDMDL
MODEL 2
REMARK VINA RESULT:      56.9      0.998      1.440
REMARK  10 active torsions:
REMARK  status: ('A' for Active; 'I' for Inactive)
REMARK    1  A    between atoms: S_6  and  C_1 
REMARK    2  A    between atoms: C_12  and  N_2 
REMARK    3  A    between atoms: C_11  and  C_4 
REMARK    4  A    between atoms: C_10  and  S_6 
REMARK       I    between atoms: C_7  and  N_9 
REMARK    5  A    between atoms: C_13  and  C_7 
REMARK    6  A    between atoms: C_8  and  C_10 
REMARK    7  A    between atoms: O_18  and  C_8 
REMARK    8  A    between atoms: N_9  and  C_11 
REMARK    9  A    between atoms: C_26  and  O_18 
REMARK   10  A    between atoms: O_22  and  C_19 
ROOT
ATOM      1  C   UNL d   1      14.677  15.709  -2.753  0.00  0.00     0.201 A 
ATOM      2  N   UNL d   1      14.393  15.531  -3.506  0.00  0.00    -0.268 N 
ATOM      3  N   UNL d   1      15.048  16.450  -2.781  0.00  0.00    -0.121 NA
ATOM      4  C   UNL d   1      14.594  16.171  -3.999  0.00  0.00     0.190 A 
ATOM      5  N   UNL d   1      14.999  16.735  -3.542  0.00  0.00    -0.126 NA
ENDROOT
BRANCH   4   6
ATOM      6  C   UNL d   1      14.421  16.237  -4.805  0.00  0.00     0.141 C 
BRANCH   6   7
ATOM      7  N   UNL d   1      14.456  17.054  -4.941  0.00  0.00    -0.203 NA
ATOM      8  C   UNL d   1      14.255  17.355  -5.685  0.00  0.00     0.279 C 
ATOM      9  O   UNL d   1      14.023  16.850  -6.289  0.00  0.00    -0.265 OA
BRANCH   8  10
ATOM     10  C   UNL d   1      14.293  18.170  -5.813  0.00  0.00     0.058 A 
ATOM     11  C   UNL d   1      13.723  18.548  -6.261  0.00  0.00     0.007 A 
ATOM     12  C   UNL d   1      13.761  19.362  -6.388  0.00  0.00     0.024 A 
ATOM     13  C   UNL d   1      14.383  19.795  -6.056  0.00  0.00     0.094 A 
ATOM     14  C   UNL d   1      14.953  19.415  -5.607  0.00  0.00     0.024 A 
ATOM     15  C   UNL d   1      14.915  18.601  -5.480  0.00  0.00     0.007 A 
BRANCH  13  16
ATOM     16  O   UNL d   1      14.421  20.609  -6.183  0.00  0.00    -0.328 OA
ATOM     17  C   UNL d   1      14.077  21.120  -5.645  0.00  0.00     0.181 C 
ENDBRANCH  13  16
ENDBRANCH   8  10
ENDBRANCH   6   7
ENDBRANCH   4   6
BRANCH   2  18
ATOM     18  C   UNL d   1      13.993  14.856  -3.724  0.00  0.00     0.067 A 
ATOM     19  C   UNL d   1      13.172  14.854  -3.769  0.00  0.00     0.018 A 
ATOM     20  C   UNL d   1      12.770  14.176  -3.988  0.00  0.00     0.002 A 
ATOM     21  C   UNL d   1      13.183  13.490  -4.166  0.00  0.00     0.000 A 
ATOM     22  C   UNL d   1      14.007  13.485  -4.122  0.00  0.00     0.002 A 
ATOM     23  C   UNL d   1      14.413  14.171  -3.901  0.00  0.00     0.018 A 
ENDBRANCH   2  18
BRANCH   1  24
ATOM     24  S   UNL d   1      14.606  15.231  -2.080  0.00  0.00    -0.043 SA
BRANCH  24  25
ATOM     25  C   UNL d   1      14.969  15.450  -1.372  0.00  0.00     0.096 C 
ATOM     26  C   UNL d   1      15.405  16.141  -1.331  0.00  0.00     0.013 C 
BRANCH  25  27
ATOM     27  C   UNL d   1      14.894  14.975  -0.698  0.00  0.00     0.306 C 
ATOM     28  O   UNL d   1      14.555  15.277  -0.014  0.00  0.00    -0.258 OA
BRANCH  27  29
ATOM     29  O   UNL d   1      15.162  14.203  -0.726  0.00  0.00    -0.271 OA
BRANCH  29  30
ATOM     30  C   UNL d   1      14.998  13.684  -0.095  0.00  0.00     0.126 C 
ATOM     31  C   UNL d   1      15.076  12.888  -0.182  0.00  0.00     0.029 C 
ENDBRANCH  29  30
ENDBRANCH  27  29
ENDBRANCH  25  27
ENDBRANCH  24  25
ENDBRANCH   1  24
TORSDOF 10
ENDMDL
