MODEL 1
REMARK VINA RESULT:     -10.5      0.000      0.000
REMARK  4 active torsions:
REMARK  status: ('A' for Active; 'I' for Inactive)
REMARK    1  A    between atoms: N_11  and  C_4 
REMARK    2  A    between atoms: C_13  and  C_17 
REMARK    3  A    between atoms: C_17  and  N_16 
REMARK    4  A    between atoms: O_29  and  C_18 
ROOT
ATOM      1  N   UNL d   1      52.033  33.319  52.960  0.00  0.00    -0.195 N 
ATOM      2  C   UNL d   1      52.723  33.161  53.353  0.00  0.00     0.168 A 
ATOM      3  C   UNL d   1      53.010  32.417  53.388  0.00  0.00     0.073 A 
ATOM      4  C   UNL d   1      51.761  34.068  52.935  0.00  0.00     0.153 A 
ATOM      5  N   UNL d   1      51.915  31.989  52.632  0.00  0.00    -0.143 NA
ATOM      6  C   UNL d   1      52.604  31.831  53.026  0.00  0.00     0.185 A 
ATOM      7  N   UNL d   1      53.123  33.755  53.713  0.00  0.00    -0.227 NA
ATOM      8  C   UNL d   1      53.693  32.260  53.778  0.00  0.00     0.007 A 
ATOM      9  N   UNL d   1      52.884  31.072  53.053  0.00  0.00    -0.225 NA
ATOM     10  C   UNL d   1      52.153  34.661  53.290  0.00  0.00     0.057 A 
ATOM     11  C   UNL d   1      53.981  31.515  53.812  0.00  0.00     0.019 A 
ATOM     12  C   UNL d   1      52.843  34.503  53.684  0.00  0.00     0.086 A 
ATOM     13  C   UNL d   1      53.573  30.913  53.446  0.00  0.00     0.083 A 
ATOM     14  C   UNL d   1      54.094  32.858  54.138  0.00  0.00     0.000 C 
ATOM     15  C   UNL d   1      53.256  35.124  54.056  0.00  0.00     0.021 C 
ATOM     16  C   UNL d   1      53.854  30.171  53.477  0.00  0.00     0.021 C 
ENDROOT
BRANCH   4  17
ATOM     17  N   UNL d   1      51.048  34.224  52.527  0.00  0.00    -0.286 N 
ATOM     18  C   UNL d   1      50.848  34.410  51.753  0.00  0.00     0.101 A 
ATOM     19  C   UNL d   1      50.048  34.530  51.548  0.00  0.00     0.100 A 
ATOM     20  N   UNL d   1      49.447  34.464  52.115  0.00  0.00    -0.300 N 
ATOM     21  C   UNL d   1      49.658  34.272  52.912  0.00  0.00     0.100 A 
ATOM     22  C   UNL d   1      50.462  34.153  53.109  0.00  0.00     0.101 A 
BRANCH  20  23
ATOM     23  C   UNL d   1      48.651  34.583  51.912  0.00  0.00     0.082 C 
BRANCH  23  24
ATOM     24  C   UNL d   1      48.248  35.253  52.175  0.00  0.00     0.042 A 
ATOM     25  C   UNL d   1      47.586  35.536  51.750  0.00  0.00     0.096 A 
ATOM     26  C   UNL d   1      47.191  36.209  52.025  0.00  0.00     0.027 A 
ATOM     27  C   UNL d   1      47.440  36.603  52.710  0.00  0.00     0.032 A 
ATOM     28  C   UNL d   1      48.103  36.321  53.135  0.00  0.00     0.140 A 
ATOM     29  C   UNL d   1      48.504  35.643  52.862  0.00  0.00     0.033 A 
ATOM     30  F   UNL d   1      48.362  36.708  53.823  0.00  0.00    -0.204 F 
BRANCH  25  31
ATOM     31  O   UNL d   1      47.335  35.151  51.074  0.00  0.00    -0.328 OA
ATOM     32  C   UNL d   1      46.572  35.291  50.768  0.00  0.00     0.181 C 
ENDBRANCH  25  31
ENDBRANCH  23  24
ENDBRANCH  20  23
ENDBRANCH   4  17
TORSDOF 4
ENDMDL
MODEL 2
REMARK VINA RESULT:      -9.2      0.918      1.960
REMARK  4 active torsions:
REMARK  status: ('A' for Active; 'I' for Inactive)
REMARK    1  A    between atoms: N_11  and  C_4 
REMARK    2  A    between atoms: C_13  and  C_17 
REMARK    3  A    between atoms: C_17  and  N_16 
REMARK    4  A    between atoms: O_29  and  C_18 
ROOT
ATOM      1  N   UNL d   1      52.431  33.466  53.401  0.00  0.00    -0.195 N 
ATOM      2  C   UNL d   1      53.009  33.004  53.730  0.00  0.00     0.168 A 
ATOM      3  C   UNL d   1      53.546  33.319  54.230  0.00  0.00     0.073 A 
ATOM      4  C   UNL d   1      51.903  33.135  52.904  0.00  0.00     0.153 A 
ATOM      5  N   UNL d   1      52.924  34.560  54.072  0.00  0.00    -0.143 NA
ATOM      6  C   UNL d   1      53.503  34.098  54.400  0.00  0.00     0.185 A 
ATOM      7  N   UNL d   1      53.045  32.223  53.553  0.00  0.00    -0.227 NA
ATOM      8  C   UNL d   1      54.119  32.861  54.555  0.00  0.00     0.007 A 
ATOM      9  N   UNL d   1      54.040  34.431  54.906  0.00  0.00    -0.225 NA
ATOM     10  C   UNL d   1      51.933  32.362  52.725  0.00  0.00     0.057 A 
ATOM     11  C   UNL d   1      54.657  33.176  55.056  0.00  0.00     0.019 A 
ATOM     12  C   UNL d   1      52.512  31.900  53.053  0.00  0.00     0.086 A 
ATOM     13  C   UNL d   1      54.619  33.969  55.234  0.00  0.00     0.083 A 
ATOM     14  C   UNL d   1      54.153  32.077  54.376  0.00  0.00     0.000 C 
ATOM     15  C   UNL d   1      52.546  31.088  52.867  0.00  0.00     0.021 C 
ATOM     16  C   UNL d   1      55.150  34.288  55.731  0.00  0.00     0.021 C 
ENDROOT
BRANCH   4  17
ATOM     17  N   UNL d   1      51.309  33.619  52.569  0.00  0.00    -0.286 N 
ATOM     18  C   UNL d   1      51.299  34.260  52.057  0.00  0.00     0.101 A 
ATOM     19  C   UNL d   1      50.572  34.608  51.841  0.00  0.00     0.100 A 
ATOM     20  N   UNL d   1      49.854  34.317  52.136  0.00  0.00    -0.300 N 
ATOM     21  C   UNL d   1      49.870  33.655  52.664  0.00  0.00     0.100 A 
ATOM     22  C   UNL d   1      50.602  33.312  52.875  0.00  0.00     0.101 A 
BRANCH  20  23
ATOM     23  C   UNL d   1      49.130  34.663  51.922  0.00  0.00     0.082 C 
BRANCH  23  24
ATOM     24  C   UNL d   1      48.758  35.199  52.426  0.00  0.00     0.042 A 
ATOM     25  C   UNL d   1      48.029  35.544  52.205  0.00  0.00     0.096 A 
ATOM     26  C   UNL d   1      47.667  36.080  52.719  0.00  0.00     0.027 A 
ATOM     27  C   UNL d   1      48.013  36.279  53.445  0.00  0.00     0.032 A 
ATOM     28  C   UNL d   1      48.742  35.935  53.667  0.00  0.00     0.140 A 
ATOM     29  C   UNL d   1      49.111  35.394  53.151  0.00  0.00     0.033 A 
ATOM     30  F   UNL d   1      49.098  36.128  54.393  0.00  0.00    -0.204 F 
BRANCH  25  31
ATOM     31  O   UNL d   1      47.683  35.351  51.490  0.00  0.00    -0.328 OA
ATOM     32  C   UNL d   1      46.900  35.586  51.324  0.00  0.00     0.181 C 
ENDBRANCH  25  31
ENDBRANCH  23  24
ENDBRANCH  20  23
ENDBRANCH   4  17
TORSDOF 4
ENDMDL
MODEL 3
REMARK VINA RESULT:      -9.0      1.852      6.024
REMARK  4 active torsions:
REMARK  status: ('A' for Active; 'I' for Inactive)
REMARK    1  A    between atoms: N_11  and  C_4 
REMARK    2  A    between atoms: C_13  and  C_17 
REMARK    3  A    between atoms: C_17  and  N_16 
REMARK    4  A    between atoms: O_29  and  C_18 
ROOT
ATOM      1  N   UNL d   1      48.115  35.331  52.328  0.00  0.00    -0.195 N 
ATOM      2  C   UNL d   1      47.454  35.755  52.526  0.00  0.00     0.168 A 
ATOM      3  C   UNL d   1      46.801  35.728  52.067  0.00  0.00     0.073 A 
ATOM      4  C   UNL d   1      48.758  35.369  52.798  0.00  0.00     0.153 A 
ATOM      5  N   UNL d   1      47.473  34.850  51.212  0.00  0.00    -0.143 NA
ATOM      6  C   UNL d   1      46.811  35.274  51.409  0.00  0.00     0.185 A 
ATOM      7  N   UNL d   1      47.453  36.207  53.187  0.00  0.00    -0.227 NA
ATOM      8  C   UNL d   1      46.146  36.148  52.263  0.00  0.00     0.007 A 
ATOM      9  N   UNL d   1      46.157  35.236  50.935  0.00  0.00    -0.225 NA
ATOM     10  C   UNL d   1      48.763  35.816  53.455  0.00  0.00     0.057 A 
ATOM     11  C   UNL d   1      45.492  36.120  51.803  0.00  0.00     0.019 A 
ATOM     12  C   UNL d   1      48.101  36.240  53.652  0.00  0.00     0.086 A 
ATOM     13  C   UNL d   1      45.496  35.661  51.132  0.00  0.00     0.083 A 
ATOM     14  C   UNL d   1      46.147  36.601  52.928  0.00  0.00     0.000 C 
ATOM     15  C   UNL d   1      48.104  36.709  54.341  0.00  0.00     0.021 C 
ATOM     16  C   UNL d   1      44.849  35.629  50.672  0.00  0.00     0.021 C 
ENDROOT
BRANCH   4  17
ATOM     17  N   UNL d   1      49.436  34.929  52.587  0.00  0.00    -0.286 N 
ATOM     18  C   UNL d   1      49.883  34.836  51.905  0.00  0.00     0.101 A 
ATOM     19  C   UNL d   1      50.546  34.330  51.908  0.00  0.00     0.100 A 
ATOM     20  N   UNL d   1      50.765  33.915  52.592  0.00  0.00    -0.300 N 
ATOM     21  C   UNL d   1      50.300  34.014  53.293  0.00  0.00     0.100 A 
ATOM     22  C   UNL d   1      49.638  34.523  53.282  0.00  0.00     0.101 A 
BRANCH  20  23
ATOM     23  C   UNL d   1      51.424  33.411  52.596  0.00  0.00     0.082 C 
BRANCH  23  24
ATOM     24  C   UNL d   1      52.118  33.633  52.984  0.00  0.00     0.042 A 
ATOM     25  C   UNL d   1      52.667  33.051  53.224  0.00  0.00     0.096 A 
ATOM     26  C   UNL d   1      53.359  33.287  53.611  0.00  0.00     0.027 A 
ATOM     27  C   UNL d   1      53.513  34.086  53.763  0.00  0.00     0.032 A 
ATOM     28  C   UNL d   1      52.964  34.670  53.523  0.00  0.00     0.140 A 
ATOM     29  C   UNL d   1      52.265  34.436  53.133  0.00  0.00     0.033 A 
ATOM     30  F   UNL d   1      53.109  35.475  53.671  0.00  0.00    -0.204 F 
BRANCH  25  31
ATOM     31  O   UNL d   1      52.520  32.260  53.076  0.00  0.00    -0.328 OA
ATOM     32  C   UNL d   1      53.087  31.682  53.274  0.00  0.00     0.181 C 
ENDBRANCH  25  31
ENDBRANCH  23  24
ENDBRANCH  20  23
ENDBRANCH   4  17
TORSDOF 4
ENDMDL
