MODEL 1
REMARK VINA RESULT:      -7.8      0.000      0.000
REMARK  6 active torsions:
REMARK  status: ('A' for Active; 'I' for Inactive)
REMARK    1  A    between atoms: C_5  and  N_1 
REMARK    2  A    between atoms: C_7  and  C_5 
REMARK    3  A    between atoms: O_14  and  C_10 
REMARK    4  A    between atoms: C_18  and  O_14 
REMARK    5  A    between atoms: C_19  and  C_18 
REMARK    6  A    between atoms: C_20  and  C_19 
ROOT
ATOM      1  C   UNL d   1      53.226  33.049  53.072  0.00  0.00     0.087 C 
ENDROOT
BRANCH   1   2
ATOM      2  N   UNL d   1      53.687  32.383  53.228  0.00  0.00    -0.251 N 
ATOM      3  C   UNL d   1      54.508  32.336  53.323  0.00  0.00     0.378 A 
ATOM      4  O   UNL d   1      54.701  31.545  53.471  0.00  0.00    -0.258 OA
ATOM      5  O   UNL d   1      55.041  32.962  53.279  0.00  0.00    -0.237 OA
ATOM      6  C   UNL d   1      54.000  31.106  53.467  0.00  0.00     0.121 A 
ATOM      7  C   UNL d   1      53.373  31.624  53.317  0.00  0.00     0.092 A 
ATOM      8  C   UNL d   1      53.841  30.301  53.580  0.00  0.00     0.026 A 
ATOM      9  C   UNL d   1      52.601  31.346  53.280  0.00  0.00     0.020 A 
ATOM     10  C   UNL d   1      52.448  30.548  53.392  0.00  0.00     0.002 A 
ATOM     11  C   UNL d   1      53.070  30.024  53.543  0.00  0.00     0.002 A 
ATOM     12  C   UNL d   1      51.674  30.268  53.355  0.00  0.00     0.000 C 
ENDBRANCH   1   2
BRANCH   1  13
ATOM     13  C   UNL d   1      53.131  33.635  53.647  0.00  0.00     0.041 A 
ATOM     14  C   UNL d   1      52.541  34.189  53.574  0.00  0.00     0.102 A 
ATOM     15  C   UNL d   1      52.449  34.769  54.144  0.00  0.00     0.025 A 
ATOM     16  C   UNL d   1      52.953  34.792  54.794  0.00  0.00     0.002 A 
ATOM     17  C   UNL d   1      53.551  34.229  54.868  0.00  0.00     0.000 A 
ATOM     18  C   UNL d   1      53.640  33.647  54.290  0.00  0.00     0.004 A 
BRANCH  14  19
ATOM     19  O   UNL d   1      52.032  34.171  52.922  0.00  0.00    -0.305 OA
BRANCH  19  20
ATOM     20  C   UNL d   1      51.264  34.467  52.986  0.00  0.00     0.123 C 
BRANCH  20  21
ATOM     21  C   UNL d   1      50.747  34.406  52.356  0.00  0.00     0.027 C 
BRANCH  21  22
ATOM     22  C   UNL d   1      49.935  34.494  52.475  0.00  0.00     0.002 C 
ATOM     23  C   UNL d   1      49.418  34.515  51.829  0.00  0.00     0.000 C 
ENDBRANCH  21  22
ENDBRANCH  20  21
ENDBRANCH  19  20
ENDBRANCH  14  19
ENDBRANCH   1  13
TORSDOF 6
ENDMDL
MODEL 2
REMARK VINA RESULT:      -7.8      1.121      3.548
REMARK  6 active torsions:
REMARK  status: ('A' for Active; 'I' for Inactive)
REMARK    1  A    between atoms: C_5  and  N_1 
REMARK    2  A    between atoms: C_7  and  C_5 
REMARK    3  A    between atoms: O_14  and  C_10 
REMARK    4  A    between atoms: C_18  and  O_14 
REMARK    5  A    between atoms: C_19  and  C_18 
REMARK    6  A    between atoms: C_20  and  C_19 
ROOT
ATOM      1  C   UNL d   1      53.402  33.572  53.397  0.00  0.00     0.087 C 
ENDROOT
BRANCH   1   2
ATOM      2  N   UNL d   1      52.831  34.168  53.357  0.00  0.00    -0.251 N 
ATOM      3  C   UNL d   1      52.938  34.987  53.405  0.00  0.00     0.378 A 
ATOM      4  O   UNL d   1      52.194  35.343  53.334  0.00  0.00    -0.258 OA
ATOM      5  O   UNL d   1      53.653  35.381  53.505  0.00  0.00    -0.237 OA
ATOM      6  C   UNL d   1      51.631  34.743  53.243  0.00  0.00     0.121 A 
ATOM      7  C   UNL d   1      52.025  34.017  53.257  0.00  0.00     0.092 A 
ATOM      8  C   UNL d   1      50.808  34.755  53.148  0.00  0.00     0.026 A 
ATOM      9  C   UNL d   1      51.608  33.313  53.178  0.00  0.00     0.020 A 
ATOM     10  C   UNL d   1      50.794  33.329  53.084  0.00  0.00     0.002 A 
ATOM     11  C   UNL d   1      50.392  34.052  53.069  0.00  0.00     0.002 A 
ATOM     12  C   UNL d   1      50.374  32.625  53.005  0.00  0.00     0.000 C 
ENDBRANCH   1   2
BRANCH   1  13
ATOM     13  C   UNL d   1      53.752  33.378  54.120  0.00  0.00     0.041 A 
ATOM     14  C   UNL d   1      53.978  32.613  54.273  0.00  0.00     0.102 A 
ATOM     15  C   UNL d   1      54.324  32.422  54.989  0.00  0.00     0.025 A 
ATOM     16  C   UNL d   1      54.444  33.005  55.558  0.00  0.00     0.002 A 
ATOM     17  C   UNL d   1      54.214  33.781  55.402  0.00  0.00     0.000 A 
ATOM     18  C   UNL d   1      53.866  33.968  54.678  0.00  0.00     0.004 A 
BRANCH  14  19
ATOM     19  O   UNL d   1      53.860  32.023  53.705  0.00  0.00    -0.305 OA
BRANCH  19  20
ATOM     20  C   UNL d   1      53.844  31.229  53.929  0.00  0.00     0.123 C 
BRANCH  20  21
ATOM     21  C   UNL d   1      53.644  30.653  53.383  0.00  0.00     0.027 C 
BRANCH  21  22
ATOM     22  C   UNL d   1      53.397  29.908  53.638  0.00  0.00     0.002 C 
ATOM     23  C   UNL d   1      52.732  29.550  53.298  0.00  0.00     0.000 C 
ENDBRANCH  21  22
ENDBRANCH  20  21
ENDBRANCH  19  20
ENDBRANCH  14  19
ENDBRANCH   1  13
TORSDOF 6
ENDMDL
MODEL 3
REMARK VINA RESULT:      -7.1      1.777      2.814
REMARK  6 active torsions:
REMARK  status: ('A' for Active; 'I' for Inactive)
REMARK    1  A    between atoms: C_5  and  N_1 
REMARK    2  A    between atoms: C_7  and  C_5 
REMARK    3  A    between atoms: O_14  and  C_10 
REMARK    4  A    between atoms: C_18  and  O_14 
REMARK    5  A    between atoms: C_19  and  C_18 
REMARK    6  A    between atoms: C_20  and  C_19 
ROOT
ATOM      1  C   UNL d   1      51.919  34.286  53.930  0.00  0.00     0.087 C 
ENDROOT
BRANCH   1   2
ATOM      2  N   UNL d   1      52.661  34.461  54.248  0.00  0.00    -0.251 N 
ATOM      3  C   UNL d   1      53.001  35.203  54.383  0.00  0.00     0.378 A 
ATOM      4  O   UNL d   1      53.751  35.082  54.710  0.00  0.00    -0.258 OA
ATOM      5  O   UNL d   1      52.658  35.934  54.221  0.00  0.00    -0.237 OA
ATOM      6  C   UNL d   1      53.872  34.266  54.777  0.00  0.00     0.121 A 
ATOM      7  C   UNL d   1      53.198  33.882  54.491  0.00  0.00     0.092 A 
ATOM      8  C   UNL d   1      54.506  33.813  55.059  0.00  0.00     0.026 A 
ATOM      9  C   UNL d   1      53.154  33.062  54.486  0.00  0.00     0.020 A 
ATOM     10  C   UNL d   1      53.784  32.617  54.767  0.00  0.00     0.002 A 
ATOM     11  C   UNL d   1      54.462  32.994  55.055  0.00  0.00     0.002 A 
ATOM     12  C   UNL d   1      53.742  31.795  54.763  0.00  0.00     0.000 C 
ENDBRANCH   1   2
BRANCH   1  13
ATOM     13  C   UNL d   1      51.801  34.306  53.111  0.00  0.00     0.041 A 
ATOM     14  C   UNL d   1      51.059  34.435  52.808  0.00  0.00     0.102 A 
ATOM     15  C   UNL d   1      50.944  34.454  51.998  0.00  0.00     0.025 A 
ATOM     16  C   UNL d   1      51.581  34.343  51.488  0.00  0.00     0.002 A 
ATOM     17  C   UNL d   1      52.334  34.212  51.797  0.00  0.00     0.000 A 
ATOM     18  C   UNL d   1      52.444  34.193  52.614  0.00  0.00     0.004 A 
BRANCH  14  19
ATOM     19  O   UNL d   1      50.416  34.547  53.316  0.00  0.00    -0.305 OA
BRANCH  19  20
ATOM     20  C   UNL d   1      49.700  34.834  53.022  0.00  0.00     0.123 C 
BRANCH  20  21
ATOM     21  C   UNL d   1      49.182  35.229  53.517  0.00  0.00     0.027 C 
BRANCH  21  22
ATOM     22  C   UNL d   1      48.497  35.572  53.211  0.00  0.00     0.002 C 
ATOM     23  C   UNL d   1      48.082  36.138  53.650  0.00  0.00     0.000 C 
ENDBRANCH  21  22
ENDBRANCH  20  21
ENDBRANCH  19  20
ENDBRANCH  14  19
ENDBRANCH   1  13
TORSDOF 6
ENDMDL
MODEL 4
REMARK VINA RESULT:      -6.9      1.318      3.693
REMARK  6 active torsions:
REMARK  status: ('A' for Active; 'I' for Inactive)
REMARK    1  A    between atoms: C_5  and  N_1 
REMARK    2  A    between atoms: C_7  and  C_5 
REMARK    3  A    between atoms: O_14  and  C_10 
REMARK    4  A    between atoms: C_18  and  O_14 
REMARK    5  A    between atoms: C_19  and  C_18 
REMARK    6  A    between atoms: C_20  and  C_19 
ROOT
ATOM      1  C   UNL d   1      52.903  33.404  53.031  0.00  0.00     0.087 C 
ENDROOT
BRANCH   1   2
ATOM      2  N   UNL d   1      53.145  34.062  53.467  0.00  0.00    -0.251 N 
ATOM      3  C   UNL d   1      53.019  34.863  53.303  0.00  0.00     0.378 A 
ATOM      4  O   UNL d   1      53.371  35.303  53.909  0.00  0.00    -0.258 OA
ATOM      5  O   UNL d   1      52.615  35.171  52.656  0.00  0.00    -0.237 OA
ATOM      6  C   UNL d   1      53.714  34.774  54.444  0.00  0.00     0.121 A 
ATOM      7  C   UNL d   1      53.574  34.006  54.171  0.00  0.00     0.092 A 
ATOM      8  C   UNL d   1      54.138  34.881  55.148  0.00  0.00     0.026 A 
ATOM      9  C   UNL d   1      53.851  33.356  54.590  0.00  0.00     0.020 A 
ATOM     10  C   UNL d   1      54.270  33.467  55.287  0.00  0.00     0.002 A 
ATOM     11  C   UNL d   1      54.414  34.232  55.566  0.00  0.00     0.002 A 
ATOM     12  C   UNL d   1      54.548  32.816  55.708  0.00  0.00     0.000 C 
ENDBRANCH   1   2
BRANCH   1  13
ATOM     13  C   UNL d   1      52.114  33.156  53.053  0.00  0.00     0.041 A 
ATOM     14  C   UNL d   1      51.928  32.374  52.940  0.00  0.00     0.102 A 
ATOM     15  C   UNL d   1      51.147  32.130  52.963  0.00  0.00     0.025 A 
ATOM     16  C   UNL d   1      50.548  32.677  53.100  0.00  0.00     0.002 A 
ATOM     17  C   UNL d   1      50.738  33.471  53.214  0.00  0.00     0.000 A 
ATOM     18  C   UNL d   1      51.527  33.711  53.191  0.00  0.00     0.004 A 
BRANCH  14  19
ATOM     19  O   UNL d   1      52.527  31.819  52.802  0.00  0.00    -0.305 OA
BRANCH  19  20
ATOM     20  C   UNL d   1      52.397  31.020  52.961  0.00  0.00     0.123 C 
BRANCH  20  21
ATOM     21  C   UNL d   1      53.025  30.496  52.967  0.00  0.00     0.027 C 
BRANCH  21  22
ATOM     22  C   UNL d   1      52.933  29.742  53.290  0.00  0.00     0.002 C 
ATOM     23  C   UNL d   1      53.405  29.499  53.925  0.00  0.00     0.000 C 
ENDBRANCH  21  22
ENDBRANCH  20  21
ENDBRANCH  19  20
ENDBRANCH  14  19
ENDBRANCH   1  13
TORSDOF 6
ENDMDL
MODEL 5
REMARK VINA RESULT:      -6.9      1.298      1.923
REMARK  6 active torsions:
REMARK  status: ('A' for Active; 'I' for Inactive)
REMARK    1  A    between atoms: C_5  and  N_1 
REMARK    2  A    between atoms: C_7  and  C_5 
REMARK    3  A    between atoms: O_14  and  C_10 
REMARK    4  A    between atoms: C_18  and  O_14 
REMARK    5  A    between atoms: C_19  and  C_18 
REMARK    6  A    between atoms: C_20  and  C_19 
ROOT
ATOM      1  C   UNL d   1      52.711  31.504  53.803  0.00  0.00     0.087 C 
ENDROOT
BRANCH   1   2
ATOM      2  N   UNL d   1      52.930  30.766  53.505  0.00  0.00    -0.251 N 
ATOM      3  C   UNL d   1      53.030  30.538  52.716  0.00  0.00     0.378 A 
ATOM      4  O   UNL d   1      53.252  29.741  52.709  0.00  0.00    -0.258 OA
ATOM      5  O   UNL d   1      52.928  31.016  52.054  0.00  0.00    -0.237 OA
ATOM      6  C   UNL d   1      53.289  29.478  53.492  0.00  0.00     0.121 A 
ATOM      7  C   UNL d   1      53.089  30.112  53.985  0.00  0.00     0.092 A 
ATOM      8  C   UNL d   1      53.476  28.746  53.831  0.00  0.00     0.026 A 
ATOM      9  C   UNL d   1      53.077  30.019  54.801  0.00  0.00     0.020 A 
ATOM     10  C   UNL d   1      53.264  29.292  55.133  0.00  0.00     0.002 A 
ATOM     11  C   UNL d   1      53.464  28.654  54.646  0.00  0.00     0.002 A 
ATOM     12  C   UNL d   1      53.252  29.198  55.951  0.00  0.00     0.000 C 
ENDBRANCH   1   2
BRANCH   1  13
ATOM     13  C   UNL d   1      53.227  32.147  53.746  0.00  0.00     0.041 A 
ATOM     14  C   UNL d   1      52.936  32.901  53.675  0.00  0.00     0.102 A 
ATOM     15  C   UNL d   1      53.448  33.536  53.619  0.00  0.00     0.025 A 
ATOM     16  C   UNL d   1      54.262  33.413  53.635  0.00  0.00     0.002 A 
ATOM     17  C   UNL d   1      54.557  32.646  53.707  0.00  0.00     0.000 A 
ATOM     18  C   UNL d   1      54.036  32.010  53.763  0.00  0.00     0.004 A 
BRANCH  14  19
ATOM     19  O   UNL d   1      52.119  33.031  53.659  0.00  0.00    -0.305 OA
BRANCH  19  20
ATOM     20  C   UNL d   1      51.816  33.736  53.353  0.00  0.00     0.123 C 
BRANCH  20  21
ATOM     21  C   UNL d   1      51.011  33.820  53.236  0.00  0.00     0.027 C 
BRANCH  21  22
ATOM     22  C   UNL d   1      50.714  34.496  52.867  0.00  0.00     0.002 C 
ATOM     23  C   UNL d   1      49.965  34.484  52.516  0.00  0.00     0.000 C 
ENDBRANCH  21  22
ENDBRANCH  20  21
ENDBRANCH  19  20
ENDBRANCH  14  19
ENDBRANCH   1  13
TORSDOF 6
ENDMDL
MODEL 6
REMARK VINA RESULT:      -6.5      0.859      2.776
REMARK  6 active torsions:
REMARK  status: ('A' for Active; 'I' for Inactive)
REMARK    1  A    between atoms: C_5  and  N_1 
REMARK    2  A    between atoms: C_7  and  C_5 
REMARK    3  A    between atoms: O_14  and  C_10 
REMARK    4  A    between atoms: C_18  and  O_14 
REMARK    5  A    between atoms: C_19  and  C_18 
REMARK    6  A    between atoms: C_20  and  C_19 
ROOT
ATOM      1  C   UNL d   1      53.545  33.055  53.055  0.00  0.00     0.087 C 
ENDROOT
BRANCH   1   2
ATOM      2  N   UNL d   1      54.196  33.114  53.559  0.00  0.00    -0.251 N 
ATOM      3  C   UNL d   1      54.934  32.744  53.492  0.00  0.00     0.378 A 
ATOM      4  O   UNL d   1      55.395  32.982  54.136  0.00  0.00    -0.258 OA
ATOM      5  O   UNL d   1      55.170  32.231  52.894  0.00  0.00    -0.237 OA
ATOM      6  C   UNL d   1      54.942  33.498  54.599  0.00  0.00     0.121 A 
ATOM      7  C   UNL d   1      54.201  33.579  54.241  0.00  0.00     0.092 A 
ATOM      8  C   UNL d   1      55.100  33.908  55.300  0.00  0.00     0.026 A 
ATOM      9  C   UNL d   1      53.626  34.061  54.576  0.00  0.00     0.020 A 
ATOM     10  C   UNL d   1      53.786  34.466  55.272  0.00  0.00     0.002 A 
ATOM     11  C   UNL d   1      54.525  34.389  55.635  0.00  0.00     0.002 A 
ATOM     12  C   UNL d   1      53.211  34.949  55.609  0.00  0.00     0.000 C 
ENDBRANCH   1   2
BRANCH   1  13
ATOM     13  C   UNL d   1      53.063  32.383  53.072  0.00  0.00     0.041 A 
ATOM     14  C   UNL d   1      52.278  32.438  52.872  0.00  0.00     0.102 A 
ATOM     15  C   UNL d   1      51.802  31.772  52.889  0.00  0.00     0.025 A 
ATOM     16  C   UNL d   1      52.118  31.045  53.110  0.00  0.00     0.002 A 
ATOM     17  C   UNL d   1      52.916  30.991  53.313  0.00  0.00     0.000 A 
ATOM     18  C   UNL d   1      53.391  31.665  53.294  0.00  0.00     0.004 A 
BRANCH  14  19
ATOM     19  O   UNL d   1      51.955  33.166  52.649  0.00  0.00    -0.305 OA
BRANCH  19  20
ATOM     20  C   UNL d   1      51.140  33.290  52.695  0.00  0.00     0.123 C 
BRANCH  20  21
ATOM     21  C   UNL d   1      50.815  33.989  52.421  0.00  0.00     0.027 C 
BRANCH  21  22
ATOM     22  C   UNL d   1      50.184  34.338  52.820  0.00  0.00     0.002 C 
ATOM     23  C   UNL d   1      49.568  34.695  52.398  0.00  0.00     0.000 C 
ENDBRANCH  21  22
ENDBRANCH  20  21
ENDBRANCH  19  20
ENDBRANCH  14  19
ENDBRANCH   1  13
TORSDOF 6
ENDMDL
MODEL 7
REMARK VINA RESULT:      -6.2      1.954      3.764
REMARK  6 active torsions:
REMARK  status: ('A' for Active; 'I' for Inactive)
REMARK    1  A    between atoms: C_5  and  N_1 
REMARK    2  A    between atoms: C_7  and  C_5 
REMARK    3  A    between atoms: O_14  and  C_10 
REMARK    4  A    between atoms: C_18  and  O_14 
REMARK    5  A    between atoms: C_19  and  C_18 
REMARK    6  A    between atoms: C_20  and  C_19 
ROOT
ATOM      1  C   UNL d   1      50.548  34.261  53.359  0.00  0.00     0.087 C 
ENDROOT
BRANCH   1   2
ATOM      2  N   UNL d   1      51.207  33.769  53.429  0.00  0.00    -0.251 N 
ATOM      3  C   UNL d   1      51.249  32.948  53.341  0.00  0.00     0.378 A 
ATOM      4  O   UNL d   1      52.034  32.719  53.467  0.00  0.00    -0.258 OA
ATOM      5  O   UNL d   1      50.623  32.444  53.160  0.00  0.00    -0.237 OA
ATOM      6  C   UNL d   1      52.475  33.399  53.632  0.00  0.00     0.121 A 
ATOM      7  C   UNL d   1      51.964  34.049  53.609  0.00  0.00     0.092 A 
ATOM      8  C   UNL d   1      53.276  33.521  53.802  0.00  0.00     0.026 A 
ATOM      9  C   UNL d   1      52.245  34.807  53.752  0.00  0.00     0.020 A 
ATOM     10  C   UNL d   1      53.039  34.924  53.921  0.00  0.00     0.002 A 
ATOM     11  C   UNL d   1      53.557  34.279  53.945  0.00  0.00     0.002 A 
ATOM     12  C   UNL d   1      53.322  35.684  54.065  0.00  0.00     0.000 C 
ENDBRANCH   1   2
BRANCH   1  13
ATOM     13  C   UNL d   1      50.189  34.375  52.622  0.00  0.00     0.041 A 
ATOM     14  C   UNL d   1      49.498  34.798  52.565  0.00  0.00     0.102 A 
ATOM     15  C   UNL d   1      49.144  34.909  51.836  0.00  0.00     0.025 A 
ATOM     16  C   UNL d   1      49.488  34.593  51.158  0.00  0.00     0.002 A 
ATOM     17  C   UNL d   1      50.189  34.164  51.217  0.00  0.00     0.000 A 
ATOM     18  C   UNL d   1      50.541  34.054  51.955  0.00  0.00     0.004 A 
BRANCH  14  19
ATOM     19  O   UNL d   1      49.148  35.118  53.243  0.00  0.00    -0.305 OA
BRANCH  19  20
ATOM     20  C   UNL d   1      48.509  35.635  53.176  0.00  0.00     0.123 C 
BRANCH  20  21
ATOM     21  C   UNL d   1      48.203  35.999  53.842  0.00  0.00     0.027 C 
BRANCH  21  22
ATOM     22  C   UNL d   1      47.513  36.448  53.790  0.00  0.00     0.002 C 
ATOM     23  C   UNL d   1      47.133  36.709  54.476  0.00  0.00     0.000 C 
ENDBRANCH  21  22
ENDBRANCH  20  21
ENDBRANCH  19  20
ENDBRANCH  14  19
ENDBRANCH   1  13
TORSDOF 6
ENDMDL
MODEL 8
REMARK VINA RESULT:      -5.5      1.487      3.121
REMARK  6 active torsions:
REMARK  status: ('A' for Active; 'I' for Inactive)
REMARK    1  A    between atoms: C_5  and  N_1 
REMARK    2  A    between atoms: C_7  and  C_5 
REMARK    3  A    between atoms: O_14  and  C_10 
REMARK    4  A    between atoms: C_18  and  O_14 
REMARK    5  A    between atoms: C_19  and  C_18 
REMARK    6  A    between atoms: C_20  and  C_19 
ROOT
ATOM      1  C   UNL d   1      53.541  31.394  53.377  0.00  0.00     0.087 C 
ENDROOT
BRANCH   1   2
ATOM      2  N   UNL d   1      53.286  30.618  53.262  0.00  0.00    -0.251 N 
ATOM      3  C   UNL d   1      53.027  30.259  52.562  0.00  0.00     0.378 A 
ATOM      4  O   UNL d   1      52.833  29.474  52.737  0.00  0.00    -0.258 OA
ATOM      5  O   UNL d   1      52.972  30.616  51.822  0.00  0.00    -0.237 OA
ATOM      6  C   UNL d   1      52.971  29.350  53.543  0.00  0.00     0.121 A 
ATOM      7  C   UNL d   1      53.251  30.057  53.868  0.00  0.00     0.092 A 
ATOM      8  C   UNL d   1      52.881  28.688  54.033  0.00  0.00     0.026 A 
ATOM      9  C   UNL d   1      53.439  30.105  54.666  0.00  0.00     0.020 A 
ATOM     10  C   UNL d   1      53.348  29.447  55.147  0.00  0.00     0.002 A 
ATOM     11  C   UNL d   1      53.069  28.736  54.830  0.00  0.00     0.002 A 
ATOM     12  C   UNL d   1      53.536  29.494  55.948  0.00  0.00     0.000 C 
ENDBRANCH   1   2
BRANCH   1  13
ATOM     13  C   UNL d   1      53.004  32.021  53.332  0.00  0.00     0.041 A 
ATOM     14  C   UNL d   1      53.246  32.780  53.489  0.00  0.00     0.102 A 
ATOM     15  C   UNL d   1      52.713  33.399  53.444  0.00  0.00     0.025 A 
ATOM     16  C   UNL d   1      51.929  33.255  53.240  0.00  0.00     0.002 A 
ATOM     17  C   UNL d   1      51.684  32.484  53.080  0.00  0.00     0.000 A 
ATOM     18  C   UNL d   1      52.225  31.863  53.127  0.00  0.00     0.004 A 
BRANCH  14  19
ATOM     19  O   UNL d   1      54.033  32.931  53.695  0.00  0.00    -0.305 OA
BRANCH  19  20
ATOM     20  C   UNL d   1      54.211  33.504  54.262  0.00  0.00     0.123 C 
BRANCH  20  21
ATOM     21  C   UNL d   1      54.963  33.546  54.581  0.00  0.00     0.027 C 
BRANCH  21  22
ATOM     22  C   UNL d   1      55.119  34.054  55.211  0.00  0.00     0.002 C 
ATOM     23  C   UNL d   1      55.206  33.755  55.978  0.00  0.00     0.000 C 
ENDBRANCH  21  22
ENDBRANCH  20  21
ENDBRANCH  19  20
ENDBRANCH  14  19
ENDBRANCH   1  13
TORSDOF 6
ENDMDL
