MODEL 1
REMARK VINA RESULT:      -7.9      0.000      0.000
REMARK  7 active torsions:
REMARK  status: ('A' for Active; 'I' for Inactive)
REMARK    1  A    between atoms: N_9  and  C_2 
REMARK    2  A    between atoms: C_8  and  C_14 
REMARK    3  A    between atoms: C_15  and  N_9 
REMARK    4  A    between atoms: C_14  and  C_16 
REMARK    5  A    between atoms: C_17  and  C_15 
REMARK    6  A    between atoms: C_16  and  C_18 
REMARK    7  A    between atoms: C_18  and  C_17 
ROOT
ATOM      1  N   UNL d   1      52.561  32.400  53.091  0.00  0.00    -0.198 NA
ATOM      2  C   UNL d   1      52.671  33.145  53.434  0.00  0.00     0.166 A 
ATOM      3  C   UNL d   1      53.047  31.770  53.309  0.00  0.00     0.222 A 
ATOM      4  C   UNL d   1      53.268  33.258  53.993  0.00  0.00     0.054 A 
ATOM      5  N   UNL d   1      53.644  31.886  53.869  0.00  0.00    -0.217 NA
ATOM      6  C   UNL d   1      53.754  32.628  54.210  0.00  0.00     0.087 A 
ATOM      7  S   UNL d   1      52.943  31.024  52.972  0.00  0.00    -0.037 SA
ATOM      8  C   UNL d   1      53.374  33.998  54.330  0.00  0.00     0.005 A 
ATOM      9  C   UNL d   1      54.347  32.739  54.766  0.00  0.00     0.019 A 
ATOM     10  C   UNL d   1      53.973  34.114  54.892  0.00  0.00     0.000 A 
ATOM     11  C   UNL d   1      54.460  33.484  55.110  0.00  0.00     0.002 A 
ENDROOT
BRANCH   2  12
ATOM     12  N   UNL d   1      52.186  33.773  53.217  0.00  0.00    -0.225 NA
BRANCH  12  13
ATOM     13  C   UNL d   1      51.451  33.619  52.879  0.00  0.00     0.101 C 
BRANCH  13  14
ATOM     14  C   UNL d   1      51.022  34.238  52.541  0.00  0.00     0.021 C 
BRANCH  14  15
ATOM     15  C   UNL d   1      50.196  34.238  52.585  0.00  0.00     0.002 C 
BRANCH  15  16
ATOM     16  C   UNL d   1      49.753  34.525  51.955  0.00  0.00     0.006 C 
BRANCH  16  17
ATOM     17  C   UNL d   1      48.946  34.671  52.054  0.00  0.00     0.070 C 
BRANCH  17  18
ATOM     18  C   UNL d   1      48.480  34.852  51.399  0.00  0.00     0.211 C 
ATOM     19  O   UNL d   1      48.525  34.392  50.716  0.00  0.00    -0.644 OA
ATOM     20  O   UNL d   1      47.962  35.502  51.428  0.00  0.00    -0.644 OA
ENDBRANCH  17  18
ENDBRANCH  16  17
ENDBRANCH  15  16
ENDBRANCH  14  15
ENDBRANCH  13  14
ENDBRANCH  12  13
ENDBRANCH   2  12
TORSDOF 7
ENDMDL
MODEL 2
REMARK VINA RESULT:      -7.7      3.211      4.580
REMARK  7 active torsions:
REMARK  status: ('A' for Active; 'I' for Inactive)
REMARK    1  A    between atoms: N_9  and  C_2 
REMARK    2  A    between atoms: C_8  and  C_14 
REMARK    3  A    between atoms: C_15  and  N_9 
REMARK    4  A    between atoms: C_14  and  C_16 
REMARK    5  A    between atoms: C_17  and  C_15 
REMARK    6  A    between atoms: C_16  and  C_18 
REMARK    7  A    between atoms: C_18  and  C_17 
ROOT
ATOM      1  N   UNL d   1      52.161  33.311  52.705  0.00  0.00    -0.198 NA
ATOM      2  C   UNL d   1      52.786  33.267  53.245  0.00  0.00     0.166 A 
ATOM      3  C   UNL d   1      51.708  33.999  52.655  0.00  0.00     0.222 A 
ATOM      4  C   UNL d   1      52.956  33.909  53.733  0.00  0.00     0.054 A 
ATOM      5  N   UNL d   1      51.880  34.642  53.145  0.00  0.00    -0.217 NA
ATOM      6  C   UNL d   1      52.503  34.597  53.683  0.00  0.00     0.087 A 
ATOM      7  S   UNL d   1      51.083  34.051  52.119  0.00  0.00    -0.037 SA
ATOM      8  C   UNL d   1      53.577  33.861  54.268  0.00  0.00     0.005 A 
ATOM      9  C   UNL d   1      52.671  35.237  54.168  0.00  0.00     0.019 A 
ATOM     10  C   UNL d   1      53.750  34.506  54.760  0.00  0.00     0.000 A 
ATOM     11  C   UNL d   1      53.297  35.194  54.710  0.00  0.00     0.002 A 
ENDROOT
BRANCH   2  12
ATOM     12  N   UNL d   1      53.237  32.580  53.295  0.00  0.00    -0.225 NA
BRANCH  12  13
ATOM     13  C   UNL d   1      52.910  31.862  53.060  0.00  0.00     0.101 C 
BRANCH  13  14
ATOM     14  C   UNL d   1      53.364  31.175  53.106  0.00  0.00     0.021 C 
BRANCH  14  15
ATOM     15  C   UNL d   1      52.996  30.446  53.242  0.00  0.00     0.002 C 
BRANCH  15  16
ATOM     16  C   UNL d   1      53.366  29.882  53.710  0.00  0.00     0.006 C 
BRANCH  16  17
ATOM     17  C   UNL d   1      52.927  29.255  54.020  0.00  0.00     0.070 C 
BRANCH  17  18
ATOM     18  C   UNL d   1      53.236  28.807  54.640  0.00  0.00     0.211 C 
ATOM     19  O   UNL d   1      53.700  28.145  54.483  0.00  0.00    -0.644 OA
ATOM     20  O   UNL d   1      53.076  29.025  55.426  0.00  0.00    -0.644 OA
ENDBRANCH  17  18
ENDBRANCH  16  17
ENDBRANCH  15  16
ENDBRANCH  14  15
ENDBRANCH  13  14
ENDBRANCH  12  13
ENDBRANCH   2  12
TORSDOF 7
ENDMDL
MODEL 3
REMARK VINA RESULT:      -5.3     10.054     10.780
REMARK  7 active torsions:
REMARK  status: ('A' for Active; 'I' for Inactive)
REMARK    1  A    between atoms: N_9  and  C_2 
REMARK    2  A    between atoms: C_8  and  C_14 
REMARK    3  A    between atoms: C_15  and  N_9 
REMARK    4  A    between atoms: C_14  and  C_16 
REMARK    5  A    between atoms: C_17  and  C_15 
REMARK    6  A    between atoms: C_16  and  C_18 
REMARK    7  A    between atoms: C_18  and  C_17 
ROOT
ATOM      1  N   UNL d   1      45.100  28.536  58.644  0.00  0.00    -0.198 NA
ATOM      2  C   UNL d   1      44.966  29.302  58.360  0.00  0.00     0.166 A 
ATOM      3  C   UNL d   1      45.146  27.904  58.116  0.00  0.00     0.222 A 
ATOM      4  C   UNL d   1      44.879  29.432  57.550  0.00  0.00     0.054 A 
ATOM      5  N   UNL d   1      45.059  28.037  57.305  0.00  0.00    -0.217 NA
ATOM      6  C   UNL d   1      44.925  28.800  57.022  0.00  0.00     0.087 A 
ATOM      7  S   UNL d   1      45.280  27.137  58.391  0.00  0.00    -0.037 SA
ATOM      8  C   UNL d   1      44.746  30.193  57.273  0.00  0.00     0.005 A 
ATOM      9  C   UNL d   1      44.838  28.928  56.217  0.00  0.00     0.019 A 
ATOM     10  C   UNL d   1      44.658  30.327  56.459  0.00  0.00     0.000 A 
ATOM     11  C   UNL d   1      44.704  29.694  55.931  0.00  0.00     0.002 A 
ENDROOT
BRANCH   2  12
ATOM     12  N   UNL d   1      44.920  29.933  58.886  0.00  0.00    -0.225 NA
BRANCH  12  13
ATOM     13  C   UNL d   1      44.852  29.783  59.693  0.00  0.00     0.101 C 
BRANCH  13  14
ATOM     14  C   UNL d   1      44.671  30.402  60.207  0.00  0.00     0.021 C 
BRANCH  14  15
ATOM     15  C   UNL d   1      44.760  30.300  61.024  0.00  0.00     0.002 C 
BRANCH  15  16
ATOM     16  C   UNL d   1      44.616  30.928  61.532  0.00  0.00     0.006 C 
BRANCH  16  17
ATOM     17  C   UNL d   1      44.751  30.839  62.342  0.00  0.00     0.070 C 
BRANCH  17  18
ATOM     18  C   UNL d   1      44.553  31.449  62.860  0.00  0.00     0.211 C 
ATOM     19  O   UNL d   1      44.584  32.234  62.608  0.00  0.00    -0.644 OA
ATOM     20  O   UNL d   1      44.321  31.272  63.638  0.00  0.00    -0.644 OA
ENDBRANCH  17  18
ENDBRANCH  16  17
ENDBRANCH  15  16
ENDBRANCH  14  15
ENDBRANCH  13  14
ENDBRANCH  12  13
ENDBRANCH   2  12
TORSDOF 7
ENDMDL
MODEL 4
REMARK VINA RESULT:      -5.0     10.005     10.583
REMARK  7 active torsions:
REMARK  status: ('A' for Active; 'I' for Inactive)
REMARK    1  A    between atoms: N_9  and  C_2 
REMARK    2  A    between atoms: C_8  and  C_14 
REMARK    3  A    between atoms: C_15  and  N_9 
REMARK    4  A    between atoms: C_14  and  C_16 
REMARK    5  A    between atoms: C_17  and  C_15 
REMARK    6  A    between atoms: C_16  and  C_18 
REMARK    7  A    between atoms: C_18  and  C_17 
ROOT
ATOM      1  N   UNL d   1      44.937  30.261  58.046  0.00  0.00    -0.198 NA
ATOM      2  C   UNL d   1      44.965  29.764  58.707  0.00  0.00     0.166 A 
ATOM      3  C   UNL d   1      44.757  31.060  58.140  0.00  0.00     0.222 A 
ATOM      4  C   UNL d   1      44.813  30.068  59.459  0.00  0.00     0.054 A 
ATOM      5  N   UNL d   1      44.604  31.363  58.894  0.00  0.00    -0.217 NA
ATOM      6  C   UNL d   1      44.632  30.867  59.552  0.00  0.00     0.087 A 
ATOM      7  S   UNL d   1      44.727  31.562  57.485  0.00  0.00    -0.037 SA
ATOM      8  C   UNL d   1      44.841  29.572  60.112  0.00  0.00     0.005 A 
ATOM      9  C   UNL d   1      44.481  31.171  60.299  0.00  0.00     0.019 A 
ATOM     10  C   UNL d   1      44.689  29.875  60.868  0.00  0.00     0.000 A 
ATOM     11  C   UNL d   1      44.508  30.675  60.962  0.00  0.00     0.002 A 
ENDROOT
BRANCH   2  12
ATOM     12  N   UNL d   1      45.145  28.966  58.614  0.00  0.00    -0.225 NA
BRANCH  12  13
ATOM     13  C   UNL d   1      45.138  28.635  57.860  0.00  0.00     0.101 C 
BRANCH  13  14
ATOM     14  C   UNL d   1      45.285  27.828  57.771  0.00  0.00     0.021 C 
BRANCH  14  15
ATOM     15  C   UNL d   1      45.112  27.455  57.052  0.00  0.00     0.002 C 
BRANCH  15  16
ATOM     16  C   UNL d   1      45.106  26.635  57.007  0.00  0.00     0.006 C 
BRANCH  16  17
ATOM     17  C   UNL d   1      44.792  26.263  56.341  0.00  0.00     0.070 C 
BRANCH  17  18
ATOM     18  C   UNL d   1      44.819  25.441  56.280  0.00  0.00     0.211 C 
ATOM     19  O   UNL d   1      44.443  24.970  56.842  0.00  0.00    -0.644 OA
ATOM     20  O   UNL d   1      45.227  25.088  55.649  0.00  0.00    -0.644 OA
ENDBRANCH  17  18
ENDBRANCH  16  17
ENDBRANCH  15  16
ENDBRANCH  14  15
ENDBRANCH  13  14
ENDBRANCH  12  13
ENDBRANCH   2  12
TORSDOF 7
ENDMDL
MODEL 5
REMARK VINA RESULT:      -5.0      9.266     10.211
REMARK  7 active torsions:
REMARK  status: ('A' for Active; 'I' for Inactive)
REMARK    1  A    between atoms: N_9  and  C_2 
REMARK    2  A    between atoms: C_8  and  C_14 
REMARK    3  A    between atoms: C_15  and  N_9 
REMARK    4  A    between atoms: C_14  and  C_16 
REMARK    5  A    between atoms: C_17  and  C_15 
REMARK    6  A    between atoms: C_16  and  C_18 
REMARK    7  A    between atoms: C_18  and  C_17 
ROOT
ATOM      1  N   UNL d   1      45.022  29.678  58.166  0.00  0.00    -0.198 NA
ATOM      2  C   UNL d   1      44.834  29.825  57.374  0.00  0.00     0.166 A 
ATOM      3  C   UNL d   1      45.044  30.300  58.707  0.00  0.00     0.222 A 
ATOM      4  C   UNL d   1      44.668  30.594  57.126  0.00  0.00     0.054 A 
ATOM      5  N   UNL d   1      44.877  31.070  58.456  0.00  0.00    -0.217 NA
ATOM      6  C   UNL d   1      44.690  31.217  57.667  0.00  0.00     0.087 A 
ATOM      7  S   UNL d   1      45.231  30.161  59.499  0.00  0.00    -0.037 SA
ATOM      8  C   UNL d   1      44.481  30.737  56.340  0.00  0.00     0.005 A 
ATOM      9  C   UNL d   1      44.525  31.982  57.422  0.00  0.00     0.019 A 
ATOM     10  C   UNL d   1      44.314  31.509  56.088  0.00  0.00     0.000 A 
ATOM     11  C   UNL d   1      44.336  32.131  56.629  0.00  0.00     0.002 A 
ENDROOT
BRANCH   2  12
ATOM     12  N   UNL d   1      44.812  29.204  56.834  0.00  0.00    -0.225 NA
BRANCH  12  13
ATOM     13  C   UNL d   1      44.879  28.430  57.105  0.00  0.00     0.101 C 
BRANCH  13  14
ATOM     14  C   UNL d   1      44.734  27.805  56.587  0.00  0.00     0.021 C 
BRANCH  14  15
ATOM     15  C   UNL d   1      44.986  27.040  56.783  0.00  0.00     0.002 C 
BRANCH  15  16
ATOM     16  C   UNL d   1      44.672  26.393  56.387  0.00  0.00     0.006 C 
BRANCH  16  17
ATOM     17  C   UNL d   1      45.069  25.669  56.407  0.00  0.00     0.070 C 
BRANCH  17  18
ATOM     18  C   UNL d   1      44.721  25.002  56.067  0.00  0.00     0.211 C 
ATOM     19  O   UNL d   1      44.320  24.458  56.539  0.00  0.00    -0.644 OA
ATOM     20  O   UNL d   1      44.777  24.880  55.248  0.00  0.00    -0.644 OA
ENDBRANCH  17  18
ENDBRANCH  16  17
ENDBRANCH  15  16
ENDBRANCH  14  15
ENDBRANCH  13  14
ENDBRANCH  12  13
ENDBRANCH   2  12
TORSDOF 7
ENDMDL
MODEL 6
REMARK VINA RESULT:      -5.0      9.729     10.448
REMARK  7 active torsions:
REMARK  status: ('A' for Active; 'I' for Inactive)
REMARK    1  A    between atoms: N_9  and  C_2 
REMARK    2  A    between atoms: C_8  and  C_14 
REMARK    3  A    between atoms: C_15  and  N_9 
REMARK    4  A    between atoms: C_14  and  C_16 
REMARK    5  A    between atoms: C_17  and  C_15 
REMARK    6  A    between atoms: C_16  and  C_18 
REMARK    7  A    between atoms: C_18  and  C_17 
ROOT
ATOM      1  N   UNL d   1      44.638  29.322  56.430  0.00  0.00    -0.198 NA
ATOM      2  C   UNL d   1      44.839  29.049  57.184  0.00  0.00     0.166 A 
ATOM      3  C   UNL d   1      44.515  30.128  56.303  0.00  0.00     0.222 A 
ATOM      4  C   UNL d   1      44.916  29.581  57.809  0.00  0.00     0.054 A 
ATOM      5  N   UNL d   1      44.592  30.660  56.931  0.00  0.00    -0.217 NA
ATOM      6  C   UNL d   1      44.792  30.387  57.683  0.00  0.00     0.087 A 
ATOM      7  S   UNL d   1      44.314  30.408  55.553  0.00  0.00    -0.037 SA
ATOM      8  C   UNL d   1      45.115  29.307  58.556  0.00  0.00     0.005 A 
ATOM      9  C   UNL d   1      44.868  30.918  58.303  0.00  0.00     0.019 A 
ATOM     10  C   UNL d   1      45.192  29.840  59.186  0.00  0.00     0.000 A 
ATOM     11  C   UNL d   1      45.069  30.646  59.059  0.00  0.00     0.002 A 
ENDROOT
BRANCH   2  12
ATOM     12  N   UNL d   1      44.962  28.245  57.311  0.00  0.00    -0.225 NA
BRANCH  12  13
ATOM     13  C   UNL d   1      44.853  27.716  56.689  0.00  0.00     0.101 C 
BRANCH  13  14
ATOM     14  C   UNL d   1      44.999  26.913  56.810  0.00  0.00     0.021 C 
BRANCH  14  15
ATOM     15  C   UNL d   1      44.718  26.356  56.265  0.00  0.00     0.002 C 
BRANCH  15  16
ATOM     16  C   UNL d   1      44.977  25.579  56.304  0.00  0.00     0.006 C 
BRANCH  16  17
ATOM     17  C   UNL d   1      44.536  24.981  55.943  0.00  0.00     0.070 C 
BRANCH  17  18
ATOM     18  C   UNL d   1      44.876  24.239  55.820  0.00  0.00     0.211 C 
ATOM     19  O   UNL d   1      44.925  23.697  56.438  0.00  0.00    -0.644 OA
ATOM     20  O   UNL d   1      45.170  24.040  55.069  0.00  0.00    -0.644 OA
ENDBRANCH  17  18
ENDBRANCH  16  17
ENDBRANCH  15  16
ENDBRANCH  14  15
ENDBRANCH  13  14
ENDBRANCH  12  13
ENDBRANCH   2  12
TORSDOF 7
ENDMDL
