MODEL 1
REMARK VINA RESULT:     149.8      0.000      0.000
REMARK  6 active torsions:
REMARK  status: ('A' for Active; 'I' for Inactive)
REMARK    1  A    between atoms: C_7  and  C_1 
REMARK    2  A    between atoms: C_9  and  N_2 
REMARK    3  A    between atoms: C_15  and  C_7 
REMARK    4  A    between atoms: C_8  and  C_9 
REMARK       I    between atoms: N_14  and  C_8 
REMARK    5  A    between atoms: C_20  and  N_14 
REMARK    6  A    between atoms: C_34  and  C_33 
ROOT
ATOM      1  C   UNL d   1      60.580  46.760  51.375  0.00  0.00     0.095 A 
ATOM      2  N   UNL d   1      60.691  48.186  51.478  0.00  0.00    -0.300 N 
ATOM      3  C   UNL d   1      60.982  46.691  52.125  0.00  0.00     0.202 A 
ATOM      4  C   UNL d   1      60.436  47.500  51.055  0.00  0.00     0.087 A 
ATOM      5  C   UNL d   1      61.224  47.383  52.524  0.00  0.00     0.056 A 
ATOM      6  C   UNL d   1      61.086  48.128  52.213  0.00  0.00     0.067 A 
ATOM      7  C   UNL d   1      61.335  48.798  52.626  0.00  0.00     0.018 A 
ATOM      8  C   UNL d   1      61.621  47.327  53.263  0.00  0.00     0.016 A 
ATOM      9  O   UNL d   1      61.124  45.960  52.441  0.00  0.00    -0.286 OA
ATOM     10  C   UNL d   1      61.867  48.004  53.670  0.00  0.00     0.058 A 
ATOM     11  C   UNL d   1      61.724  48.740  53.351  0.00  0.00     0.013 A 
ATOM     12 CL   UNL d   1      62.259  47.940  54.401  0.00  0.00    -0.082 Cl
ENDROOT
BRANCH   2  13
ATOM     13  C   UNL d   1      60.548  48.921  51.159  0.00  0.00     0.144 C 
BRANCH  13  14
ATOM     14  C   UNL d   1      59.935  49.023  50.615  0.00  0.00     0.297 C 
ATOM     15  N   UNL d   1      59.215  49.325  50.861  0.00  0.00    -0.207 NA
ATOM     16  O   UNL d   1      60.052  48.822  49.828  0.00  0.00    -0.264 OA
BRANCH  15  17
ATOM     17  C   UNL d   1      58.603  49.427  50.318  0.00  0.00     0.087 A 
ATOM     18  C   UNL d   1      57.831  49.354  50.565  0.00  0.00     0.045 A 
ATOM     19  C   UNL d   1      57.218  49.456  50.026  0.00  0.00     0.121 A 
ATOM     20  O   UNL d   1      56.389  49.414  50.125  0.00  0.00    -0.299 OA
ATOM     21  C   UNL d   1      57.391  49.631  49.236  0.00  0.00     0.119 A 
ATOM     22  C   UNL d   1      56.039  49.566  49.382  0.00  0.00     0.304 A 
ATOM     23  O   UNL d   1      56.659  49.701  48.830  0.00  0.00    -0.300 OA
ATOM     24  C   UNL d   1      58.167  49.704  48.989  0.00  0.00     0.028 A 
ATOM     25  C   UNL d   1      58.779  49.602  49.533  0.00  0.00     0.021 A 
ENDBRANCH  15  17
ENDBRANCH  13  14
ENDBRANCH   2  13
BRANCH   1  26
ATOM     26  C   UNL d   1      60.336  46.086  50.972  0.00  0.00     0.200 C 
ATOM     27  O   UNL d   1      59.553  45.853  51.006  0.00  0.00    -0.286 OA
BRANCH  26  28
ATOM     28  C   UNL d   1      60.876  45.644  50.535  0.00  0.00     0.039 A 
ATOM     29  C   UNL d   1      61.305  45.023  50.889  0.00  0.00     0.003 A 
ATOM     30  C   UNL d   1      61.853  44.571  50.451  0.00  0.00     0.000 A 
ATOM     31  C   UNL d   1      61.972  44.742  49.659  0.00  0.00     0.000 A 
ATOM     32  C   UNL d   1      61.533  45.371  49.315  0.00  0.00     0.000 A 
ATOM     33  C   UNL d   1      60.986  45.823  49.748  0.00  0.00     0.003 A 
BRANCH  31  34
ATOM     34  C   UNL d   1      62.517  44.294  49.222  0.00  0.00     0.000 C 
ATOM     35  C   UNL d   1      62.809  43.607  49.548  0.00  0.00     0.000 C 
ENDBRANCH  31  34
ENDBRANCH  26  28
ENDBRANCH   1  26
TORSDOF 6
ENDMDL
