MODEL 1
REMARK VINA RESULT:      14.0      0.000      0.000
REMARK  10 active torsions:
REMARK  status: ('A' for Active; 'I' for Inactive)
REMARK    1  A    between atoms: C_4  and  N_1 
REMARK    2  A    between atoms: C_10  and  C_2 
REMARK    3  A    between atoms: N_16  and  C_4 
REMARK    4  A    between atoms: O_22  and  C_8 
REMARK    5  A    between atoms: O_15  and  C_10 
REMARK    6  A    between atoms: O_23  and  C_11 
REMARK    7  A    between atoms: C_14  and  O_15 
REMARK    8  A    between atoms: C_25  and  N_16 
REMARK    9  A    between atoms: O_24  and  C_28 
REMARK   10  A    between atoms: C_28  and  C_25 
ROOT
ATOM      1  N   UNL d   1     -41.999-122.858 -51.571  0.00  0.00    -0.280 N 
ATOM      2  C   UNL d   1     -41.678-122.335 -52.123  0.00  0.00     0.091 A 
ATOM      3  C   UNL d   1     -41.722-122.510 -52.919  0.00  0.00     0.020 A 
ATOM      4  C   UNL d   1     -42.084-123.205 -53.173  0.00  0.00     0.005 A 
ATOM      5  C   UNL d   1     -41.402-121.988 -53.466  0.00  0.00     0.028 A 
ATOM      6  C   UNL d   1     -42.361-123.553 -51.825  0.00  0.00     0.082 A 
ATOM      7  C   UNL d   1     -41.444-122.160 -54.272  0.00  0.00     0.116 A 
ATOM      8  C   UNL d   1     -42.127-123.379 -53.975  0.00  0.00     0.026 A 
ATOM      9  C   UNL d   1     -41.806-122.856 -54.526  0.00  0.00     0.116 A 
ATOM     10  C   UNL d   1     -42.403-123.726 -52.631  0.00  0.00     0.019 A 
ENDROOT
BRANCH   2  11
ATOM     11  C   UNL d   1     -41.316-121.639 -51.868  0.00  0.00     0.140 C 
BRANCH  11  12
ATOM     12  O   UNL d   1     -41.148-121.040 -52.411  0.00  0.00    -0.304 OA
BRANCH  12  13
ATOM     13  C   UNL d   1     -41.154-120.251 -52.169  0.00  0.00     0.100 A 
ATOM     14  C   UNL d   1     -41.141-120.067 -51.365  0.00  0.00     0.025 A 
ATOM     15  C   UNL d   1     -41.147-119.278 -51.123  0.00  0.00     0.002 A 
ATOM     16  C   UNL d   1     -41.133-119.085 -50.316  0.00  0.00     0.000 C 
ATOM     17  C   UNL d   1     -41.168-118.675 -51.685  0.00  0.00     0.000 A 
ATOM     18  C   UNL d   1     -41.182-118.859 -52.489  0.00  0.00     0.002 A 
ATOM     19  C   UNL d   1     -41.175-119.648 -52.731  0.00  0.00     0.025 A 
ATOM     20  C   UNL d   1     -41.202-118.242 -53.048  0.00  0.00     0.000 C 
ENDBRANCH  12  13
ENDBRANCH  11  12
ENDBRANCH   2  11
BRANCH   1  21
ATOM     21  C   UNL d   1     -41.959-122.688 -50.757  0.00  0.00     0.206 C 
ATOM     22  S   UNL d   1     -41.216-122.569 -50.396  0.00  0.00    -0.038 SA
BRANCH  21  23
ATOM     23  N   UNL d   1     -42.644-122.637 -50.315  0.00  0.00    -0.215 NA
BRANCH  23  24
ATOM     24  C   UNL d   1     -42.606-122.508 -49.502  0.00  0.00     0.128 C 
BRANCH  24  25
ATOM     25  C   UNL d   1     -43.039-122.985 -48.987  0.00  0.00     0.137 C 
BRANCH  25  26
ATOM     26  O   UNL d   1     -43.001-122.858 -48.183  0.00  0.00    -0.325 OA
ATOM     27  C   UNL d   1     -42.596-123.384 -47.701  0.00  0.00     0.182 C 
ENDBRANCH  25  26
ENDBRANCH  24  25
ENDBRANCH  23  24
ENDBRANCH  21  23
ENDBRANCH   1  21
BRANCH   7  28
ATOM     28  O   UNL d   1     -41.123-121.636 -54.828  0.00  0.00    -0.326 OA
ATOM     29  C   UNL d   1     -41.571-121.388 -55.485  0.00  0.00     0.181 C 
ENDBRANCH   7  28
BRANCH   9  30
ATOM     30  O   UNL d   1     -41.847-123.028 -55.336  0.00  0.00    -0.326 OA
ATOM     31  C   UNL d   1     -41.813-123.817 -55.602  0.00  0.00     0.181 C 
ENDBRANCH   9  30
TORSDOF 10
ENDMDL
