MODEL 1
REMARK VINA RESULT:      -5.4      0.000      0.000
REMARK  5 active torsions:
REMARK  status: ('A' for Active; 'I' for Inactive)
REMARK       I    between atoms: C_2  and  N_1 
REMARK    1  A    between atoms: C_3  and  N_1 
REMARK    2  A    between atoms: C_4  and  C_2 
REMARK    3  A    between atoms: N_6  and  C_3 
REMARK    4  A    between atoms: C_11  and  N_6 
REMARK    5  A    between atoms: C_12  and  C_11 
ROOT
ATOM      1  N   UNL d   1      57.461  -0.223  30.703  0.00  0.00    -0.179 NA
ATOM      2  C   UNL d   1      57.480   0.143  31.428  0.00  0.00     0.281 C 
ATOM      3  O   UNL d   1      58.121   0.634  31.617  0.00  0.00    -0.265 OA
ENDROOT
BRANCH   1   4
ATOM      4  C   UNL d   1      58.057  -0.124  30.148  0.00  0.00     0.224 C 
ATOM      5  S   UNL d   1      58.134   0.591  29.739  0.00  0.00    -0.037 SA
BRANCH   4   6
ATOM      6  N   UNL d   1      58.573  -0.737  30.004  0.00  0.00    -0.214 NA
BRANCH   6   7
ATOM      7  C   UNL d   1      58.674  -1.017  29.232  0.00  0.00     0.126 C 
BRANCH   7   8
ATOM      8  C   UNL d   1      59.141  -1.697  29.091  0.00  0.00     0.119 A 
ATOM      9  O   UNL d   1      59.963  -1.703  29.024  0.00  0.00    -0.304 OA
ATOM     10  C   UNL d   1      60.204  -2.480  28.886  0.00  0.00     0.123 A 
ATOM     11  C   UNL d   1      59.522  -2.946  28.868  0.00  0.00     0.029 A 
ATOM     12  C   UNL d   1      58.876  -2.460  28.994  0.00  0.00     0.028 A 
ENDBRANCH   7   8
ENDBRANCH   6   7
ENDBRANCH   4   6
ENDBRANCH   1   4
BRANCH   2  13
ATOM     13  C   UNL d   1      56.860   0.026  31.973  0.00  0.00     0.058 A 
ATOM     14  C   UNL d   1      56.505   0.682  32.299  0.00  0.00     0.005 A 
ATOM     15  C   UNL d   1      55.889   0.582  32.842  0.00  0.00     0.000 A 
ATOM     16  C   UNL d   1      55.633  -0.169  33.056  0.00  0.00     0.000 A 
ATOM     17  C   UNL d   1      56.007  -0.829  32.712  0.00  0.00     0.000 A 
ATOM     18  C   UNL d   1      55.009  -0.251  33.606  0.00  0.00     0.000 C 
ATOM     19  C   UNL d   1      56.614  -0.724  32.177  0.00  0.00     0.005 A 
ENDBRANCH   2  13
TORSDOF 5
ENDMDL
MODEL 2
REMARK VINA RESULT:      -4.8      0.901      4.676
REMARK  5 active torsions:
REMARK  status: ('A' for Active; 'I' for Inactive)
REMARK       I    between atoms: C_2  and  N_1 
REMARK    1  A    between atoms: C_3  and  N_1 
REMARK    2  A    between atoms: C_4  and  C_2 
REMARK    3  A    between atoms: N_6  and  C_3 
REMARK    4  A    between atoms: C_11  and  N_6 
REMARK    5  A    between atoms: C_12  and  C_11 
ROOT
ATOM      1  N   UNL d   1      58.428  -0.719  30.217  0.00  0.00    -0.179 NA
ATOM      2  C   UNL d   1      58.554  -0.876  29.430  0.00  0.00     0.281 C 
ATOM      3  O   UNL d   1      58.163  -0.420  28.859  0.00  0.00    -0.265 OA
ENDROOT
BRANCH   1   4
ATOM      4  C   UNL d   1      57.924  -0.121  30.468  0.00  0.00     0.224 C 
ATOM      5  S   UNL d   1      58.081   0.667  30.274  0.00  0.00    -0.037 SA
BRANCH   4   6
ATOM      6  N   UNL d   1      57.269  -0.313  30.910  0.00  0.00    -0.214 NA
BRANCH   6   7
ATOM      7  C   UNL d   1      57.225  -0.083  31.704  0.00  0.00     0.126 C 
BRANCH   7   8
ATOM      8  C   UNL d   1      56.629  -0.397  32.199  0.00  0.00     0.119 A 
ATOM      9  O   UNL d   1      56.491  -1.200  32.327  0.00  0.00    -0.304 OA
ATOM     10  C   UNL d   1      55.856  -1.273  32.849  0.00  0.00     0.123 A 
ATOM     11  C   UNL d   1      55.610  -0.507  33.038  0.00  0.00     0.029 A 
ATOM     12  C   UNL d   1      56.086   0.023  32.637  0.00  0.00     0.028 A 
ENDBRANCH   7   8
ENDBRANCH   6   7
ENDBRANCH   4   6
ENDBRANCH   1   4
BRANCH   2  13
ATOM     13  C   UNL d   1      59.072  -1.489  29.203  0.00  0.00     0.058 A 
ATOM     14  C   UNL d   1      58.781  -2.249  29.181  0.00  0.00     0.005 A 
ATOM     15  C   UNL d   1      59.282  -2.868  28.957  0.00  0.00     0.000 A 
ATOM     16  C   UNL d   1      60.067  -2.725  28.758  0.00  0.00     0.000 A 
ATOM     17  C   UNL d   1      60.347  -1.942  28.787  0.00  0.00     0.000 A 
ATOM     18  C   UNL d   1      60.558  -3.364  28.535  0.00  0.00     0.000 C 
ATOM     19  C   UNL d   1      59.848  -1.335  29.008  0.00  0.00     0.005 A 
ENDBRANCH   2  13
TORSDOF 5
ENDMDL
