MODEL 1
REMARK VINA RESULT:       3.4      0.000      0.000
REMARK  6 active torsions:
REMARK  status: ('A' for Active; 'I' for Inactive)
REMARK    1  A    between atoms: C_3  and  C_1 
REMARK    2  A    between atoms: S_2  and  C_3 
REMARK    3  A    between atoms: C_8  and  S_2 
REMARK    4  A    between atoms: C_9  and  C_3 
REMARK    5  A    between atoms: N_7  and  C_4 
REMARK    6  A    between atoms: C_25  and  N_16 
ROOT
ATOM      1  C   UNL d   1      32.621  21.417 -22.412  0.00  0.00     0.128 A 
ATOM      2  C   UNL d   1      32.713  22.194 -22.164  0.00  0.00     0.166 A 
ATOM      3  N   UNL d   1      32.706  21.223 -23.204  0.00  0.00    -0.240 NA
ATOM      4  N   UNL d   1      32.889  22.778 -22.708  0.00  0.00    -0.225 NA
ATOM      5  C   UNL d   1      32.883  21.812 -23.745  0.00  0.00     0.099 A 
ATOM      6  C   UNL d   1      32.975  22.590 -23.501  0.00  0.00     0.101 A 
ATOM      7  C   UNL d   1      33.153  23.176 -24.053  0.00  0.00     0.021 A 
ATOM      8  C   UNL d   1      32.968  21.614 -24.543  0.00  0.00     0.021 A 
ATOM      9  C   UNL d   1      33.146  22.201 -25.094  0.00  0.00     0.002 A 
ATOM     10  C   UNL d   1      33.238  22.979 -24.846  0.00  0.00     0.002 A 
ENDROOT
BRANCH   1  11
ATOM     11  C   UNL d   1      32.445  20.829 -21.869  0.00  0.00     0.129 C 
BRANCH  11  12
ATOM     12  S   UNL d   1      32.657  19.981 -22.075  0.00  0.00     0.213 S 
ATOM     13  O   UNL d   1      33.094  20.161 -21.385  0.00  0.00    -0.217 OA
ATOM     14  O   UNL d   1      33.234  19.556 -21.549  0.00  0.00    -0.217 OA
BRANCH  12  15
ATOM     15  C   UNL d   1      32.417  19.473 -22.691  0.00  0.00     0.088 A 
ATOM     16  C   UNL d   1      32.943  19.293 -23.305  0.00  0.00     0.011 A 
ATOM     17  C   UNL d   1      32.708  18.791 -23.915  0.00  0.00     0.001 A 
ATOM     18  C   UNL d   1      33.226  18.610 -24.526  0.00  0.00     0.000 C 
ATOM     19  C   UNL d   1      31.944  18.465 -23.911  0.00  0.00     0.000 A 
ATOM     20  C   UNL d   1      31.422  18.648 -23.296  0.00  0.00     0.001 A 
ATOM     21  C   UNL d   1      31.705  17.961 -24.521  0.00  0.00     0.000 C 
ATOM     22  C   UNL d   1      31.655  19.151 -22.683  0.00  0.00     0.011 A 
ENDBRANCH  12  15
ENDBRANCH  11  12
BRANCH  11  23
ATOM     23  C   UNL d   1      32.068  20.876 -21.087  0.00  0.00     0.135 C 
ATOM     24  N   UNL d   1      31.299  20.525 -20.828  0.00  0.00    -0.146 N 
ENDBRANCH  11  23
ENDBRANCH   1  11
BRANCH   2  25
ATOM     25  N   UNL d   1      32.624  22.377 -21.354  0.00  0.00    -0.285 N 
ATOM     26  C   UNL d   1      33.158  22.085 -20.798  0.00  0.00     0.101 A 
ATOM     27  C   UNL d   1      33.060  22.273 -19.994  0.00  0.00     0.100 A 
ATOM     28  N   UNL d   1      32.423  22.756 -19.753  0.00  0.00    -0.300 N 
ATOM     29  C   UNL d   1      31.886  23.049 -20.316  0.00  0.00     0.100 A 
ATOM     30  C   UNL d   1      31.987  22.860 -21.113  0.00  0.00     0.101 A 
BRANCH  28  31
ATOM     31  C   UNL d   1      32.327  22.944 -18.940  0.00  0.00     0.080 C 
ATOM     32  C   UNL d   1      32.943  22.766 -18.406  0.00  0.00     0.021 C 
ENDBRANCH  28  31
ENDBRANCH   2  25
TORSDOF 6
ENDMDL
MODEL 2
REMARK VINA RESULT:       4.9      2.620      5.405
REMARK  6 active torsions:
REMARK  status: ('A' for Active; 'I' for Inactive)
REMARK    1  A    between atoms: C_3  and  C_1 
REMARK    2  A    between atoms: S_2  and  C_3 
REMARK    3  A    between atoms: C_8  and  S_2 
REMARK    4  A    between atoms: C_9  and  C_3 
REMARK    5  A    between atoms: N_7  and  C_4 
REMARK    6  A    between atoms: C_25  and  N_16 
ROOT
ATOM      1  C   UNL d   1      31.849  17.748 -23.831  0.00  0.00     0.128 A 
ATOM      2  C   UNL d   1      31.148  17.338 -23.709  0.00  0.00     0.166 A 
ATOM      3  N   UNL d   1      32.546  17.483 -23.490  0.00  0.00    -0.240 NA
ATOM      4  N   UNL d   1      31.144  16.664 -23.247  0.00  0.00    -0.225 NA
ATOM      5  C   UNL d   1      32.537  16.808 -23.028  0.00  0.00     0.099 A 
ATOM      6  C   UNL d   1      31.838  16.396 -22.904  0.00  0.00     0.101 A 
ATOM      7  C   UNL d   1      31.838  15.716 -22.437  0.00  0.00     0.021 A 
ATOM      8  C   UNL d   1      33.241  16.543 -22.686  0.00  0.00     0.021 A 
ATOM      9  C   UNL d   1      33.240  15.863 -22.219  0.00  0.00     0.002 A 
ATOM     10  C   UNL d   1      32.538  15.453 -22.097  0.00  0.00     0.002 A 
ENDROOT
BRANCH   1  11
ATOM     11  C   UNL d   1      31.857  18.424 -24.293  0.00  0.00     0.129 C 
BRANCH  11  12
ATOM     12  S   UNL d   1      32.562  18.976 -24.229  0.00  0.00     0.213 S 
ATOM     13  O   UNL d   1      32.744  18.452 -24.855  0.00  0.00    -0.217 OA
ATOM     14  O   UNL d   1      33.239  18.856 -24.793  0.00  0.00    -0.217 OA
BRANCH  12  15
ATOM     15  C   UNL d   1      32.733  19.618 -23.724  0.00  0.00     0.088 A 
ATOM     16  C   UNL d   1      32.691  19.519 -22.903  0.00  0.00     0.011 A 
ATOM     17  C   UNL d   1      32.859  20.151 -22.403  0.00  0.00     0.001 A 
ATOM     18  C   UNL d   1      32.819  20.056 -21.587  0.00  0.00     0.000 C 
ATOM     19  C   UNL d   1      33.070  20.887 -22.723  0.00  0.00     0.000 A 
ATOM     20  C   UNL d   1      33.111  20.982 -23.544  0.00  0.00     0.001 A 
ATOM     21  C   UNL d   1      33.240  21.524 -22.223  0.00  0.00     0.000 C 
ATOM     22  C   UNL d   1      32.942  20.349 -24.048  0.00  0.00     0.011 A 
ENDBRANCH  12  15
ENDBRANCH  11  12
BRANCH  11  23
ATOM     23  C   UNL d   1      31.277  18.723 -24.868  0.00  0.00     0.135 C 
ATOM     24  N   UNL d   1      31.116  19.562 -25.097  0.00  0.00    -0.146 N 
ENDBRANCH  11  23
ENDBRANCH   1  11
BRANCH   2  25
ATOM     25  N   UNL d   1      30.445  17.619 -24.062  0.00  0.00    -0.285 N 
ATOM     26  C   UNL d   1      30.101  17.211 -24.691  0.00  0.00     0.101 A 
ATOM     27  C   UNL d   1      29.401  17.499 -25.035  0.00  0.00     0.100 A 
ATOM     28  N   UNL d   1      29.050  18.198 -24.745  0.00  0.00    -0.300 N 
ATOM     29  C   UNL d   1      29.400  18.608 -24.110  0.00  0.00     0.100 A 
ATOM     30  C   UNL d   1      30.094  18.318 -23.772  0.00  0.00     0.101 A 
BRANCH  28  31
ATOM     31  C   UNL d   1      28.343  18.487 -25.095  0.00  0.00     0.080 C 
ATOM     32  C   UNL d   1      27.821  18.948 -24.636  0.00  0.00     0.021 C 
ENDBRANCH  28  31
ENDBRANCH   2  25
TORSDOF 6
ENDMDL
