MODEL 1
REMARK VINA RESULT:      49.0      0.000      0.000
REMARK  2 active torsions:
REMARK  status: ('A' for Active; 'I' for Inactive)
REMARK    1  A    between atoms: C_3  and  C_1 
REMARK       I    between atoms: N_6  and  C_3 
REMARK    2  A    between atoms: C_11  and  N_6 
ROOT
ATOM      1  C   UNL d   1     -54.897-101.503 -41.642  0.00  0.00     0.121 A 
ATOM      2  C   UNL d   1     -54.808-100.681 -41.785  0.00  0.00     0.305 A 
ATOM      3  C   UNL d   1     -54.976-102.022 -42.280  0.00  0.00     0.012 A 
ATOM      4  O   UNL d   1     -54.797-100.384 -42.564  0.00  0.00    -0.273 OA
ATOM      5  C   UNL d   1     -54.965-101.725 -43.051  0.00  0.00     0.023 A 
ATOM      6  C   UNL d   1     -54.877-100.917 -43.191  0.00  0.00     0.103 A 
ATOM      7  O   UNL d   1     -54.724-100.113 -41.159  0.00  0.00    -0.259 OA
ATOM      8  C   UNL d   1     -55.044-102.255 -43.668  0.00  0.00     0.002 A 
ATOM      9  C   UNL d   1     -54.866-100.617 -43.952  0.00  0.00     0.025 A 
ATOM     10  C   UNL d   1     -54.946-101.151 -44.583  0.00  0.00     0.002 A 
ATOM     11  C   UNL d   1     -55.036-101.974 -44.440  0.00  0.00     0.000 A 
ENDROOT
BRANCH   1  12
ATOM     12  C   UNL d   1     -54.910-101.819 -40.863  0.00  0.00     0.284 C 
ATOM     13  N   UNL d   1     -54.724-101.347 -40.213  0.00  0.00    -0.208 NA
ATOM     14  O   UNL d   1     -55.116-102.623 -40.775  0.00  0.00    -0.265 OA
BRANCH  13  15
ATOM     15  C   UNL d   1     -54.741-101.673 -39.450  0.00  0.00     0.085 A 
ATOM     16  C   UNL d   1     -54.733-101.187 -38.783  0.00  0.00     0.019 A 
ATOM     17  C   UNL d   1     -54.749-101.512 -38.049  0.00  0.00     0.002 A 
ATOM     18  C   UNL d   1     -54.741-101.028 -37.386  0.00  0.00     0.000 C 
ATOM     19  C   UNL d   1     -54.775-102.325 -37.952  0.00  0.00     0.000 A 
ATOM     20  C   UNL d   1     -54.783-102.825 -38.637  0.00  0.00     0.002 A 
ATOM     21  C   UNL d   1     -54.791-102.648 -37.177  0.00  0.00     0.000 C 
ATOM     22  C   UNL d   1     -54.766-102.485 -39.382  0.00  0.00     0.019 A 
ENDBRANCH  13  15
ENDBRANCH   1  12
TORSDOF 2
ENDMDL
MODEL 2
REMARK VINA RESULT:      51.4      0.806      4.637
REMARK  2 active torsions:
REMARK  status: ('A' for Active; 'I' for Inactive)
REMARK    1  A    between atoms: C_3  and  C_1 
REMARK       I    between atoms: N_6  and  C_3 
REMARK    2  A    between atoms: C_11  and  N_6 
ROOT
ATOM      1  C   UNL d   1     -54.886-101.601 -40.038  0.00  0.00     0.121 A 
ATOM      2  C   UNL d   1     -54.826-100.847 -39.671  0.00  0.00     0.305 A 
ATOM      3  C   UNL d   1     -54.993-102.274 -39.572  0.00  0.00     0.012 A 
ATOM      4  O   UNL d   1     -54.873-100.774 -38.842  0.00  0.00    -0.273 OA
ATOM      5  C   UNL d   1     -55.039-102.198 -38.750  0.00  0.00     0.023 A 
ATOM      6  C   UNL d   1     -54.980-101.458 -38.390  0.00  0.00     0.103 A 
ATOM      7  O   UNL d   1     -54.716-100.130 -40.112  0.00  0.00    -0.259 OA
ATOM      8  C   UNL d   1     -55.145-102.877 -38.308  0.00  0.00     0.002 A 
ATOM      9  C   UNL d   1     -55.024-101.377 -37.578  0.00  0.00     0.025 A 
ATOM     10  C   UNL d   1     -55.132-102.063 -37.122  0.00  0.00     0.002 A 
ATOM     11  C   UNL d   1     -55.192-102.817 -37.489  0.00  0.00     0.000 A 
ENDROOT
BRANCH   1  12
ATOM     12  C   UNL d   1     -54.841-101.692 -40.872  0.00  0.00     0.284 C 
ATOM     13  N   UNL d   1     -54.922-101.042 -41.373  0.00  0.00    -0.208 NA
ATOM     14  O   UNL d   1     -54.713-102.461 -41.171  0.00  0.00    -0.265 OA
BRANCH  13  15
ATOM     15  C   UNL d   1     -54.875-101.148 -42.196  0.00  0.00     0.085 A 
ATOM     16  C   UNL d   1     -54.817-100.499 -42.702  0.00  0.00     0.019 A 
ATOM     17  C   UNL d   1     -54.773-100.613 -43.496  0.00  0.00     0.002 A 
ATOM     18  C   UNL d   1     -54.715 -99.967 -43.999  0.00  0.00     0.000 C 
ATOM     19  C   UNL d   1     -54.784-101.368 -43.812  0.00  0.00     0.000 A 
ATOM     20  C   UNL d   1     -54.844-102.035 -43.292  0.00  0.00     0.002 A 
ATOM     21  C   UNL d   1     -54.736-101.468 -44.644  0.00  0.00     0.000 C 
ATOM     22  C   UNL d   1     -54.889-101.910 -42.483  0.00  0.00     0.019 A 
ENDBRANCH  13  15
ENDBRANCH   1  12
TORSDOF 2
ENDMDL
