MODEL 1
REMARK VINA RESULT:      -8.5      0.000      0.000
REMARK  5 active torsions:
REMARK  status: ('A' for Active; 'I' for Inactive)
REMARK    1  A    between atoms: C_20  and  N_1 
REMARK       I    between atoms: C_6  and  N_7 
REMARK    2  A    between atoms: C_10  and  C_6 
REMARK    3  A    between atoms: N_7  and  C_8 
REMARK    4  A    between atoms: O_22  and  C_13 
REMARK    5  A    between atoms: O_23  and  C_16 
ROOT
ATOM      1  N   UNL d   1     -49.774  14.821  22.514  0.00  0.00    -0.273 N 
ATOM      2  C   UNL d   1     -50.340  14.239  21.882  0.00  0.00     0.265 A 
ATOM      3  C   UNL d   1     -49.045  14.332  22.603  0.00  0.00     0.067 A 
ATOM      4  C   UNL d   1     -49.102  13.671  22.187  0.00  0.00     0.022 A 
ATOM      5  C   UNL d   1     -49.791  13.530  21.751  0.00  0.00     0.058 A 
ATOM      6  C   UNL d   1     -47.823  13.261  22.605  0.00  0.00     0.085 A 
ATOM      7  C   UNL d   1     -48.496  13.138  22.187  0.00  0.00     0.019 A 
ATOM      8  C   UNL d   1     -48.332  14.478  23.054  0.00  0.00     0.019 A 
ATOM      9  O   UNL d   1     -51.064  14.418  21.615  0.00  0.00    -0.267 OA
ATOM     10  C   UNL d   1     -47.755  13.955  23.045  0.00  0.00     0.021 A 
ATOM     11  C   UNL d   1     -49.851  12.849  21.322  0.00  0.00     0.005 A 
ATOM     12  C   UNL d   1     -48.554  12.432  21.744  0.00  0.00     0.002 A 
ATOM     13  C   UNL d   1     -49.233  12.294  21.315  0.00  0.00     0.000 A 
ENDROOT
BRANCH   6  14
ATOM     14  N   UNL d   1     -47.190  12.711  22.609  0.00  0.00    -0.208 NA
ATOM     15  C   UNL d   1     -46.524  12.895  23.040  0.00  0.00     0.279 C 
ATOM     16  O   UNL d   1     -46.464  13.580  23.453  0.00  0.00    -0.265 OA
BRANCH  15  17
ATOM     17  C   UNL d   1     -45.919  12.380  23.049  0.00  0.00     0.060 A 
ATOM     18  C   UNL d   1     -45.309  12.571  22.621  0.00  0.00     0.031 A 
ATOM     19  C   UNL d   1     -44.617  12.011  22.613  0.00  0.00     0.116 A 
ATOM     20  C   UNL d   1     -44.656  11.311  23.063  0.00  0.00     0.116 A 
ATOM     21  C   UNL d   1     -45.321  11.146  23.503  0.00  0.00     0.026 A 
ATOM     22  C   UNL d   1     -45.962  11.687  23.497  0.00  0.00     0.007 A 
BRANCH  19  23
ATOM     23  O   UNL d   1     -43.966  12.159  22.191  0.00  0.00    -0.326 OA
ATOM     24  C   UNL d   1     -43.964  12.776  21.653  0.00  0.00     0.181 C 
ENDBRANCH  19  23
BRANCH  20  25
ATOM     25  O   UNL d   1     -44.016  10.775  23.066  0.00  0.00    -0.326 OA
ATOM     26  C   UNL d   1     -43.983  10.179  23.639  0.00  0.00     0.181 C 
ENDBRANCH  20  25
ENDBRANCH  15  17
ENDBRANCH   6  14
BRANCH   1  27
ATOM     27  C   UNL d   1     -49.633  15.612  23.049  0.00  0.00     0.083 C 
ATOM     28  C   UNL d   1     -50.238  15.910  23.492  0.00  0.00     0.021 C 
ENDBRANCH   1  27
TORSDOF 5
ENDMDL
MODEL 2
REMARK VINA RESULT:      -7.7      1.077      5.212
REMARK  5 active torsions:
REMARK  status: ('A' for Active; 'I' for Inactive)
REMARK    1  A    between atoms: C_20  and  N_1 
REMARK       I    between atoms: C_6  and  N_7 
REMARK    2  A    between atoms: C_10  and  C_6 
REMARK    3  A    between atoms: N_7  and  C_8 
REMARK    4  A    between atoms: O_22  and  C_13 
REMARK    5  A    between atoms: O_23  and  C_16 
ROOT
ATOM      1  N   UNL d   1     -44.578  12.303  22.486  0.00  0.00    -0.273 N 
ATOM      2  C   UNL d   1     -44.795  11.407  22.942  0.00  0.00     0.265 A 
ATOM      3  C   UNL d   1     -45.345  12.732  22.560  0.00  0.00     0.067 A 
ATOM      4  C   UNL d   1     -45.876  12.289  22.928  0.00  0.00     0.022 A 
ATOM      5  C   UNL d   1     -45.660  11.532  23.180  0.00  0.00     0.058 A 
ATOM      6  C   UNL d   1     -46.844  13.304  22.819  0.00  0.00     0.085 A 
ATOM      7  C   UNL d   1     -46.621  12.572  23.058  0.00  0.00     0.019 A 
ATOM      8  C   UNL d   1     -45.569  13.516  22.300  0.00  0.00     0.019 A 
ATOM      9  O   UNL d   1     -44.291  10.802  23.032  0.00  0.00    -0.267 OA
ATOM     10  C   UNL d   1     -46.291  13.776  22.431  0.00  0.00     0.021 A 
ATOM     11  C   UNL d   1     -46.206  11.074  23.559  0.00  0.00     0.005 A 
ATOM     12  C   UNL d   1     -47.189  12.101  23.450  0.00  0.00     0.002 A 
ATOM     13  C   UNL d   1     -46.975  11.355  23.698  0.00  0.00     0.000 A 
ENDROOT
BRANCH   6  14
ATOM     14  N   UNL d   1     -47.616  13.603  22.951  0.00  0.00    -0.208 NA
ATOM     15  C   UNL d   1     -47.878  14.212  22.477  0.00  0.00     0.279 C 
ATOM     16  O   UNL d   1     -47.419  14.524  21.898  0.00  0.00    -0.265 OA
BRANCH  15  17
ATOM     17  C   UNL d   1     -48.609  14.501  22.595  0.00  0.00     0.060 A 
ATOM     18  C   UNL d   1     -49.166  14.193  22.161  0.00  0.00     0.031 A 
ATOM     19  C   UNL d   1     -49.994  14.499  22.273  0.00  0.00     0.116 A 
ATOM     20  C   UNL d   1     -50.133  15.098  22.835  0.00  0.00     0.116 A 
ATOM     21  C   UNL d   1     -49.515  15.397  23.274  0.00  0.00     0.026 A 
ATOM     22  C   UNL d   1     -48.743  15.095  23.153  0.00  0.00     0.007 A 
BRANCH  19  23
ATOM     23  O   UNL d   1     -50.602  14.219  21.854  0.00  0.00    -0.326 OA
ATOM     24  C   UNL d   1     -50.467  13.669  21.263  0.00  0.00     0.181 C 
ENDBRANCH  19  23
BRANCH  20  25
ATOM     25  O   UNL d   1     -50.904  15.396  22.952  0.00  0.00    -0.326 OA
ATOM     26  C   UNL d   1     -51.064  15.876  23.608  0.00  0.00     0.181 C 
ENDBRANCH  20  25
ENDBRANCH  15  17
ENDBRANCH   6  14
BRANCH   1  27
ATOM     27  C   UNL d   1     -43.979  12.904  22.027  0.00  0.00     0.083 C 
ATOM     28  C   UNL d   1     -43.353  12.608  21.612  0.00  0.00     0.021 C 
ENDBRANCH   1  27
TORSDOF 5
ENDMDL
MODEL 3
REMARK VINA RESULT:      -6.4      1.255      1.717
REMARK  5 active torsions:
REMARK  status: ('A' for Active; 'I' for Inactive)
REMARK    1  A    between atoms: C_20  and  N_1 
REMARK       I    between atoms: C_6  and  N_7 
REMARK    2  A    between atoms: C_10  and  C_6 
REMARK    3  A    between atoms: N_7  and  C_8 
REMARK    4  A    between atoms: O_22  and  C_13 
REMARK    5  A    between atoms: O_23  and  C_16 
ROOT
ATOM      1  N   UNL d   1     -49.558  13.971  23.265  0.00  0.00    -0.273 N 
ATOM      2  C   UNL d   1     -49.222  14.880  22.920  0.00  0.00     0.265 A 
ATOM      3  C   UNL d   1     -48.813  13.500  23.281  0.00  0.00     0.067 A 
ATOM      4  C   UNL d   1     -48.207  13.931  23.037  0.00  0.00     0.022 A 
ATOM      5  C   UNL d   1     -48.338  14.716  22.814  0.00  0.00     0.058 A 
ATOM      6  C   UNL d   1     -47.324  12.851  23.220  0.00  0.00     0.085 A 
ATOM      7  C   UNL d   1     -47.466  13.610  23.007  0.00  0.00     0.019 A 
ATOM      8  C   UNL d   1     -48.677  12.687  23.512  0.00  0.00     0.019 A 
ATOM      9  O   UNL d   1     -49.672  15.521  22.798  0.00  0.00    -0.267 OA
ATOM     10  C   UNL d   1     -47.957  12.390  23.477  0.00  0.00     0.021 A 
ATOM     11  C   UNL d   1     -47.714  15.162  22.563  0.00  0.00     0.005 A 
ATOM     12  C   UNL d   1     -46.817  14.068  22.747  0.00  0.00     0.002 A 
ATOM     13  C   UNL d   1     -46.948  14.842  22.527  0.00  0.00     0.000 A 
ENDROOT
BRANCH   6  14
ATOM     14  N   UNL d   1     -46.558  12.512  23.190  0.00  0.00    -0.208 NA
ATOM     15  C   UNL d   1     -46.485  11.713  23.334  0.00  0.00     0.279 C 
ATOM     16  O   UNL d   1     -47.121  11.254  23.501  0.00  0.00    -0.265 OA
BRANCH  15  17
ATOM     17  C   UNL d   1     -45.762  11.384  23.308  0.00  0.00     0.060 A 
ATOM     18  C   UNL d   1     -45.233  11.770  22.903  0.00  0.00     0.031 A 
ATOM     19  C   UNL d   1     -44.414  11.423  22.857  0.00  0.00     0.116 A 
ATOM     20  C   UNL d   1     -44.254  10.706  23.248  0.00  0.00     0.116 A 
ATOM     21  C   UNL d   1     -44.843  10.329  23.666  0.00  0.00     0.026 A 
ATOM     22  C   UNL d   1     -45.608  10.672  23.697  0.00  0.00     0.007 A 
BRANCH  19  23
ATOM     23  O   UNL d   1     -43.833  11.777  22.455  0.00  0.00    -0.326 OA
ATOM     24  C   UNL d   1     -44.007  12.414  21.971  0.00  0.00     0.181 C 
ENDBRANCH  19  23
BRANCH  20  25
ATOM     25  O   UNL d   1     -43.491  10.367  23.215  0.00  0.00    -0.326 OA
ATOM     26  C   UNL d   1     -43.355   9.627  23.560  0.00  0.00     0.181 C 
ENDBRANCH  20  25
ENDBRANCH  15  17
ENDBRANCH   6  14
BRANCH   1  27
ATOM     27  C   UNL d   1     -50.255  13.380  23.575  0.00  0.00     0.083 C 
ATOM     28  C   UNL d   1     -51.021  13.633  23.582  0.00  0.00     0.021 C 
ENDBRANCH   1  27
TORSDOF 5
ENDMDL
MODEL 4
REMARK VINA RESULT:      -6.4      1.083      2.005
REMARK  5 active torsions:
REMARK  status: ('A' for Active; 'I' for Inactive)
REMARK    1  A    between atoms: C_20  and  N_1 
REMARK       I    between atoms: C_6  and  N_7 
REMARK    2  A    between atoms: C_10  and  C_6 
REMARK    3  A    between atoms: N_7  and  C_8 
REMARK    4  A    between atoms: O_22  and  C_13 
REMARK    5  A    between atoms: O_23  and  C_16 
ROOT
ATOM      1  N   UNL d   1     -50.095  13.751  23.384  0.00  0.00    -0.273 N 
ATOM      2  C   UNL d   1     -50.124  14.752  23.151  0.00  0.00     0.265 A 
ATOM      3  C   UNL d   1     -49.259  13.547  23.193  0.00  0.00     0.067 A 
ATOM      4  C   UNL d   1     -48.873  14.175  22.932  0.00  0.00     0.022 A 
ATOM      5  C   UNL d   1     -49.274  14.896  22.873  0.00  0.00     0.058 A 
ATOM      6  C   UNL d   1     -47.693  13.424  22.774  0.00  0.00     0.085 A 
ATOM      7  C   UNL d   1     -48.094  14.116  22.723  0.00  0.00     0.019 A 
ATOM      8  C   UNL d   1     -48.843  12.801  23.254  0.00  0.00     0.019 A 
ATOM      9  O   UNL d   1     -50.757  15.223  23.219  0.00  0.00    -0.267 OA
ATOM     10  C   UNL d   1     -48.093  12.758  23.049  0.00  0.00     0.021 A 
ATOM     11  C   UNL d   1     -48.877  15.545  22.603  0.00  0.00     0.005 A 
ATOM     12  C   UNL d   1     -47.680  14.786  22.443  0.00  0.00     0.002 A 
ATOM     13  C   UNL d   1     -48.076  15.496  22.386  0.00  0.00     0.000 A 
ENDROOT
BRANCH   6  14
ATOM     14  N   UNL d   1     -46.886  13.357  22.559  0.00  0.00    -0.208 NA
ATOM     15  C   UNL d   1     -46.493  12.669  22.751  0.00  0.00     0.279 C 
ATOM     16  O   UNL d   1     -46.859  12.067  23.135  0.00  0.00    -0.265 OA
BRANCH  15  17
ATOM     17  C   UNL d   1     -45.728  12.597  22.551  0.00  0.00     0.060 A 
ATOM     18  C   UNL d   1     -45.352  12.006  22.871  0.00  0.00     0.031 A 
ATOM     19  C   UNL d   1     -44.492  11.901  22.664  0.00  0.00     0.116 A 
ATOM     20  C   UNL d   1     -44.133  12.439  22.139  0.00  0.00     0.116 A 
ATOM     21  C   UNL d   1     -44.567  13.052  21.823  0.00  0.00     0.026 A 
ATOM     22  C   UNL d   1     -45.375  13.132  22.031  0.00  0.00     0.007 A 
BRANCH  19  23
ATOM     23  O   UNL d   1     -44.060  11.312  22.963  0.00  0.00    -0.326 OA
ATOM     24  C   UNL d   1     -44.424  10.725  23.402  0.00  0.00     0.181 C 
ENDBRANCH  19  23
BRANCH  20  25
ATOM     25  O   UNL d   1     -43.328  12.356  21.934  0.00  0.00    -0.326 OA
ATOM     26  C   UNL d   1     -42.997  12.849  21.358  0.00  0.00     0.181 C 
ENDBRANCH  20  25
ENDBRANCH  15  17
ENDBRANCH   6  14
BRANCH   1  27
ATOM     27  C   UNL d   1     -50.505  12.936  23.698  0.00  0.00     0.083 C 
ATOM     28  C   UNL d   1     -51.064  12.569  23.246  0.00  0.00     0.021 C 
ENDBRANCH   1  27
TORSDOF 5
ENDMDL
