MODEL 1
REMARK VINA RESULT:      14.0      0.000      0.000
REMARK  2 active torsions:
REMARK  status: ('A' for Active; 'I' for Inactive)
REMARK    1  A    between atoms: C_13  and  N_8 
REMARK    2  A    between atoms: C_14  and  C_13 
ROOT
ATOM      1  C   UNL d   1     -54.712-101.451 -37.879  0.00  0.00     0.093 A 
ATOM      2  N   UNL d   1     -54.712-100.812 -36.602  0.00  0.00    -0.179 NA
ATOM      3  C   UNL d   1     -54.712-100.759 -37.429  0.00  0.00     0.284 A 
ATOM      4  C   UNL d   1     -54.712-102.188 -37.504  0.00  0.00     0.091 A 
ATOM      5  C   UNL d   1     -54.713-101.548 -36.227  0.00  0.00     0.223 A 
ATOM      6  N   UNL d   1     -54.713-102.233 -36.681  0.00  0.00    -0.217 NA
ATOM      7  C   UNL d   1     -54.712-101.406 -38.702  0.00  0.00     0.087 A 
ATOM      8  N   UNL d   1     -54.712-102.094 -39.144  0.00  0.00    -0.302 N 
ATOM      9  C   UNL d   1     -54.713-102.880 -37.954  0.00  0.00     0.038 A 
ATOM     10  S   UNL d   1     -54.713-101.598 -35.402  0.00  0.00    -0.037 SA
ATOM     11  O   UNL d   1     -54.711-100.018 -37.796  0.00  0.00    -0.265 OA
ATOM     12  C   UNL d   1     -54.712-102.831 -38.769  0.00  0.00     0.082 A 
ENDROOT
BRANCH   8  13
ATOM     13  C   UNL d   1     -54.711-102.053 -39.975  0.00  0.00     0.080 C 
BRANCH  13  14
ATOM     14  C   UNL d   1     -54.756-102.749 -40.420  0.00  0.00     0.019 C 
ATOM     15  C   UNL d   1     -54.716-102.707 -41.243  0.00  0.00     0.002 C 
ENDBRANCH  13  14
ENDBRANCH   8  13
TORSDOF 2
ENDMDL
