MODEL 1
REMARK VINA RESULT:      -6.9      0.000      0.000
REMARK  2 active torsions:
REMARK  status: ('A' for Active; 'I' for Inactive)
REMARK    1  A    between atoms: C_7  and  C_5 
REMARK    2  A    between atoms: C_8  and  C_7 
ROOT
ATOM      1  C   UNL d   1     -47.850  11.625  22.908  0.00  0.00     0.046 C 
ENDROOT
BRANCH   1   2
ATOM      2  C   UNL d   1     -47.305  12.203  23.079  0.00  0.00     0.205 A 
ATOM      3  N   UNL d   1     -46.774  12.121  23.680  0.00  0.00    -0.120 NA
ATOM      4  N   UNL d   1     -46.308  12.805  23.698  0.00  0.00    -0.109 NA
ATOM      5  C   UNL d   1     -46.580  13.287  23.094  0.00  0.00     0.262 A 
ATOM      6  O   UNL d   1     -47.167  12.941  22.723  0.00  0.00    -0.260 OA
ATOM      7  S   UNL d   1     -46.271  14.049  22.898  0.00  0.00    -0.029 SA
ENDBRANCH   1   2
BRANCH   1   8
ATOM      8  C   UNL d   1     -48.681  11.802  22.953  0.00  0.00     0.004 A 
ATOM      9  C   UNL d   1     -49.095  11.791  23.667  0.00  0.00     0.000 A 
ATOM     10  C   UNL d   1     -49.900  11.965  23.698  0.00  0.00     0.000 A 
ATOM     11  C   UNL d   1     -50.284  12.151  22.991  0.00  0.00     0.000 A 
ATOM     12  C   UNL d   1     -49.889  12.167  22.270  0.00  0.00     0.000 A 
ATOM     13  C   UNL d   1     -49.050  11.982  22.264  0.00  0.00     0.000 A 
ENDBRANCH   1   8
TORSDOF 2
ENDMDL
MODEL 2
REMARK VINA RESULT:      -6.6      2.022      3.063
REMARK  2 active torsions:
REMARK  status: ('A' for Active; 'I' for Inactive)
REMARK    1  A    between atoms: C_7  and  C_5 
REMARK    2  A    between atoms: C_8  and  C_7 
ROOT
ATOM      1  C   UNL d   1     -48.421  12.354  22.203  0.00  0.00     0.046 C 
ENDROOT
BRANCH   1   2
ATOM      2  C   UNL d   1     -49.064  12.162  22.661  0.00  0.00     0.205 A 
ATOM      3  N   UNL d   1     -49.160  11.422  22.967  0.00  0.00    -0.120 NA
ATOM      4  N   UNL d   1     -49.866  11.420  23.401  0.00  0.00    -0.109 NA
ATOM      5  C   UNL d   1     -50.177  12.175  23.341  0.00  0.00     0.262 A 
ATOM      6  O   UNL d   1     -49.712  12.620  22.907  0.00  0.00    -0.260 OA
ATOM      7  S   UNL d   1     -50.898  12.438  23.695  0.00  0.00    -0.029 SA
ENDBRANCH   1   2
BRANCH   1   8
ATOM      8  C   UNL d   1     -47.773  12.787  22.545  0.00  0.00     0.004 A 
ATOM      9  C   UNL d   1     -47.194  12.421  23.006  0.00  0.00     0.000 A 
ATOM     10  C   UNL d   1     -46.571  12.852  23.332  0.00  0.00     0.000 A 
ATOM     11  C   UNL d   1     -46.542  13.664  23.185  0.00  0.00     0.000 A 
ATOM     12  C   UNL d   1     -47.109  14.046  22.728  0.00  0.00     0.000 A 
ATOM     13  C   UNL d   1     -47.749  13.575  22.399  0.00  0.00     0.000 A 
ENDBRANCH   1   8
TORSDOF 2
ENDMDL
MODEL 3
REMARK VINA RESULT:      -6.5      1.807      2.129
REMARK  2 active torsions:
REMARK  status: ('A' for Active; 'I' for Inactive)
REMARK    1  A    between atoms: C_7  and  C_5 
REMARK    2  A    between atoms: C_8  and  C_7 
ROOT
ATOM      1  C   UNL d   1     -47.342  13.971  22.269  0.00  0.00     0.046 C 
ENDROOT
BRANCH   1   2
ATOM      2  C   UNL d   1     -47.002  13.429  22.769  0.00  0.00     0.205 A 
ATOM      3  N   UNL d   1     -46.409  13.633  23.275  0.00  0.00    -0.120 NA
ATOM      4  N   UNL d   1     -46.195  12.953  23.698  0.00  0.00    -0.109 NA
ATOM      5  C   UNL d   1     -46.677  12.350  23.426  0.00  0.00     0.262 A 
ATOM      6  O   UNL d   1     -47.156  12.620  22.879  0.00  0.00    -0.260 OA
ATOM      7  S   UNL d   1     -46.661  11.550  23.697  0.00  0.00    -0.029 SA
ENDBRANCH   1   2
BRANCH   1   8
ATOM      8  C   UNL d   1     -48.153  14.201  22.384  0.00  0.00     0.004 A 
ATOM      9  C   UNL d   1     -48.375  14.769  22.941  0.00  0.00     0.000 A 
ATOM     10  C   UNL d   1     -49.165  14.983  23.043  0.00  0.00     0.000 A 
ATOM     11  C   UNL d   1     -49.731  14.611  22.571  0.00  0.00     0.000 A 
ATOM     12  C   UNL d   1     -49.530  14.044  22.011  0.00  0.00     0.000 A 
ATOM     13  C   UNL d   1     -48.700  13.838  21.923  0.00  0.00     0.000 A 
ENDBRANCH   1   8
TORSDOF 2
ENDMDL
MODEL 4
REMARK VINA RESULT:      -6.4      1.337      1.805
REMARK  2 active torsions:
REMARK  status: ('A' for Active; 'I' for Inactive)
REMARK    1  A    between atoms: C_7  and  C_5 
REMARK    2  A    between atoms: C_8  and  C_7 
ROOT
ATOM      1  C   UNL d   1     -49.205  11.803  21.976  0.00  0.00     0.046 C 
ENDROOT
BRANCH   1   2
ATOM      2  C   UNL d   1     -48.648  11.709  22.560  0.00  0.00     0.205 A 
ATOM      3  N   UNL d   1     -48.704  11.120  23.108  0.00  0.00    -0.120 NA
ATOM      4  N   UNL d   1     -48.051  11.185  23.613  0.00  0.00    -0.109 NA
ATOM      5  C   UNL d   1     -47.614  11.824  23.347  0.00  0.00     0.262 A 
ATOM      6  O   UNL d   1     -47.957  12.139  22.726  0.00  0.00    -0.260 OA
ATOM      7  S   UNL d   1     -46.895  12.104  23.692  0.00  0.00    -0.029 SA
ENDBRANCH   1   2
BRANCH   1   8
ATOM      8  C   UNL d   1     -49.790  12.417  22.047  0.00  0.00     0.004 A 
ATOM      9  C   UNL d   1     -50.415  12.370  22.584  0.00  0.00     0.000 A 
ATOM     10  C   UNL d   1     -50.975  12.972  22.643  0.00  0.00     0.000 A 
ATOM     11  C   UNL d   1     -50.894  13.628  22.148  0.00  0.00     0.000 A 
ATOM     12  C   UNL d   1     -50.278  13.694  21.607  0.00  0.00     0.000 A 
ATOM     13  C   UNL d   1     -49.706  13.053  21.564  0.00  0.00     0.000 A 
ENDBRANCH   1   8
TORSDOF 2
ENDMDL
MODEL 5
REMARK VINA RESULT:      -6.4      2.572      3.366
REMARK  2 active torsions:
REMARK  status: ('A' for Active; 'I' for Inactive)
REMARK    1  A    between atoms: C_7  and  C_5 
REMARK    2  A    between atoms: C_8  and  C_7 
ROOT
ATOM      1  C   UNL d   1     -48.438  13.928  22.145  0.00  0.00     0.046 C 
ENDROOT
BRANCH   1   2
ATOM      2  C   UNL d   1     -48.884  14.536  22.450  0.00  0.00     0.205 A 
ATOM      3  N   UNL d   1     -48.820  15.290  22.171  0.00  0.00    -0.120 NA
ATOM      4  N   UNL d   1     -49.347  15.761  22.602  0.00  0.00    -0.109 NA
ATOM      5  C   UNL d   1     -49.719  15.265  23.137  0.00  0.00     0.262 A 
ATOM      6  O   UNL d   1     -49.453  14.541  23.055  0.00  0.00    -0.260 OA
ATOM      7  S   UNL d   1     -50.306  15.500  23.697  0.00  0.00    -0.029 SA
ENDBRANCH   1   2
BRANCH   1   8
ATOM      8  C   UNL d   1     -47.776  13.628  22.586  0.00  0.00     0.004 A 
ATOM      9  C   UNL d   1     -47.070  14.050  22.664  0.00  0.00     0.000 A 
ATOM     10  C   UNL d   1     -46.436  13.749  23.094  0.00  0.00     0.000 A 
ATOM     11  C   UNL d   1     -46.524  13.008  23.448  0.00  0.00     0.000 A 
ATOM     12  C   UNL d   1     -47.218  12.572  23.383  0.00  0.00     0.000 A 
ATOM     13  C   UNL d   1     -47.866  12.908  22.929  0.00  0.00     0.000 A 
ENDBRANCH   1   8
TORSDOF 2
ENDMDL
