MODEL 1
REMARK VINA RESULT:      -2.3      0.000      0.000
REMARK  2 active torsions:
REMARK  status: ('A' for Active; 'I' for Inactive)
REMARK    1  A    between atoms: C_3  and  C_1 
REMARK       I    between atoms: N_6  and  C_3 
REMARK    2  A    between atoms: C_16  and  N_7 
ROOT
ATOM      1  C   UNL d   1     -41.646-121.472 -50.948  0.00  0.00     0.270 C 
ATOM      2  N   UNL d   1     -41.603-121.772 -51.718  0.00  0.00    -0.269 N 
ATOM      3  N   UNL d   1     -41.521-122.378 -53.244  0.00  0.00    -0.301 N 
ATOM      4  O   UNL d   1     -41.407-120.696 -50.797  0.00  0.00    -0.266 OA
ATOM      5  C   UNL d   1     -41.841-122.547 -51.864  0.00  0.00     0.102 A 
ATOM      6  C   UNL d   1     -41.325-121.304 -52.328  0.00  0.00     0.102 A 
ATOM      7  C   UNL d   1     -41.284-121.607 -53.094  0.00  0.00     0.100 A 
ATOM      8  C   UNL d   1     -41.801-122.853 -52.627  0.00  0.00     0.100 A 
ENDROOT
BRANCH   1   9
ATOM      9  C   UNL d   1     -41.926-121.948 -50.335  0.00  0.00     0.120 A 
ATOM     10  C   UNL d   1     -42.735-122.006 -50.188  0.00  0.00     0.305 A 
ATOM     11  O   UNL d   1     -43.019-122.487 -49.568  0.00  0.00    -0.273 OA
ATOM     12  O   UNL d   1     -43.266-121.584 -50.659  0.00  0.00    -0.259 OA
ATOM     13  C   UNL d   1     -42.482-122.909 -49.097  0.00  0.00     0.103 A 
ATOM     14  C   UNL d   1     -41.673-122.854 -49.239  0.00  0.00     0.023 A 
ATOM     15  C   UNL d   1     -42.763-123.385 -48.483  0.00  0.00     0.025 A 
ATOM     16  C   UNL d   1     -41.386-122.374 -49.859  0.00  0.00     0.012 A 
ATOM     17  C   UNL d   1     -41.141-123.276 -48.768  0.00  0.00     0.002 A 
ATOM     18  C   UNL d   1     -41.422-123.749 -48.158  0.00  0.00     0.000 A 
ATOM     19  C   UNL d   1     -42.232-123.804 -48.015  0.00  0.00     0.002 A 
ENDBRANCH   1   9
BRANCH   3  20
ATOM     20  C   UNL d   1     -41.482-122.687 -54.007  0.00  0.00     0.064 A 
ATOM     21  C   UNL d   1     -41.252-123.470 -54.131  0.00  0.00     0.018 A 
ATOM     22  C   UNL d   1     -41.214-123.776 -54.897  0.00  0.00     0.002 A 
ATOM     23  C   UNL d   1     -41.407-123.294 -55.538  0.00  0.00     0.000 A 
ATOM     24  C   UNL d   1     -41.638-122.509 -55.415  0.00  0.00     0.002 A 
ATOM     25  C   UNL d   1     -41.674-122.208 -54.649  0.00  0.00     0.018 A 
ENDBRANCH   3  20
TORSDOF 2
ENDMDL
MODEL 2
REMARK VINA RESULT:      -1.6      1.138      4.678
REMARK  2 active torsions:
REMARK  status: ('A' for Active; 'I' for Inactive)
REMARK    1  A    between atoms: C_3  and  C_1 
REMARK       I    between atoms: N_6  and  C_3 
REMARK    2  A    between atoms: C_16  and  N_7 
ROOT
ATOM      1  C   UNL d   1     -41.516-121.394 -51.888  0.00  0.00     0.270 C 
ATOM      2  N   UNL d   1     -41.733-121.794 -51.198  0.00  0.00    -0.269 N 
ATOM      3  N   UNL d   1     -42.169-122.598 -49.831  0.00  0.00    -0.301 N 
ATOM      4  O   UNL d   1     -41.123-120.669 -51.835  0.00  0.00    -0.266 OA
ATOM      5  C   UNL d   1     -42.124-122.517 -51.255  0.00  0.00     0.102 A 
ATOM      6  C   UNL d   1     -41.560-121.475 -50.465  0.00  0.00     0.102 A 
ATOM      7  C   UNL d   1     -41.779-121.877 -49.778  0.00  0.00     0.100 A 
ATOM      8  C   UNL d   1     -42.343-122.921 -50.572  0.00  0.00     0.100 A 
ENDROOT
BRANCH   1   9
ATOM      9  C   UNL d   1     -41.691-121.719 -52.626  0.00  0.00     0.120 A 
ATOM     10  C   UNL d   1     -42.235-121.352 -53.124  0.00  0.00     0.305 A 
ATOM     11  O   UNL d   1     -42.413-121.681 -53.871  0.00  0.00    -0.273 OA
ATOM     12  O   UNL d   1     -42.606-120.655 -52.882  0.00  0.00    -0.259 OA
ATOM     13  C   UNL d   1     -42.039-122.380 -54.112  0.00  0.00     0.103 A 
ATOM     14  C   UNL d   1     -41.494-122.751 -53.617  0.00  0.00     0.023 A 
ATOM     15  C   UNL d   1     -42.214-122.705 -54.850  0.00  0.00     0.025 A 
ATOM     16  C   UNL d   1     -41.314-122.425 -52.870  0.00  0.00     0.012 A 
ATOM     17  C   UNL d   1     -41.123-123.448 -53.860  0.00  0.00     0.002 A 
ATOM     18  C   UNL d   1     -41.299-123.770 -54.595  0.00  0.00     0.000 A 
ATOM     19  C   UNL d   1     -41.844-123.399 -55.090  0.00  0.00     0.002 A 
ENDBRANCH   1   9
BRANCH   3  20
ATOM     20  C   UNL d   1     -42.390-123.004 -49.150  0.00  0.00     0.064 A 
ATOM     21  C   UNL d   1     -43.125-123.378 -49.104  0.00  0.00     0.018 A 
ATOM     22  C   UNL d   1     -43.342-123.784 -48.419  0.00  0.00     0.002 A 
ATOM     23  C   UNL d   1     -42.821-123.815 -47.781  0.00  0.00     0.000 A 
ATOM     24  C   UNL d   1     -42.084-123.441 -47.825  0.00  0.00     0.002 A 
ATOM     25  C   UNL d   1     -41.872-123.036 -48.510  0.00  0.00     0.018 A 
ENDBRANCH   3  20
TORSDOF 2
ENDMDL
