MODEL 1
REMARK VINA RESULT:      68.9      0.000      0.000
REMARK  5 active torsions:
REMARK  status: ('A' for Active; 'I' for Inactive)
REMARK    1  A    between atoms: C_9  and  N_1 
REMARK    2  A    between atoms: S_8  and  C_2 
REMARK    3  A    between atoms: C_6  and  C_10 
REMARK       I    between atoms: N_7  and  C_6 
REMARK    4  A    between atoms: C_10  and  S_8 
REMARK    5  A    between atoms: C_13  and  C_9 
ROOT
ATOM      1  N   UNL d   1     -51.397  26.270  33.958  0.00  0.00    -0.303 N 
ATOM      2  C   UNL d   1     -51.100  26.727  35.176  0.00  0.00     0.049 A 
ATOM      3  C   UNL d   1     -51.678  26.340  34.714  0.00  0.00     0.087 A 
ATOM      4  C   UNL d   1     -50.463  26.887  34.673  0.00  0.00     0.024 A 
ATOM      5  C   UNL d   1     -50.647  26.604  33.920  0.00  0.00     0.065 A 
ATOM      6  C   UNL d   1     -49.742  27.254  34.812  0.00  0.00     0.002 A 
ATOM      7  C   UNL d   1     -50.109  26.689  33.306  0.00  0.00     0.018 A 
ATOM      8  C   UNL d   1     -49.200  27.340  34.195  0.00  0.00     0.000 A 
ATOM      9  C   UNL d   1     -49.384  27.058  33.442  0.00  0.00     0.002 A 
ENDROOT
BRANCH   2  10
ATOM     10  S   UNL d   1     -51.148  26.915  35.975  0.00  0.00    -0.080 SA
BRANCH  10  11
ATOM     11  C   UNL d   1     -51.607  26.450  36.488  0.00  0.00     0.097 C 
BRANCH  11  12
ATOM     12  C   UNL d   1     -51.430  26.402  37.289  0.00  0.00     0.272 C 
ATOM     13  N   UNL d   1     -51.922  25.992  37.811  0.00  0.00    -0.267 N 
ATOM     14  C   UNL d   1     -52.603  25.625  37.517  0.00  0.00     0.110 A 
ATOM     15  C   UNL d   1     -51.735  25.950  38.612  0.00  0.00     0.110 A 
ATOM     16  C   UNL d   1     -53.099  25.215  38.025  0.00  0.00     0.142 A 
ATOM     17  O   UNL d   1     -52.913  25.169  38.842  0.00  0.00    -0.300 OA
ATOM     18  C   UNL d   1     -52.233  25.536  39.132  0.00  0.00     0.142 A 
ATOM     19  O   UNL d   1     -50.755  26.767  37.570  0.00  0.00    -0.266 OA
ENDBRANCH  11  12
ENDBRANCH  10  11
ENDBRANCH   2  10
BRANCH   1  20
ATOM     20  C   UNL d   1     -51.806  25.914  33.318  0.00  0.00     0.080 C 
BRANCH  20  21
ATOM     21  C   UNL d   1     -51.950  25.106  33.316  0.00  0.00     0.018 A 
ATOM     22  C   UNL d   1     -51.326  24.566  33.321  0.00  0.00     0.002 A 
ATOM     23  C   UNL d   1     -51.475  23.756  33.319  0.00  0.00     0.000 A 
ATOM     24  C   UNL d   1     -52.243  23.477  33.311  0.00  0.00     0.000 A 
ATOM     25  C   UNL d   1     -52.883  24.017  33.306  0.00  0.00     0.000 A 
ATOM     26  C   UNL d   1     -52.727  24.830  33.308  0.00  0.00     0.002 A 
ENDBRANCH  20  21
ENDBRANCH   1  20
TORSDOF 5
ENDMDL
