MODEL 1
REMARK VINA RESULT:      -7.6      0.000      0.000
REMARK  3 active torsions:
REMARK  status: ('A' for Active; 'I' for Inactive)
REMARK    1  A    between atoms: C_6  and  C_1 
REMARK    2  A    between atoms: C_10  and  C_3 
REMARK    3  A    between atoms: C_8  and  N_4 
REMARK       I    between atoms: N_7  and  C_6 
ROOT
ATOM      1  C   UNL d   1     -48.417  13.638  22.435  0.00  0.00     0.095 A 
ATOM      2  N   UNL d   1     -47.560  14.679  22.903  0.00  0.00    -0.165 NA
ATOM      3  C   UNL d   1     -48.311  14.403  22.724  0.00  0.00     0.107 A 
ATOM      4  N   UNL d   1     -47.000  13.426  22.509  0.00  0.00    -0.228 N 
ATOM      5  C   UNL d   1     -47.758  13.156  22.330  0.00  0.00     0.107 A 
ENDROOT
BRANCH   1   6
ATOM      6  C   UNL d   1     -49.175  13.368  22.257  0.00  0.00     0.268 C 
ATOM      7  N   UNL d   1     -49.491  12.692  22.679  0.00  0.00    -0.272 N 
ATOM      8  C   UNL d   1     -50.276  12.405  22.502  0.00  0.00     0.083 A 
ATOM      9  C   UNL d   1     -49.022  12.303  23.278  0.00  0.00     0.083 A 
ATOM     10  C   UNL d   1     -50.590  11.732  22.921  0.00  0.00     0.019 A 
ATOM     11  C   UNL d   1     -50.119  11.349  23.517  0.00  0.00     0.003 A 
ATOM     12  C   UNL d   1     -49.337  11.631  23.698  0.00  0.00     0.019 A 
ATOM     13  O   UNL d   1     -49.623  13.736  21.688  0.00  0.00    -0.267 OA
ENDBRANCH   1   6
BRANCH   3  14
ATOM     14  C   UNL d   1     -48.967  14.895  22.833  0.00  0.00     0.023 A 
ATOM     15  C   UNL d   1     -49.309  15.266  22.180  0.00  0.00     0.022 A 
ATOM     16  C   UNL d   1     -49.963  15.756  22.293  0.00  0.00     0.099 A 
ATOM     17  N   UNL d   1     -50.270  15.873  23.051  0.00  0.00    -0.242 NA
ATOM     18  C   UNL d   1     -49.921  15.499  23.698  0.00  0.00     0.099 A 
ATOM     19  C   UNL d   1     -49.269  15.010  23.587  0.00  0.00     0.022 A 
ENDBRANCH   3  14
BRANCH   4  20
ATOM     20  C   UNL d   1     -46.244  13.109  22.474  0.00  0.00     0.083 A 
ATOM     21  C   UNL d   1     -45.998  12.575  23.042  0.00  0.00     0.019 A 
ATOM     22  C   UNL d   1     -45.241  12.258  23.007  0.00  0.00     0.002 A 
ATOM     23  C   UNL d   1     -44.725  12.478  22.398  0.00  0.00     0.000 A 
ATOM     24  C   UNL d   1     -44.977  13.019  21.823  0.00  0.00     0.002 A 
ATOM     25  C   UNL d   1     -45.739  13.337  21.860  0.00  0.00     0.019 A 
ENDBRANCH   4  20
TORSDOF 3
ENDMDL
MODEL 2
REMARK VINA RESULT:      -6.3      1.338      2.866
REMARK  3 active torsions:
REMARK  status: ('A' for Active; 'I' for Inactive)
REMARK    1  A    between atoms: C_6  and  C_1 
REMARK    2  A    between atoms: C_10  and  C_3 
REMARK    3  A    between atoms: C_8  and  N_4 
REMARK       I    between atoms: N_7  and  C_6 
ROOT
ATOM      1  C   UNL d   1     -48.205  12.615  23.120  0.00  0.00     0.095 A 
ATOM      2  N   UNL d   1     -48.322  11.268  22.664  0.00  0.00    -0.165 NA
ATOM      3  C   UNL d   1     -48.655  12.005  22.795  0.00  0.00     0.107 A 
ATOM      4  N   UNL d   1     -47.075  11.734  23.181  0.00  0.00    -0.228 N 
ATOM      5  C   UNL d   1     -47.418  12.473  23.310  0.00  0.00     0.107 A 
ENDROOT
BRANCH   1   6
ATOM      6  C   UNL d   1     -48.548  13.354  23.248  0.00  0.00     0.268 C 
ATOM      7  N   UNL d   1     -48.185  14.052  22.906  0.00  0.00    -0.272 N 
ATOM      8  C   UNL d   1     -48.532  14.821  23.034  0.00  0.00     0.083 A 
ATOM      9  C   UNL d   1     -47.475  13.979  22.436  0.00  0.00     0.083 A 
ATOM     10  C   UNL d   1     -48.172  15.515  22.693  0.00  0.00     0.019 A 
ATOM     11  C   UNL d   1     -47.465  15.436  22.226  0.00  0.00     0.003 A 
ATOM     12  C   UNL d   1     -47.115  14.672  22.095  0.00  0.00     0.019 A 
ATOM     13  O   UNL d   1     -49.223  13.426  23.695  0.00  0.00    -0.267 OA
ENDBRANCH   1   6
BRANCH   3  14
ATOM     14  C   UNL d   1     -49.448  12.139  22.601  0.00  0.00     0.023 A 
ATOM     15  C   UNL d   1     -49.650  12.322  21.822  0.00  0.00     0.022 A 
ATOM     16  C   UNL d   1     -50.441  12.455  21.633  0.00  0.00     0.099 A 
ATOM     17  N   UNL d   1     -51.024  12.404  22.216  0.00  0.00    -0.242 NA
ATOM     18  C   UNL d   1     -50.813  12.219  22.992  0.00  0.00     0.099 A 
ATOM     19  C   UNL d   1     -50.024  12.087  23.182  0.00  0.00     0.022 A 
ENDBRANCH   3  14
BRANCH   4  20
ATOM     20  C   UNL d   1     -46.333  11.405  23.300  0.00  0.00     0.083 A 
ATOM     21  C   UNL d   1     -45.661  11.846  23.144  0.00  0.00     0.019 A 
ATOM     22  C   UNL d   1     -44.918  11.516  23.264  0.00  0.00     0.002 A 
ATOM     23  C   UNL d   1     -44.846  10.740  23.541  0.00  0.00     0.000 A 
ATOM     24  C   UNL d   1     -45.528  10.295  23.698  0.00  0.00     0.002 A 
ATOM     25  C   UNL d   1     -46.275  10.629  23.577  0.00  0.00     0.019 A 
ENDBRANCH   4  20
TORSDOF 3
ENDMDL
MODEL 3
REMARK VINA RESULT:      -5.9      7.309      9.747
REMARK  3 active torsions:
REMARK  status: ('A' for Active; 'I' for Inactive)
REMARK    1  A    between atoms: C_6  and  C_1 
REMARK    2  A    between atoms: C_10  and  C_3 
REMARK    3  A    between atoms: C_8  and  N_4 
REMARK       I    between atoms: N_7  and  C_6 
ROOT
ATOM      1  C   UNL d   1     -39.427  14.599  19.727  0.00  0.00     0.095 A 
ATOM      2  N   UNL d   1     -40.466  14.269  18.807  0.00  0.00    -0.165 NA
ATOM      3  C   UNL d   1     -40.227  14.568  19.531  0.00  0.00     0.107 A 
ATOM      4  N   UNL d   1     -39.105  14.022  18.454  0.00  0.00    -0.228 N 
ATOM      5  C   UNL d   1     -38.873  14.324  19.185  0.00  0.00     0.107 A 
ENDROOT
BRANCH   1   6
ATOM      6  C   UNL d   1     -39.195  14.901  20.458  0.00  0.00     0.268 C 
ATOM      7  N   UNL d   1     -38.775  14.395  21.009  0.00  0.00    -0.272 N 
ATOM      8  C   UNL d   1     -38.530  14.700  21.768  0.00  0.00     0.083 A 
ATOM      9  C   UNL d   1     -38.600  13.586  20.800  0.00  0.00     0.083 A 
ATOM     10  C   UNL d   1     -38.112  14.197  22.316  0.00  0.00     0.019 A 
ATOM     11  C   UNL d   1     -37.941  13.392  22.103  0.00  0.00     0.003 A 
ATOM     12  C   UNL d   1     -38.183  13.083  21.348  0.00  0.00     0.019 A 
ATOM     13  O   UNL d   1     -39.360  15.671  20.660  0.00  0.00    -0.267 OA
ENDBRANCH   1   6
BRANCH   3  14
ATOM     14  C   UNL d   1     -40.792  14.842  20.070  0.00  0.00     0.023 A 
ATOM     15  C   UNL d   1     -41.207  14.300  20.534  0.00  0.00     0.022 A 
ATOM     16  C   UNL d   1     -41.769  14.578  21.069  0.00  0.00     0.099 A 
ATOM     17  N   UNL d   1     -41.915  15.388  21.140  0.00  0.00    -0.242 NA
ATOM     18  C   UNL d   1     -41.496  15.922  20.671  0.00  0.00     0.099 A 
ATOM     19  C   UNL d   1     -40.935  15.647  20.136  0.00  0.00     0.022 A 
ENDBRANCH   3  14
BRANCH   4  20
ATOM     20  C   UNL d   1     -38.718  13.710  17.801  0.00  0.00     0.083 A 
ATOM     21  C   UNL d   1     -38.680  12.900  17.696  0.00  0.00     0.019 A 
ATOM     22  C   UNL d   1     -38.293  12.589  17.042  0.00  0.00     0.002 A 
ATOM     23  C   UNL d   1     -37.940  13.093  16.488  0.00  0.00     0.000 A 
ATOM     24  C   UNL d   1     -37.979  13.914  16.596  0.00  0.00     0.002 A 
ATOM     25  C   UNL d   1     -38.370  14.225  17.256  0.00  0.00     0.019 A 
ENDBRANCH   4  20
TORSDOF 3
ENDMDL
MODEL 4
REMARK VINA RESULT:      -5.8      9.238     10.319
REMARK  3 active torsions:
REMARK  status: ('A' for Active; 'I' for Inactive)
REMARK    1  A    between atoms: C_6  and  C_1 
REMARK    2  A    between atoms: C_10  and  C_3 
REMARK    3  A    between atoms: C_8  and  N_4 
REMARK       I    between atoms: N_7  and  C_6 
ROOT
ATOM      1  C   UNL d   1     -39.103  14.670  18.701  0.00  0.00     0.095 A 
ATOM      2  N   UNL d   1     -40.216  15.106  19.479  0.00  0.00    -0.165 NA
ATOM      3  C   UNL d   1     -39.870  14.968  18.749  0.00  0.00     0.107 A 
ATOM      4  N   UNL d   1     -39.032  14.649  20.133  0.00  0.00    -0.228 N 
ATOM      5  C   UNL d   1     -38.691  14.513  19.395  0.00  0.00     0.107 A 
ENDROOT
BRANCH   1   6
ATOM      6  C   UNL d   1     -38.761  14.535  17.963  0.00  0.00     0.268 C 
ATOM      7  N   UNL d   1     -38.527  13.738  17.747  0.00  0.00    -0.272 N 
ATOM      8  C   UNL d   1     -38.172  13.588  16.985  0.00  0.00     0.083 A 
ATOM      9  C   UNL d   1     -38.648  13.093  18.294  0.00  0.00     0.083 A 
ATOM     10  C   UNL d   1     -37.940  12.796  16.770  0.00  0.00     0.019 A 
ATOM     11  C   UNL d   1     -38.063  12.157  17.319  0.00  0.00     0.003 A 
ATOM     12  C   UNL d   1     -38.416  12.301  18.079  0.00  0.00     0.019 A 
ATOM     13  O   UNL d   1     -38.644  15.146  17.440  0.00  0.00    -0.267 OA
ENDBRANCH   1   6
BRANCH   3  14
ATOM     14  C   UNL d   1     -40.292  15.130  18.056  0.00  0.00     0.023 A 
ATOM     15  C   UNL d   1     -40.934  14.654  17.852  0.00  0.00     0.022 A 
ATOM     16  C   UNL d   1     -41.352  14.819  17.161  0.00  0.00     0.099 A 
ATOM     17  N   UNL d   1     -41.130  15.452  16.679  0.00  0.00    -0.242 NA
ATOM     18  C   UNL d   1     -40.486  15.922  16.891  0.00  0.00     0.099 A 
ATOM     19  C   UNL d   1     -40.068  15.760  17.580  0.00  0.00     0.022 A 
ENDBRANCH   3  14
BRANCH   4  20
ATOM     20  C   UNL d   1     -38.794  14.559  20.913  0.00  0.00     0.083 A 
ATOM     21  C   UNL d   1     -39.104  13.955  21.369  0.00  0.00     0.019 A 
ATOM     22  C   UNL d   1     -38.865  13.867  22.149  0.00  0.00     0.002 A 
ATOM     23  C   UNL d   1     -38.309  14.385  22.477  0.00  0.00     0.000 A 
ATOM     24  C   UNL d   1     -37.996  14.997  22.013  0.00  0.00     0.002 A 
ATOM     25  C   UNL d   1     -38.238  15.085  21.227  0.00  0.00     0.019 A 
ENDBRANCH   4  20
TORSDOF 3
ENDMDL
MODEL 5
REMARK VINA RESULT:      -5.5      7.935     10.038
REMARK  3 active torsions:
REMARK  status: ('A' for Active; 'I' for Inactive)
REMARK    1  A    between atoms: C_6  and  C_1 
REMARK    2  A    between atoms: C_10  and  C_3 
REMARK    3  A    between atoms: C_8  and  N_4 
REMARK       I    between atoms: N_7  and  C_6 
ROOT
ATOM      1  C   UNL d   1     -38.791  14.438  20.548  0.00  0.00     0.095 A 
ATOM      2  N   UNL d   1     -38.033  13.231  20.614  0.00  0.00    -0.165 NA
ATOM      3  C   UNL d   1     -38.415  13.852  20.989  0.00  0.00     0.107 A 
ATOM      4  N   UNL d   1     -38.396  13.769  19.343  0.00  0.00    -0.228 N 
ATOM      5  C   UNL d   1     -38.778  14.390  19.727  0.00  0.00     0.107 A 
ENDROOT
BRANCH   1   6
ATOM      6  C   UNL d   1     -39.173  15.059  20.932  0.00  0.00     0.268 C 
ATOM      7  N   UNL d   1     -40.017  15.169  20.821  0.00  0.00    -0.272 N 
ATOM      8  C   UNL d   1     -40.421  15.810  21.215  0.00  0.00     0.083 A 
ATOM      9  C   UNL d   1     -40.454  14.638  20.316  0.00  0.00     0.083 A 
ATOM     10  C   UNL d   1     -41.259  15.919  21.104  0.00  0.00     0.019 A 
ATOM     11  C   UNL d   1     -41.690  15.387  20.600  0.00  0.00     0.003 A 
ATOM     12  C   UNL d   1     -41.293  14.747  20.205  0.00  0.00     0.019 A 
ATOM     13  O   UNL d   1     -38.759  15.567  21.414  0.00  0.00    -0.267 OA
ENDBRANCH   1   6
BRANCH   3  14
ATOM     14  C   UNL d   1     -38.423  13.892  21.816  0.00  0.00     0.023 A 
ATOM     15  C   UNL d   1     -38.917  13.387  22.242  0.00  0.00     0.022 A 
ATOM     16  C   UNL d   1     -38.922  13.430  23.065  0.00  0.00     0.099 A 
ATOM     17  N   UNL d   1     -38.437  13.971  23.458  0.00  0.00    -0.242 NA
ATOM     18  C   UNL d   1     -37.946  14.472  23.023  0.00  0.00     0.099 A 
ATOM     19  C   UNL d   1     -37.940  14.431  22.202  0.00  0.00     0.022 A 
ENDBRANCH   3  14
BRANCH   4  20
ATOM     20  C   UNL d   1     -38.276  13.552  18.561  0.00  0.00     0.083 A 
ATOM     21  C   UNL d   1     -38.163  14.126  17.989  0.00  0.00     0.019 A 
ATOM     22  C   UNL d   1     -38.042  13.907  17.207  0.00  0.00     0.002 A 
ATOM     23  C   UNL d   1     -38.035  13.108  16.993  0.00  0.00     0.000 A 
ATOM     24  C   UNL d   1     -38.149  12.527  17.574  0.00  0.00     0.002 A 
ATOM     25  C   UNL d   1     -38.270  12.749  18.362  0.00  0.00     0.019 A 
ENDBRANCH   4  20
TORSDOF 3
ENDMDL
MODEL 6
REMARK VINA RESULT:      -5.2      0.805      2.553
REMARK  3 active torsions:
REMARK  status: ('A' for Active; 'I' for Inactive)
REMARK    1  A    between atoms: C_6  and  C_1 
REMARK    2  A    between atoms: C_10  and  C_3 
REMARK    3  A    between atoms: C_8  and  N_4 
REMARK       I    between atoms: N_7  and  C_6 
ROOT
ATOM      1  C   UNL d   1     -48.443  13.081  22.274  0.00  0.00     0.095 A 
ATOM      2  N   UNL d   1     -48.040  11.887  22.943  0.00  0.00    -0.165 NA
ATOM      3  C   UNL d   1     -48.633  12.385  22.672  0.00  0.00     0.107 A 
ATOM      4  N   UNL d   1     -47.050  12.773  22.420  0.00  0.00    -0.228 N 
ATOM      5  C   UNL d   1     -47.652  13.269  22.152  0.00  0.00     0.107 A 
ENDROOT
BRANCH   1   6
ATOM      6  C   UNL d   1     -49.044  13.577  22.005  0.00  0.00     0.268 C 
ATOM      7  N   UNL d   1     -49.127  14.361  22.344  0.00  0.00    -0.272 N 
ATOM      8  C   UNL d   1     -49.747  14.881  22.072  0.00  0.00     0.083 A 
ATOM      9  C   UNL d   1     -48.590  14.623  22.954  0.00  0.00     0.083 A 
ATOM     10  C   UNL d   1     -49.830  15.661  22.409  0.00  0.00     0.019 A 
ATOM     11  C   UNL d   1     -49.292  15.916  23.016  0.00  0.00     0.003 A 
ATOM     12  C   UNL d   1     -48.673  15.402  23.291  0.00  0.00     0.019 A 
ATOM     13  O   UNL d   1     -49.557  13.330  21.425  0.00  0.00    -0.267 OA
ENDBRANCH   1   6
BRANCH   3  14
ATOM     14  C   UNL d   1     -49.426  12.188  22.800  0.00  0.00     0.023 A 
ATOM     15  C   UNL d   1     -49.705  12.109  23.572  0.00  0.00     0.022 A 
ATOM     16  C   UNL d   1     -50.496  11.913  23.694  0.00  0.00     0.099 A 
ATOM     17  N   UNL d   1     -51.002  11.796  23.052  0.00  0.00    -0.242 NA
ATOM     18  C   UNL d   1     -50.713  11.877  22.283  0.00  0.00     0.099 A 
ATOM     19  C   UNL d   1     -49.925  12.073  22.159  0.00  0.00     0.022 A 
ENDBRANCH   3  14
BRANCH   4  20
ATOM     20  C   UNL d   1     -46.230  12.785  22.397  0.00  0.00     0.083 A 
ATOM     21  C   UNL d   1     -45.801  12.230  22.820  0.00  0.00     0.019 A 
ATOM     22  C   UNL d   1     -44.980  12.243  22.796  0.00  0.00     0.002 A 
ATOM     23  C   UNL d   1     -44.584  12.813  22.347  0.00  0.00     0.000 A 
ATOM     24  C   UNL d   1     -45.021  13.374  21.919  0.00  0.00     0.002 A 
ATOM     25  C   UNL d   1     -45.847  13.361  21.944  0.00  0.00     0.019 A 
ENDBRANCH   4  20
TORSDOF 3
ENDMDL
