MODEL 1
REMARK VINA RESULT:      -2.4      0.000      0.000
REMARK  3 active torsions:
REMARK  status: ('A' for Active; 'I' for Inactive)
REMARK    1  A    between atoms: N_3  and  C_1 
REMARK    2  A    between atoms: C_5  and  C_2 
REMARK       I    between atoms: C_4  and  N_3 
REMARK    3  A    between atoms: C_10  and  C_4 
ROOT
ATOM      1  N   UNL d   1      30.468  16.621 -24.103  0.00  0.00    -0.201 NA
ATOM      2  C   UNL d   1      31.208  16.893 -24.349  0.00  0.00     0.280 C 
ATOM      3  O   UNL d   1      31.267  17.560 -24.829  0.00  0.00    -0.265 OA
ENDROOT
BRANCH   1   4
ATOM      4  C   UNL d   1      29.787  17.020 -24.341  0.00  0.00     0.119 A 
ATOM      5  C   UNL d   1      29.008  16.797 -24.170  0.00  0.00     0.084 A 
ATOM      6  C   UNL d   1      28.498  17.357 -24.519  0.00  0.00     0.014 A 
ATOM      7  C   UNL d   1      28.968  17.920 -24.902  0.00  0.00     0.037 A 
ATOM      8  S   UNL d   1      29.759  17.708 -24.790  0.00  0.00    -0.067 SA
BRANCH   5   9
ATOM      9  C   UNL d   1      28.771  16.139 -23.733  0.00  0.00     0.299 C 
ATOM     10  O   UNL d   1      28.794  16.168 -22.903  0.00  0.00    -0.264 OA
ATOM     11  N   UNL d   1      28.511  15.454 -24.117  0.00  0.00    -0.102 N 
ENDBRANCH   5   9
ENDBRANCH   1   4
BRANCH   2  12
ATOM     12  C   UNL d   1      31.885  16.492 -24.109  0.00  0.00     0.058 A 
ATOM     13  C   UNL d   1      32.281  16.734 -23.429  0.00  0.00     0.005 A 
ATOM     14  C   UNL d   1      32.963  16.325 -23.192  0.00  0.00     0.000 A 
ATOM     15  C   UNL d   1      33.240  15.687 -23.632  0.00  0.00     0.000 A 
ATOM     16  C   UNL d   1      32.837  15.454 -24.311  0.00  0.00     0.000 A 
ATOM     17  C   UNL d   1      32.156  15.856 -24.554  0.00  0.00     0.005 A 
ENDBRANCH   2  12
TORSDOF 3
ENDMDL
MODEL 2
REMARK VINA RESULT:      -2.1      3.591      4.801
REMARK  3 active torsions:
REMARK  status: ('A' for Active; 'I' for Inactive)
REMARK    1  A    between atoms: N_3  and  C_1 
REMARK    2  A    between atoms: C_5  and  C_2 
REMARK       I    between atoms: C_4  and  N_3 
REMARK    3  A    between atoms: C_10  and  C_4 
ROOT
ATOM      1  N   UNL d   1      32.799  19.344 -22.948  0.00  0.00    -0.201 NA
ATOM      2  C   UNL d   1      32.972  19.605 -22.184  0.00  0.00     0.280 C 
ATOM      3  O   UNL d   1      33.241  19.074 -21.615  0.00  0.00    -0.265 OA
ENDROOT
BRANCH   1   4
ATOM      4  C   UNL d   1      32.896  18.548 -23.140  0.00  0.00     0.119 A 
ATOM      5  C   UNL d   1      32.665  18.186 -23.848  0.00  0.00     0.084 A 
ATOM      6  C   UNL d   1      32.870  17.379 -23.803  0.00  0.00     0.014 A 
ATOM      7  C   UNL d   1      33.225  17.252 -23.067  0.00  0.00     0.037 A 
ATOM      8  S   UNL d   1      33.239  17.972 -22.663  0.00  0.00    -0.067 SA
BRANCH   5   9
ATOM      9  C   UNL d   1      32.297  18.553 -24.489  0.00  0.00     0.299 C 
ATOM     10  O   UNL d   1      32.753  18.994 -25.025  0.00  0.00    -0.264 OA
ATOM     11  N   UNL d   1      31.481  18.482 -24.598  0.00  0.00    -0.102 N 
ENDBRANCH   5   9
ENDBRANCH   1   4
BRANCH   2  12
ATOM     12  C   UNL d   1      32.873  20.400 -21.998  0.00  0.00     0.058 A 
ATOM     13  C   UNL d   1      33.241  20.974 -22.460  0.00  0.00     0.005 A 
ATOM     14  C   UNL d   1      33.137  21.774 -22.266  0.00  0.00     0.000 A 
ATOM     15  C   UNL d   1      32.674  21.991 -21.622  0.00  0.00     0.000 A 
ATOM     16  C   UNL d   1      32.311  21.408 -21.166  0.00  0.00     0.000 A 
ATOM     17  C   UNL d   1      32.409  20.609 -21.352  0.00  0.00     0.005 A 
ENDBRANCH   2  12
TORSDOF 3
ENDMDL
MODEL 3
REMARK VINA RESULT:      -2.0      3.955      4.812
REMARK  3 active torsions:
REMARK  status: ('A' for Active; 'I' for Inactive)
REMARK    1  A    between atoms: N_3  and  C_1 
REMARK    2  A    between atoms: C_5  and  C_2 
REMARK       I    between atoms: C_4  and  N_3 
REMARK    3  A    between atoms: C_10  and  C_4 
ROOT
ATOM      1  N   UNL d   1      32.691  19.948 -22.507  0.00  0.00    -0.201 NA
ATOM      2  C   UNL d   1      32.879  19.538 -23.199  0.00  0.00     0.280 C 
ATOM      3  O   UNL d   1      33.241  19.928 -23.827  0.00  0.00    -0.265 OA
ENDROOT
BRANCH   1   4
ATOM      4  C   UNL d   1      32.868  20.751 -22.448  0.00  0.00     0.119 A 
ATOM      5  C   UNL d   1      32.815  21.211 -21.761  0.00  0.00     0.084 A 
ATOM      6  C   UNL d   1      33.046  21.989 -21.955  0.00  0.00     0.014 A 
ATOM      7  C   UNL d   1      33.238  22.000 -22.759  0.00  0.00     0.037 A 
ATOM      8  S   UNL d   1      33.127  21.238 -23.057  0.00  0.00    -0.067 SA
BRANCH   5   9
ATOM      9  C   UNL d   1      32.578  20.953 -21.014  0.00  0.00     0.299 C 
ATOM     10  O   UNL d   1      31.769  20.917 -20.831  0.00  0.00    -0.264 OA
ATOM     11  N   UNL d   1      33.142  20.730 -20.451  0.00  0.00    -0.102 N 
ENDBRANCH   5   9
ENDBRANCH   1   4
BRANCH   2  12
ATOM     12  C   UNL d   1      32.701  18.737 -23.254  0.00  0.00     0.058 A 
ATOM     13  C   UNL d   1      33.236  18.181 -22.967  0.00  0.00     0.005 A 
ATOM     14  C   UNL d   1      33.050  17.375 -23.026  0.00  0.00     0.000 A 
ATOM     15  C   UNL d   1      32.341  17.134 -23.366  0.00  0.00     0.000 A 
ATOM     16  C   UNL d   1      31.812  17.698 -23.650  0.00  0.00     0.000 A 
ATOM     17  C   UNL d   1      31.990  18.504 -23.595  0.00  0.00     0.005 A 
ENDBRANCH   2  12
TORSDOF 3
ENDMDL
MODEL 4
REMARK VINA RESULT:      -2.0      1.533      2.013
REMARK  3 active torsions:
REMARK  status: ('A' for Active; 'I' for Inactive)
REMARK    1  A    between atoms: N_3  and  C_1 
REMARK    2  A    between atoms: C_5  and  C_2 
REMARK       I    between atoms: C_4  and  N_3 
REMARK    3  A    between atoms: C_10  and  C_4 
ROOT
ATOM      1  N   UNL d   1      30.618  17.255 -24.281  0.00  0.00    -0.201 NA
ATOM      2  C   UNL d   1      31.416  17.060 -24.201  0.00  0.00     0.280 C 
ATOM      3  O   UNL d   1      31.657  16.273 -24.240  0.00  0.00    -0.265 OA
ENDROOT
BRANCH   1   4
ATOM      4  C   UNL d   1      30.062  16.658 -24.400  0.00  0.00     0.119 A 
ATOM      5  C   UNL d   1      29.243  16.762 -24.468  0.00  0.00     0.084 A 
ATOM      6  C   UNL d   1      28.897  16.012 -24.583  0.00  0.00     0.014 A 
ATOM      7  C   UNL d   1      29.506  15.454 -24.586  0.00  0.00     0.037 A 
ATOM      8  S   UNL d   1      30.219  15.854 -24.473  0.00  0.00    -0.067 SA
BRANCH   5   9
ATOM      9  C   UNL d   1      28.835  17.478 -24.429  0.00  0.00     0.299 C 
ATOM     10  O   UNL d   1      28.807  17.971 -25.097  0.00  0.00    -0.264 OA
ATOM     11  N   UNL d   1      28.455  17.705 -23.730  0.00  0.00    -0.102 N 
ENDBRANCH   5   9
ENDBRANCH   1   4
BRANCH   2  12
ATOM     12  C   UNL d   1      31.968  17.658 -24.083  0.00  0.00     0.058 A 
ATOM     13  C   UNL d   1      32.259  18.075 -24.730  0.00  0.00     0.005 A 
ATOM     14  C   UNL d   1      32.815  18.678 -24.604  0.00  0.00     0.000 A 
ATOM     15  C   UNL d   1      33.072  18.856 -23.842  0.00  0.00     0.000 A 
ATOM     16  C   UNL d   1      32.773  18.432 -23.202  0.00  0.00     0.000 A 
ATOM     17  C   UNL d   1      32.219  17.830 -23.319  0.00  0.00     0.005 A 
ENDBRANCH   2  12
TORSDOF 3
ENDMDL
MODEL 5
REMARK VINA RESULT:      -1.0      5.619      6.314
REMARK  3 active torsions:
REMARK  status: ('A' for Active; 'I' for Inactive)
REMARK    1  A    between atoms: N_3  and  C_1 
REMARK    2  A    between atoms: C_5  and  C_2 
REMARK       I    between atoms: C_4  and  N_3 
REMARK    3  A    between atoms: C_10  and  C_4 
ROOT
ATOM      1  N   UNL d   1      32.902  21.588 -21.470  0.00  0.00    -0.201 NA
ATOM      2  C   UNL d   1      32.956  21.230 -22.212  0.00  0.00     0.280 C 
ATOM      3  O   UNL d   1      32.916  21.685 -22.897  0.00  0.00    -0.265 OA
ENDROOT
BRANCH   1   4
ATOM      4  C   UNL d   1      32.807  22.406 -21.418  0.00  0.00     0.119 A 
ATOM      5  C   UNL d   1      32.633  22.832 -20.729  0.00  0.00     0.084 A 
ATOM      6  C   UNL d   1      32.587  23.640 -20.932  0.00  0.00     0.014 A 
ATOM      7  C   UNL d   1      32.733  23.702 -21.743  0.00  0.00     0.037 A 
ATOM      8  S   UNL d   1      32.868  22.943 -22.037  0.00  0.00    -0.067 SA
BRANCH   5   9
ATOM      9  C   UNL d   1      32.523  22.520 -19.973  0.00  0.00     0.299 C 
ATOM     10  O   UNL d   1      31.768  22.266 -19.741  0.00  0.00    -0.264 OA
ATOM     11  N   UNL d   1      33.161  22.460 -19.450  0.00  0.00    -0.102 N 
ENDBRANCH   5   9
ENDBRANCH   1   4
BRANCH   2  12
ATOM     12  C   UNL d   1      33.051  20.415 -22.260  0.00  0.00     0.058 A 
ATOM     13  C   UNL d   1      33.128  19.973 -21.568  0.00  0.00     0.005 A 
ATOM     14  C   UNL d   1      33.223  19.151 -21.624  0.00  0.00     0.000 A 
ATOM     15  C   UNL d   1      33.241  18.782 -22.359  0.00  0.00     0.000 A 
ATOM     16  C   UNL d   1      33.163  19.233 -23.044  0.00  0.00     0.000 A 
ATOM     17  C   UNL d   1      33.068  20.052 -22.998  0.00  0.00     0.005 A 
ENDBRANCH   2  12
TORSDOF 3
ENDMDL
MODEL 6
REMARK VINA RESULT:      -0.2      5.496      6.586
REMARK  3 active torsions:
REMARK  status: ('A' for Active; 'I' for Inactive)
REMARK    1  A    between atoms: N_3  and  C_1 
REMARK    2  A    between atoms: C_5  and  C_2 
REMARK       I    between atoms: C_4  and  N_3 
REMARK    3  A    between atoms: C_10  and  C_4 
ROOT
ATOM      1  N   UNL d   1      32.993  21.301 -21.829  0.00  0.00    -0.201 NA
ATOM      2  C   UNL d   1      32.667  21.411 -21.078  0.00  0.00     0.280 C 
ATOM      3  O   UNL d   1      32.429  20.763 -20.630  0.00  0.00    -0.265 OA
ENDROOT
BRANCH   1   4
ATOM      4  C   UNL d   1      33.078  20.537 -22.129  0.00  0.00     0.119 A 
ATOM      5  C   UNL d   1      33.155  20.335 -22.928  0.00  0.00     0.084 A 
ATOM      6  C   UNL d   1      33.226  19.505 -22.977  0.00  0.00     0.014 A 
ATOM      7  C   UNL d   1      33.193  19.206 -22.207  0.00  0.00     0.037 A 
ATOM      8  S   UNL d   1      33.102  19.843 -21.690  0.00  0.00    -0.067 SA
BRANCH   5   9
ATOM      9  C   UNL d   1      33.160  20.855 -23.568  0.00  0.00     0.299 C 
ATOM     10  O   UNL d   1      33.234  21.671 -23.432  0.00  0.00    -0.264 OA
ATOM     11  N   UNL d   1      33.092  20.568 -24.341  0.00  0.00    -0.102 N 
ENDBRANCH   5   9
ENDBRANCH   1   4
BRANCH   2  12
ATOM     12  C   UNL d   1      32.584  22.174 -20.783  0.00  0.00     0.058 A 
ATOM     13  C   UNL d   1      32.133  22.724 -21.199  0.00  0.00     0.005 A 
ATOM     14  C   UNL d   1      32.053  23.492 -20.895  0.00  0.00     0.000 A 
ATOM     15  C   UNL d   1      32.420  23.702 -20.190  0.00  0.00     0.000 A 
ATOM     16  C   UNL d   1      32.870  23.144 -19.782  0.00  0.00     0.000 A 
ATOM     17  C   UNL d   1      32.954  22.377 -20.077  0.00  0.00     0.005 A 
ENDBRANCH   2  12
TORSDOF 3
ENDMDL
