MODEL 1
REMARK VINA RESULT:      -6.8      0.000      0.000
REMARK  4 active torsions:
REMARK  status: ('A' for Active; 'I' for Inactive)
REMARK    1  A    between atoms: N_7  and  C_1 
REMARK    2  A    between atoms: S_2  and  C_8 
REMARK    3  A    between atoms: C_10  and  S_2 
REMARK       I    between atoms: C_9  and  N_7 
REMARK    4  A    between atoms: C_8  and  C_9 
ROOT
ATOM      1  N   UNL d   1     -48.372  12.968  23.433  0.00  0.00    -0.182 NA
ATOM      2  C   UNL d   1     -47.594  13.208  23.317  0.00  0.00     0.293 C 
ATOM      3  O   UNL d   1     -47.425  13.902  22.901  0.00  0.00    -0.264 OA
ENDROOT
BRANCH   2   4
ATOM      4  C   UNL d   1     -46.970  12.768  23.608  0.00  0.00     0.161 C 
BRANCH   4   5
ATOM      5  S   UNL d   1     -46.254  12.735  23.168  0.00  0.00     0.215 S 
ATOM      6  O   UNL d   1     -46.579  12.139  22.681  0.00  0.00    -0.217 OA
ATOM      7  O   UNL d   1     -45.935  13.325  23.653  0.00  0.00    -0.217 OA
BRANCH   5   8
ATOM      8  C   UNL d   1     -45.546  12.700  22.732  0.00  0.00     0.088 A 
ATOM      9  C   UNL d   1     -45.031  12.066  22.835  0.00  0.00     0.012 A 
ATOM     10  C   UNL d   1     -44.335  12.033  22.405  0.00  0.00     0.012 A 
ATOM     11  C   UNL d   1     -44.152  12.634  21.872  0.00  0.00     0.058 A 
ATOM     12  C   UNL d   1     -44.659  13.264  21.766  0.00  0.00     0.012 A 
ATOM     13 CL   UNL d   1     -43.449  12.598  21.439  0.00  0.00    -0.082 Cl
ATOM     14  C   UNL d   1     -45.361  13.296  22.200  0.00  0.00     0.012 A 
ENDBRANCH   5   8
ENDBRANCH   4   5
ENDBRANCH   2   4
BRANCH   1  15
ATOM     15  C   UNL d   1     -48.968  13.402  23.146  0.00  0.00     0.197 A 
ATOM     16  N   UNL d   1     -49.273  14.103  23.499  0.00  0.00    -0.221 NA
ATOM     17  C   UNL d   1     -49.895  14.382  23.018  0.00  0.00     0.090 A 
ATOM     18  C   UNL d   1     -50.394  15.038  23.084  0.00  0.00     0.018 A 
ATOM     19  C   UNL d   1     -49.973  13.856  22.372  0.00  0.00     0.060 A 
ATOM     20  C   UNL d   1     -50.977  15.176  22.504  0.00  0.00     0.002 A 
ATOM     21  C   UNL d   1     -50.318  15.534  23.696  0.00  0.00     0.002 C 
ATOM     22  C   UNL d   1     -51.064  14.651  21.846  0.00  0.00     0.012 A 
ATOM     23  C   UNL d   1     -50.556  13.991  21.788  0.00  0.00     0.065 A 
ATOM     24 CL   UNL d   1     -50.629  13.472  21.156  0.00  0.00    -0.082 Cl
ATOM     25  S   UNL d   1     -49.394  13.251  22.460  0.00  0.00    -0.046 SA
ENDBRANCH   1  15
TORSDOF 4
ENDMDL
MODEL 2
REMARK VINA RESULT:      -6.7      0.770      1.396
REMARK  4 active torsions:
REMARK  status: ('A' for Active; 'I' for Inactive)
REMARK    1  A    between atoms: N_7  and  C_1 
REMARK    2  A    between atoms: S_2  and  C_8 
REMARK    3  A    between atoms: C_10  and  S_2 
REMARK       I    between atoms: C_9  and  N_7 
REMARK    4  A    between atoms: C_8  and  C_9 
ROOT
ATOM      1  N   UNL d   1     -48.301  12.908  23.408  0.00  0.00    -0.182 NA
ATOM      2  C   UNL d   1     -47.538  13.173  23.255  0.00  0.00     0.293 C 
ATOM      3  O   UNL d   1     -47.407  13.813  22.749  0.00  0.00    -0.264 OA
ENDROOT
BRANCH   2   4
ATOM      4  C   UNL d   1     -46.890  12.811  23.598  0.00  0.00     0.161 C 
BRANCH   4   5
ATOM      5  S   UNL d   1     -46.174  12.756  23.160  0.00  0.00     0.215 S 
ATOM      6  O   UNL d   1     -45.948  13.513  23.431  0.00  0.00    -0.217 OA
ATOM      7  O   UNL d   1     -46.401  12.006  22.893  0.00  0.00    -0.217 OA
BRANCH   5   8
ATOM      8  C   UNL d   1     -45.465  12.703  22.727  0.00  0.00     0.088 A 
ATOM      9  C   UNL d   1     -45.262  13.300  22.198  0.00  0.00     0.012 A 
ATOM     10  C   UNL d   1     -44.563  13.247  21.773  0.00  0.00     0.012 A 
ATOM     11  C   UNL d   1     -44.068  12.596  21.877  0.00  0.00     0.058 A 
ATOM     12  C   UNL d   1     -44.265  12.002  22.401  0.00  0.00     0.012 A 
ATOM     13 CL   UNL d   1     -43.364  12.545  21.447  0.00  0.00    -0.082 Cl
ATOM     14  C   UNL d   1     -44.969  12.058  22.828  0.00  0.00     0.012 A 
ENDBRANCH   5   8
ENDBRANCH   4   5
ENDBRANCH   2   4
BRANCH   1  15
ATOM     15  C   UNL d   1     -48.920  13.266  23.071  0.00  0.00     0.197 A 
ATOM     16  N   UNL d   1     -49.325  12.994  22.384  0.00  0.00    -0.221 NA
ATOM     17  C   UNL d   1     -49.940  13.534  22.218  0.00  0.00     0.090 A 
ATOM     18  C   UNL d   1     -50.511  13.555  21.621  0.00  0.00     0.018 A 
ATOM     19  C   UNL d   1     -49.914  14.136  22.800  0.00  0.00     0.060 A 
ATOM     20  C   UNL d   1     -51.064  14.179  21.599  0.00  0.00     0.002 A 
ATOM     21  C   UNL d   1     -50.533  12.985  21.074  0.00  0.00     0.002 C 
ATOM     22  C   UNL d   1     -51.048  14.792  22.181  0.00  0.00     0.012 A 
ATOM     23  C   UNL d   1     -50.466  14.762  22.780  0.00  0.00     0.065 A 
ATOM     24 CL   UNL d   1     -50.438  15.351  23.352  0.00  0.00    -0.082 Cl
ATOM     25  S   UNL d   1     -49.278  13.961  23.324  0.00  0.00    -0.046 SA
ENDBRANCH   1  15
TORSDOF 4
ENDMDL
MODEL 3
REMARK VINA RESULT:      -6.4      8.852      9.912
REMARK  4 active torsions:
REMARK  status: ('A' for Active; 'I' for Inactive)
REMARK    1  A    between atoms: N_7  and  C_1 
REMARK    2  A    between atoms: S_2  and  C_8 
REMARK    3  A    between atoms: C_10  and  S_2 
REMARK       I    between atoms: C_9  and  N_7 
REMARK    4  A    between atoms: C_8  and  C_9 
ROOT
ATOM      1  N   UNL d   1     -40.047  14.442  20.396  0.00  0.00    -0.182 NA
ATOM      2  C   UNL d   1     -39.726  14.770  19.714  0.00  0.00     0.293 C 
ATOM      3  O   UNL d   1     -38.968  15.100  19.720  0.00  0.00    -0.264 OA
ENDROOT
BRANCH   2   4
ATOM      4  C   UNL d   1     -40.147  14.779  19.013  0.00  0.00     0.161 C 
BRANCH   4   5
ATOM      5  S   UNL d   1     -39.752  14.582  18.297  0.00  0.00     0.215 S 
ATOM      6  O   UNL d   1     -39.450  15.360  18.248  0.00  0.00    -0.217 OA
ATOM      7  O   UNL d   1     -40.053  13.813  18.350  0.00  0.00    -0.217 OA
BRANCH   5   8
ATOM      8  C   UNL d   1     -39.361  14.389  17.589  0.00  0.00     0.088 A 
ATOM      9  C   UNL d   1     -39.012  13.648  17.501  0.00  0.00     0.012 A 
ATOM     10  C   UNL d   1     -38.627  13.459  16.803  0.00  0.00     0.012 A 
ATOM     11  C   UNL d   1     -38.591  14.011  16.192  0.00  0.00     0.058 A 
ATOM     12  C   UNL d   1     -38.935  14.746  16.274  0.00  0.00     0.012 A 
ATOM     13 CL   UNL d   1     -38.202  13.817  15.489  0.00  0.00    -0.082 Cl
ATOM     14  C   UNL d   1     -39.322  14.935  16.978  0.00  0.00     0.012 A 
ENDBRANCH   5   8
ENDBRANCH   4   5
ENDBRANCH   2   4
BRANCH   1  15
ATOM     15  C   UNL d   1     -39.630  14.439  21.069  0.00  0.00     0.197 A 
ATOM     16  N   UNL d   1     -39.133  13.812  21.330  0.00  0.00    -0.221 NA
ATOM     17  C   UNL d   1     -38.800  14.037  22.062  0.00  0.00     0.090 A 
ATOM     18  C   UNL d   1     -38.278  13.651  22.574  0.00  0.00     0.018 A 
ATOM     19  C   UNL d   1     -39.092  14.799  22.251  0.00  0.00     0.060 A 
ATOM     20  C   UNL d   1     -38.040  14.024  23.281  0.00  0.00     0.002 A 
ATOM     21  C   UNL d   1     -38.005  12.931  22.392  0.00  0.00     0.002 C 
ATOM     22  C   UNL d   1     -38.328  14.794  23.482  0.00  0.00     0.012 A 
ATOM     23  C   UNL d   1     -38.855  15.175  22.959  0.00  0.00     0.065 A 
ATOM     24 CL   UNL d   1     -39.143  15.922  23.140  0.00  0.00    -0.082 Cl
ATOM     25  S   UNL d   1     -39.605  15.040  21.629  0.00  0.00    -0.046 SA
ENDBRANCH   1  15
TORSDOF 4
ENDMDL
MODEL 4
REMARK VINA RESULT:      -4.6      1.448      5.258
REMARK  4 active torsions:
REMARK  status: ('A' for Active; 'I' for Inactive)
REMARK    1  A    between atoms: N_7  and  C_1 
REMARK    2  A    between atoms: S_2  and  C_8 
REMARK    3  A    between atoms: C_10  and  S_2 
REMARK       I    between atoms: C_9  and  N_7 
REMARK    4  A    between atoms: C_8  and  C_9 
ROOT
ATOM      1  N   UNL d   1     -46.304  13.433  22.204  0.00  0.00    -0.182 NA
ATOM      2  C   UNL d   1     -46.518  14.007  22.754  0.00  0.00     0.293 C 
ATOM      3  O   UNL d   1     -46.211  13.992  23.521  0.00  0.00    -0.264 OA
ENDROOT
BRANCH   2   4
ATOM      4  C   UNL d   1     -47.038  14.605  22.556  0.00  0.00     0.161 C 
BRANCH   4   5
ATOM      5  S   UNL d   1     -47.856  14.509  22.727  0.00  0.00     0.215 S 
ATOM      6  O   UNL d   1     -48.019  14.429  21.911  0.00  0.00    -0.217 OA
ATOM      7  O   UNL d   1     -47.691  14.588  23.534  0.00  0.00    -0.217 OA
BRANCH   5   8
ATOM      8  C   UNL d   1     -48.666  14.413  22.894  0.00  0.00     0.088 A 
ATOM      9  C   UNL d   1     -49.159  15.071  22.929  0.00  0.00     0.012 A 
ATOM     10  C   UNL d   1     -49.955  14.975  23.094  0.00  0.00     0.012 A 
ATOM     11  C   UNL d   1     -50.260  14.221  23.225  0.00  0.00     0.058 A 
ATOM     12  C   UNL d   1     -49.775  13.565  23.192  0.00  0.00     0.012 A 
ATOM     13 CL   UNL d   1     -51.064  14.127  23.391  0.00  0.00    -0.082 Cl
ATOM     14  C   UNL d   1     -48.972  13.664  23.025  0.00  0.00     0.012 A 
ENDBRANCH   5   8
ENDBRANCH   4   5
ENDBRANCH   2   4
BRANCH   1  15
ATOM     15  C   UNL d   1     -45.800  12.859  22.408  0.00  0.00     0.197 A 
ATOM     16  N   UNL d   1     -45.997  12.175  22.857  0.00  0.00    -0.221 NA
ATOM     17  C   UNL d   1     -45.304  11.717  22.944  0.00  0.00     0.090 A 
ATOM     18  C   UNL d   1     -45.161  10.998  23.326  0.00  0.00     0.018 A 
ATOM     19  C   UNL d   1     -44.684  12.117  22.549  0.00  0.00     0.060 A 
ATOM     20  C   UNL d   1     -44.394  10.669  23.317  0.00  0.00     0.002 A 
ATOM     21  C   UNL d   1     -45.750  10.623  23.698  0.00  0.00     0.002 C 
ATOM     22  C   UNL d   1     -43.760  11.065  22.922  0.00  0.00     0.012 A 
ATOM     23  C   UNL d   1     -43.914  11.791  22.539  0.00  0.00     0.065 A 
ATOM     24 CL   UNL d   1     -43.308  12.186  22.151  0.00  0.00    -0.082 Cl
ATOM     25  S   UNL d   1     -45.001  12.824  22.220  0.00  0.00    -0.046 SA
ENDBRANCH   1  15
TORSDOF 4
ENDMDL
