MODEL 1
REMARK VINA RESULT:      -4.7      0.000      0.000
REMARK  3 active torsions:
REMARK  status: ('A' for Active; 'I' for Inactive)
REMARK    1  A    between atoms: C_6  and  C_1 
REMARK    2  A    between atoms: C_7  and  C_6 
REMARK    3  A    between atoms: O_17  and  C_15 
ROOT
ATOM      1  C   UNL d   1     -41.190-122.687 -50.997  0.00  0.00     0.141 A 
ATOM      2  C   UNL d   1     -41.159-122.395 -52.298  0.00  0.00     0.064 A 
ATOM      3  C   UNL d   1     -41.157-122.070 -51.543  0.00  0.00     0.220 A 
ATOM      4  C   UNL d   1     -41.194-123.217 -52.224  0.00  0.00     0.105 A 
ATOM      5  O   UNL d   1     -41.213-123.403 -51.414  0.00  0.00    -0.304 OA
ATOM      6  C   UNL d   1     -41.204-123.688 -52.893  0.00  0.00     0.049 A 
ATOM      7  C   UNL d   1     -41.135-122.048 -53.046  0.00  0.00     0.007 A 
ATOM      8  O   UNL d   1     -41.126-121.262 -51.357  0.00  0.00    -0.284 OA
ATOM      9  C   UNL d   1     -41.180-123.342 -53.641  0.00  0.00     0.096 A 
ATOM     10  C   UNL d   1     -41.145-122.524 -53.715  0.00  0.00     0.024 A 
ENDROOT
BRANCH   1  11
ATOM     11  C   UNL d   1     -41.198-122.612 -50.174  0.00  0.00     0.053 C 
BRANCH  11  12
ATOM     12  C   UNL d   1     -41.801-122.962 -49.724  0.00  0.00     0.102 A 
ATOM     13  O   UNL d   1     -42.605-122.788 -49.759  0.00  0.00    -0.305 OA
ATOM     14  C   UNL d   1     -42.998-123.269 -49.217  0.00  0.00     0.123 A 
ATOM     15  C   UNL d   1     -42.437-123.748 -48.839  0.00  0.00     0.029 A 
ATOM     16  C   UNL d   1     -41.694-123.561 -49.151  0.00  0.00     0.027 A 
ENDBRANCH  11  12
ENDBRANCH   1  11
BRANCH   9  17
ATOM     17  O   UNL d   1     -41.190-123.817 -54.315  0.00  0.00    -0.328 OA
ATOM     18  C   UNL d   1     -41.845-123.814 -54.813  0.00  0.00     0.181 C 
ENDBRANCH   9  17
TORSDOF 3
ENDMDL
MODEL 2
REMARK VINA RESULT:      -4.7      0.939      3.751
REMARK  3 active torsions:
REMARK  status: ('A' for Active; 'I' for Inactive)
REMARK    1  A    between atoms: C_6  and  C_1 
REMARK    2  A    between atoms: C_7  and  C_6 
REMARK    3  A    between atoms: O_17  and  C_15 
ROOT
ATOM      1  C   UNL d   1     -41.381-122.473 -52.433  0.00  0.00     0.141 A 
ATOM      2  C   UNL d   1     -41.686-122.298 -51.146  0.00  0.00     0.064 A 
ATOM      3  C   UNL d   1     -41.383-121.928 -51.814  0.00  0.00     0.220 A 
ATOM      4  C   UNL d   1     -41.873-123.077 -51.347  0.00  0.00     0.105 A 
ATOM      5  O   UNL d   1     -41.685-123.190 -52.149  0.00  0.00    -0.304 OA
ATOM      6  C   UNL d   1     -42.188-123.580 -50.784  0.00  0.00     0.049 A 
ATOM      7  C   UNL d   1     -41.815-122.026 -50.377  0.00  0.00     0.007 A 
ATOM      8  O   UNL d   1     -41.123-121.141 -51.864  0.00  0.00    -0.284 OA
ATOM      9  C   UNL d   1     -42.318-123.309 -50.015  0.00  0.00     0.096 A 
ATOM     10  C   UNL d   1     -42.131-122.534 -49.815  0.00  0.00     0.024 A 
ENDROOT
BRANCH   1  11
ATOM     11  C   UNL d   1     -41.123-122.336 -53.206  0.00  0.00     0.053 C 
BRANCH  11  12
ATOM     12  C   UNL d   1     -41.622-122.484 -53.850  0.00  0.00     0.102 A 
ATOM     13  O   UNL d   1     -42.246-122.013 -54.108  0.00  0.00    -0.305 OA
ATOM     14  C   UNL d   1     -42.589-122.373 -54.766  0.00  0.00     0.123 A 
ATOM     15  C   UNL d   1     -42.178-123.076 -54.922  0.00  0.00     0.029 A 
ATOM     16  C   UNL d   1     -41.578-123.148 -54.356  0.00  0.00     0.027 A 
ENDBRANCH  11  12
ENDBRANCH   1  11
BRANCH   9  17
ATOM     17  O   UNL d   1     -42.635-123.817 -49.448  0.00  0.00    -0.328 OA
ATOM     18  C   UNL d   1     -43.365-123.651 -49.107  0.00  0.00     0.181 C 
ENDBRANCH   9  17
TORSDOF 3
ENDMDL
MODEL 3
REMARK VINA RESULT:      -4.2      1.044      4.080
REMARK  3 active torsions:
REMARK  status: ('A' for Active; 'I' for Inactive)
REMARK    1  A    between atoms: C_6  and  C_1 
REMARK    2  A    between atoms: C_7  and  C_6 
REMARK    3  A    between atoms: O_17  and  C_15 
ROOT
ATOM      1  C   UNL d   1     -41.671-122.410 -50.842  0.00  0.00     0.141 A 
ATOM      2  C   UNL d   1     -42.299-122.667 -49.693  0.00  0.00     0.064 A 
ATOM      3  C   UNL d   1     -42.381-122.319 -50.433  0.00  0.00     0.220 A 
ATOM      4  C   UNL d   1     -41.535-122.975 -49.639  0.00  0.00     0.105 A 
ATOM      5  O   UNL d   1     -41.140-122.818 -50.353  0.00  0.00    -0.304 OA
ATOM      6  C   UNL d   1     -41.296-123.357 -48.955  0.00  0.00     0.049 A 
ATOM      7  C   UNL d   1     -42.822-122.742 -49.060  0.00  0.00     0.007 A 
ATOM      8  O   UNL d   1     -43.060-121.941 -50.726  0.00  0.00    -0.284 OA
ATOM      9  C   UNL d   1     -41.818-123.433 -48.321  0.00  0.00     0.096 A 
ATOM     10  C   UNL d   1     -42.579-123.125 -48.376  0.00  0.00     0.024 A 
ENDROOT
BRANCH   1  11
ATOM     11  C   UNL d   1     -41.509-122.144 -51.607  0.00  0.00     0.053 C 
BRANCH  11  12
ATOM     12  C   UNL d   1     -41.362-122.683 -52.220  0.00  0.00     0.102 A 
ATOM     13  O   UNL d   1     -41.265-123.498 -52.144  0.00  0.00    -0.305 OA
ATOM     14  C   UNL d   1     -41.130-123.813 -52.895  0.00  0.00     0.123 A 
ATOM     15  C   UNL d   1     -41.142-123.192 -53.445  0.00  0.00     0.029 A 
ATOM     16  C   UNL d   1     -41.286-122.490 -53.029  0.00  0.00     0.027 A 
ENDBRANCH  11  12
ENDBRANCH   1  11
BRANCH   9  17
ATOM     17  O   UNL d   1     -41.577-123.817 -47.633  0.00  0.00    -0.328 OA
ATOM     18  C   UNL d   1     -41.519-123.401 -46.926  0.00  0.00     0.181 C 
ENDBRANCH   9  17
TORSDOF 3
ENDMDL
MODEL 4
REMARK VINA RESULT:      -2.9      1.366      2.516
REMARK  3 active torsions:
REMARK  status: ('A' for Active; 'I' for Inactive)
REMARK    1  A    between atoms: C_6  and  C_1 
REMARK    2  A    between atoms: C_7  and  C_6 
REMARK    3  A    between atoms: O_17  and  C_15 
ROOT
ATOM      1  C   UNL d   1     -42.476-123.273 -49.164  0.00  0.00     0.141 A 
ATOM      2  C   UNL d   1     -42.658-122.596 -50.299  0.00  0.00     0.064 A 
ATOM      3  C   UNL d   1     -43.031-122.867 -49.619  0.00  0.00     0.220 A 
ATOM      4  C   UNL d   1     -41.867-122.834 -50.270  0.00  0.00     0.105 A 
ATOM      5  O   UNL d   1     -41.750-123.256 -49.564  0.00  0.00    -0.304 OA
ATOM      6  C   UNL d   1     -41.359-122.639 -50.881  0.00  0.00     0.049 A 
ATOM      7  C   UNL d   1     -42.936-122.163 -50.944  0.00  0.00     0.007 A 
ATOM      8  O   UNL d   1     -43.829-122.754 -49.419  0.00  0.00    -0.284 OA
ATOM      9  C   UNL d   1     -41.636-122.206 -51.526  0.00  0.00     0.096 A 
ATOM     10  C   UNL d   1     -42.422-121.970 -51.555  0.00  0.00     0.024 A 
ENDROOT
BRANCH   1  11
ATOM     11  C   UNL d   1     -42.613-123.637 -48.435  0.00  0.00     0.053 C 
BRANCH  11  12
ATOM     12  C   UNL d   1     -42.193-123.401 -47.760  0.00  0.00     0.102 A 
ATOM     13  O   UNL d   1     -42.323-122.721 -47.313  0.00  0.00    -0.305 OA
ATOM     14  C   UNL d   1     -41.778-122.710 -46.694  0.00  0.00     0.123 A 
ATOM     15  C   UNL d   1     -41.302-123.387 -46.754  0.00  0.00     0.029 A 
ATOM     16  C   UNL d   1     -41.557-123.817 -47.414  0.00  0.00     0.027 A 
ENDBRANCH  11  12
ENDBRANCH   1  11
BRANCH   9  17
ATOM     17  O   UNL d   1     -41.122-122.011 -52.141  0.00  0.00    -0.328 OA
ATOM     18  C   UNL d   1     -41.166-122.411 -52.859  0.00  0.00     0.181 C 
ENDBRANCH   9  17
TORSDOF 3
ENDMDL
