MODEL 1
REMARK VINA RESULT:      -2.7      0.000      0.000
REMARK  4 active torsions:
REMARK  status: ('A' for Active; 'I' for Inactive)
REMARK    1  A    between atoms: C_21  and  N_5 
REMARK    2  A    between atoms: C_11  and  C_6 
REMARK       I    between atoms: N_15  and  C_11 
REMARK    3  A    between atoms: C_23  and  N_15 
REMARK    4  A    between atoms: C_22  and  C_23 
ROOT
ATOM      1  C   UNL d   1      32.959  20.504 -22.961  0.00  0.00     0.155 A 
ATOM      2  C   UNL d   1      32.829  20.051 -22.278  0.00  0.00     0.091 A 
ATOM      3  N   UNL d   1      33.052  21.317 -22.898  0.00  0.00    -0.210 NA
ATOM      4  N   UNL d   1      32.889  21.237 -21.489  0.00  0.00    -0.258 N 
ATOM      5  N   UNL d   1      32.994  20.135 -23.693  0.00  0.00    -0.274 N 
ATOM      6  C   UNL d   1      32.770  18.865 -23.076  0.00  0.00     0.094 A 
ATOM      7  C   UNL d   1      33.018  21.685 -22.166  0.00  0.00     0.152 A 
ATOM      8  C   UNL d   1      32.793  20.414 -21.538  0.00  0.00     0.269 A 
ATOM      9  C   UNL d   1      32.899  19.313 -23.752  0.00  0.00     0.175 A 
ATOM     10  C   UNL d   1      32.735  19.233 -22.333  0.00  0.00     0.016 A 
ATOM     11  C   UNL d   1      33.111  22.501 -22.101  0.00  0.00     0.035 A 
ATOM     12  C   UNL d   1      32.852  21.599 -20.741  0.00  0.00     0.084 A 
ATOM     13  N   UNL d   1      32.936  18.952 -24.496  0.00  0.00    -0.128 N 
ATOM     14  O   UNL d   1      32.665  19.972 -20.857  0.00  0.00    -0.266 OA
ATOM     15  C   UNL d   1      32.947  22.419 -20.694  0.00  0.00     0.019 A 
ATOM     16  C   UNL d   1      33.076  22.868 -21.370  0.00  0.00     0.005 A 
ATOM     17  C   UNL d   1      33.241  22.953 -22.783  0.00  0.00     0.003 C 
ENDROOT
BRANCH   6  18
ATOM     18  C   UNL d   1      32.676  18.046 -23.131  0.00  0.00     0.282 C 
ATOM     19  N   UNL d   1      32.017  17.739 -23.522  0.00  0.00    -0.206 NA
ATOM     20  O   UNL d   1      33.233  17.542 -22.799  0.00  0.00    -0.265 OA
BRANCH  19  21
ATOM     21  C   UNL d   1      31.918  16.915 -23.580  0.00  0.00     0.104 C 
BRANCH  21  22
ATOM     22  C   UNL d   1      31.184  16.602 -23.800  0.00  0.00     0.038 A 
ATOM     23  C   UNL d   1      30.918  16.696 -24.575  0.00  0.00     0.101 A 
ATOM     24  N   UNL d   1      30.185  16.383 -24.793  0.00  0.00    -0.242 NA
ATOM     25  C   UNL d   1      29.721  15.981 -24.246  0.00  0.00     0.099 A 
ATOM     26  C   UNL d   1      29.993  15.889 -23.467  0.00  0.00     0.021 A 
ATOM     27  C   UNL d   1      30.724  16.201 -23.249  0.00  0.00     0.005 A 
ENDBRANCH  21  22
ENDBRANCH  19  21
ENDBRANCH   6  18
BRANCH   5  28
ATOM     28  C   UNL d   1      33.123  20.587 -24.375  0.00  0.00     0.083 C 
ATOM     29  C   UNL d   1      32.804  20.342 -25.097  0.00  0.00     0.021 C 
ENDBRANCH   5  28
TORSDOF 4
ENDMDL
MODEL 2
REMARK VINA RESULT:      -1.9      1.323      5.286
REMARK  4 active torsions:
REMARK  status: ('A' for Active; 'I' for Inactive)
REMARK    1  A    between atoms: C_21  and  N_5 
REMARK    2  A    between atoms: C_11  and  C_6 
REMARK       I    between atoms: N_15  and  C_11 
REMARK    3  A    between atoms: C_23  and  N_15 
REMARK    4  A    between atoms: C_22  and  C_23 
ROOT
ATOM      1  C   UNL d   1      31.166  17.335 -23.855  0.00  0.00     0.155 A 
ATOM      2  C   UNL d   1      30.961  18.099 -24.106  0.00  0.00     0.091 A 
ATOM      3  N   UNL d   1      30.647  16.713 -23.981  0.00  0.00    -0.210 NA
ATOM      4  N   UNL d   1      29.722  17.596 -24.600  0.00  0.00    -0.258 N 
ATOM      5  N   UNL d   1      31.887  17.208 -23.484  0.00  0.00    -0.274 N 
ATOM      6  C   UNL d   1      32.206  18.597 -23.607  0.00  0.00     0.094 A 
ATOM      7  C   UNL d   1      29.926  16.839 -24.352  0.00  0.00     0.152 A 
ATOM      8  C   UNL d   1      30.238  18.235 -24.479  0.00  0.00     0.269 A 
ATOM      9  C   UNL d   1      32.409  17.840 -23.359  0.00  0.00     0.175 A 
ATOM     10  C   UNL d   1      31.478  18.731 -23.982  0.00  0.00     0.016 A 
ATOM     11  C   UNL d   1      29.403  16.215 -24.479  0.00  0.00     0.035 A 
ATOM     12  C   UNL d   1      28.994  17.738 -24.977  0.00  0.00     0.084 A 
ATOM     13  N   UNL d   1      33.134  17.701 -22.984  0.00  0.00    -0.128 N 
ATOM     14  O   UNL d   1      30.028  18.989 -24.729  0.00  0.00    -0.266 OA
ATOM     15  C   UNL d   1      28.481  17.100 -25.097  0.00  0.00     0.019 A 
ATOM     16  C   UNL d   1      28.685  16.343 -24.849  0.00  0.00     0.005 A 
ATOM     17  C   UNL d   1      29.608  15.453 -24.230  0.00  0.00     0.003 C 
ENDROOT
BRANCH   6  18
ATOM     18  C   UNL d   1      32.723  19.229 -23.483  0.00  0.00     0.282 C 
ATOM     19  N   UNL d   1      32.718  19.622 -22.758  0.00  0.00    -0.206 NA
ATOM     20  O   UNL d   1      33.240  19.463 -24.079  0.00  0.00    -0.265 OA
BRANCH  19  21
ATOM     21  C   UNL d   1      33.239  20.259 -22.630  0.00  0.00     0.104 C 
BRANCH  21  22
ATOM     22  C   UNL d   1      33.166  20.720 -21.946  0.00  0.00     0.038 A 
ATOM     23  C   UNL d   1      33.106  21.540 -22.012  0.00  0.00     0.101 A 
ATOM     24  N   UNL d   1      33.033  21.998 -21.330  0.00  0.00    -0.242 NA
ATOM     25  C   UNL d   1      33.020  21.645 -20.587  0.00  0.00     0.099 A 
ATOM     26  C   UNL d   1      33.081  20.820 -20.525  0.00  0.00     0.021 A 
ATOM     27  C   UNL d   1      33.154  20.362 -21.206  0.00  0.00     0.005 A 
ENDBRANCH  21  22
ENDBRANCH  19  21
ENDBRANCH   6  18
BRANCH   5  28
ATOM     28  C   UNL d   1      32.092  16.446 -23.235  0.00  0.00     0.083 C 
ATOM     29  C   UNL d   1      32.768  16.082 -23.542  0.00  0.00     0.021 C 
ENDBRANCH   5  28
TORSDOF 4
ENDMDL
MODEL 3
REMARK VINA RESULT:      -1.1      1.731      5.365
REMARK  4 active torsions:
REMARK  status: ('A' for Active; 'I' for Inactive)
REMARK    1  A    between atoms: C_21  and  N_5 
REMARK    2  A    between atoms: C_11  and  C_6 
REMARK       I    between atoms: N_15  and  C_11 
REMARK    3  A    between atoms: C_23  and  N_15 
REMARK    4  A    between atoms: C_22  and  C_23 
ROOT
ATOM      1  C   UNL d   1      30.806  17.045 -23.939  0.00  0.00     0.155 A 
ATOM      2  C   UNL d   1      30.624  17.761 -24.317  0.00  0.00     0.091 A 
ATOM      3  N   UNL d   1      30.204  16.524 -23.743  0.00  0.00    -0.210 NA
ATOM      4  N   UNL d   1      29.242  17.415 -24.291  0.00  0.00    -0.258 N 
ATOM      5  N   UNL d   1      31.588  16.864 -23.765  0.00  0.00    -0.274 N 
ATOM      6  C   UNL d   1      32.014  18.102 -24.339  0.00  0.00     0.094 A 
ATOM      7  C   UNL d   1      29.423  16.705 -23.917  0.00  0.00     0.152 A 
ATOM      8  C   UNL d   1      29.842  17.951 -24.495  0.00  0.00     0.269 A 
ATOM      9  C   UNL d   1      32.194  17.393 -23.965  0.00  0.00     0.175 A 
ATOM     10  C   UNL d   1      31.226  18.290 -24.517  0.00  0.00     0.016 A 
ATOM     11  C   UNL d   1      28.817  16.183 -23.721  0.00  0.00     0.035 A 
ATOM     12  C   UNL d   1      28.454  17.610 -24.473  0.00  0.00     0.084 A 
ATOM     13  N   UNL d   1      32.979  17.200 -23.784  0.00  0.00    -0.128 N 
ATOM     14  O   UNL d   1      29.654  18.658 -24.869  0.00  0.00    -0.266 OA
ATOM     15  C   UNL d   1      27.858  17.075 -24.269  0.00  0.00     0.019 A 
ATOM     16  C   UNL d   1      28.038  16.365 -23.895  0.00  0.00     0.005 A 
ATOM     17  C   UNL d   1      28.998  15.468 -23.344  0.00  0.00     0.003 C 
ENDROOT
BRANCH   6  18
ATOM     18  C   UNL d   1      32.615  18.632 -24.539  0.00  0.00     0.282 C 
ATOM     19  N   UNL d   1      32.636  19.376 -24.183  0.00  0.00    -0.206 NA
ATOM     20  O   UNL d   1      33.189  18.418 -25.088  0.00  0.00    -0.265 OA
BRANCH  19  21
ATOM     21  C   UNL d   1      33.241  19.912 -24.383  0.00  0.00     0.104 C 
BRANCH  21  22
ATOM     22  C   UNL d   1      33.143  20.720 -24.228  0.00  0.00     0.038 A 
ATOM     23  C   UNL d   1      33.183  20.993 -23.451  0.00  0.00     0.101 A 
ATOM     24  N   UNL d   1      33.085  21.798 -23.298  0.00  0.00    -0.242 NA
ATOM     25  C   UNL d   1      32.949  22.328 -23.912  0.00  0.00     0.099 A 
ATOM     26  C   UNL d   1      32.910  22.049 -24.693  0.00  0.00     0.021 A 
ATOM     27  C   UNL d   1      33.008  21.245 -24.846  0.00  0.00     0.005 A 
ENDBRANCH  21  22
ENDBRANCH  19  21
ENDBRANCH   6  18
BRANCH   5  28
ATOM     28  C   UNL d   1      31.769  16.149 -23.388  0.00  0.00     0.083 C 
ATOM     29  C   UNL d   1      32.435  15.719 -23.623  0.00  0.00     0.021 C 
ENDBRANCH   5  28
TORSDOF 4
ENDMDL
MODEL 4
REMARK VINA RESULT:      -1.0      2.099      5.546
REMARK  4 active torsions:
REMARK  status: ('A' for Active; 'I' for Inactive)
REMARK    1  A    between atoms: C_21  and  N_5 
REMARK    2  A    between atoms: C_11  and  C_6 
REMARK       I    between atoms: N_15  and  C_11 
REMARK    3  A    between atoms: C_23  and  N_15 
REMARK    4  A    between atoms: C_22  and  C_23 
ROOT
ATOM      1  C   UNL d   1      33.097  21.188 -22.329  0.00  0.00     0.155 A 
ATOM      2  C   UNL d   1      33.157  20.958 -21.533  0.00  0.00     0.091 A 
ATOM      3  N   UNL d   1      33.063  20.616 -22.916  0.00  0.00    -0.210 NA
ATOM      4  N   UNL d   1      33.145  19.591 -21.935  0.00  0.00    -0.258 N 
ATOM      5  N   UNL d   1      33.074  21.985 -22.522  0.00  0.00    -0.274 N 
ATOM      6  C   UNL d   1      33.167  22.333 -21.138  0.00  0.00     0.094 A 
ATOM      7  C   UNL d   1      33.087  19.818 -22.723  0.00  0.00     0.152 A 
ATOM      8  C   UNL d   1      33.181  20.159 -21.331  0.00  0.00     0.269 A 
ATOM      9  C   UNL d   1      33.109  22.560 -21.925  0.00  0.00     0.175 A 
ATOM     10  C   UNL d   1      33.192  21.528 -20.937  0.00  0.00     0.016 A 
ATOM     11  C   UNL d   1      33.052  19.242 -23.311  0.00  0.00     0.035 A 
ATOM     12  C   UNL d   1      33.170  18.786 -21.726  0.00  0.00     0.084 A 
ATOM     13  N   UNL d   1      33.084  23.362 -22.132  0.00  0.00    -0.128 N 
ATOM     14  O   UNL d   1      33.239  19.924 -20.546  0.00  0.00    -0.266 OA
ATOM     15  C   UNL d   1      33.135  18.221 -22.329  0.00  0.00     0.019 A 
ATOM     16  C   UNL d   1      33.076  18.448 -23.117  0.00  0.00     0.005 A 
ATOM     17  C   UNL d   1      32.993  19.471 -24.104  0.00  0.00     0.003 C 
ENDROOT
BRANCH   6  18
ATOM     18  C   UNL d   1      33.202  22.904 -20.542  0.00  0.00     0.282 C 
ATOM     19  N   UNL d   1      33.205  22.666 -19.751  0.00  0.00    -0.206 NA
ATOM     20  O   UNL d   1      33.234  23.702 -20.734  0.00  0.00    -0.265 OA
BRANCH  19  21
ATOM     21  C   UNL d   1      33.240  23.238 -19.148  0.00  0.00     0.104 C 
BRANCH  21  22
ATOM     22  C   UNL d   1      33.105  23.016 -18.361  0.00  0.00     0.038 A 
ATOM     23  C   UNL d   1      33.025  22.218 -18.172  0.00  0.00     0.101 A 
ATOM     24  N   UNL d   1      32.891  21.998 -17.387  0.00  0.00    -0.242 NA
ATOM     25  C   UNL d   1      32.836  22.567 -16.796  0.00  0.00     0.099 A 
ATOM     26  C   UNL d   1      32.917  23.370 -16.991  0.00  0.00     0.021 A 
ATOM     27  C   UNL d   1      33.051  23.589 -17.774  0.00  0.00     0.005 A 
ENDBRANCH  21  22
ENDBRANCH  19  21
ENDBRANCH   6  18
BRANCH   5  28
ATOM     28  C   UNL d   1      33.015  22.214 -23.315  0.00  0.00     0.083 C 
ATOM     29  C   UNL d   1      33.099  23.011 -23.520  0.00  0.00     0.021 C 
ENDBRANCH   5  28
TORSDOF 4
ENDMDL
