MODEL 1
REMARK VINA RESULT:      -7.4      0.000      0.000
REMARK  4 active torsions:
REMARK  status: ('A' for Active; 'I' for Inactive)
REMARK    1  A    between atoms: C_6  and  C_1 
REMARK    2  A    between atoms: N_7  and  C_2 
REMARK    3  A    between atoms: C_8  and  C_5 
REMARK    4  A    between atoms: O_10  and  C_6 
ROOT
ATOM      1  C   UNL d   1     -47.246  13.303  23.014  0.00  0.00     0.186 A 
ATOM      2  C   UNL d   1     -47.769  12.679  23.246  0.00  0.00     0.193 A 
ATOM      3  N   UNL d   1     -47.683  13.975  22.900  0.00  0.00    -0.213 NA
ATOM      4  O   UNL d   1     -48.545  13.019  23.263  0.00  0.00    -0.271 OA
ATOM      5  C   UNL d   1     -48.442  13.824  23.041  0.00  0.00     0.184 A 
ENDROOT
BRANCH   5   6
ATOM      6  C   UNL d   1     -48.833  14.453  22.932  0.00  0.00     0.041 A 
ATOM      7  C   UNL d   1     -49.469  14.104  23.352  0.00  0.00     0.004 A 
ATOM      8  C   UNL d   1     -50.175  14.522  23.467  0.00  0.00     0.000 A 
ATOM      9  C   UNL d   1     -50.243  15.286  23.162  0.00  0.00     0.000 A 
ATOM     10  C   UNL d   1     -49.607  15.635  22.743  0.00  0.00     0.000 A 
ATOM     11  C   UNL d   1     -48.922  15.210  22.639  0.00  0.00     0.004 A 
ENDBRANCH   5   6
BRANCH   1  12
ATOM     12  C   UNL d   1     -46.575  13.080  22.981  0.00  0.00     0.317 C 
ATOM     13  O   UNL d   1     -45.956  12.814  23.553  0.00  0.00    -0.257 OA
BRANCH  12  14
ATOM     14  O   UNL d   1     -46.138  12.991  22.396  0.00  0.00    -0.294 OA
ATOM     15  C   UNL d   1     -45.365  13.324  22.231  0.00  0.00     0.185 C 
ENDBRANCH  12  14
ENDBRANCH   1  12
BRANCH   2  16
ATOM     16  N   UNL d   1     -47.448  12.117  23.348  0.00  0.00    -0.281 N 
ATOM     17  C   UNL d   1     -47.965  11.682  22.909  0.00  0.00     0.101 C 
ATOM     18  C   UNL d   1     -46.826  11.766  23.697  0.00  0.00     0.101 C 
ENDBRANCH   2  16
TORSDOF 4
ENDMDL
MODEL 2
REMARK VINA RESULT:      -7.1      1.321      1.942
REMARK  4 active torsions:
REMARK  status: ('A' for Active; 'I' for Inactive)
REMARK    1  A    between atoms: C_6  and  C_1 
REMARK    2  A    between atoms: N_7  and  C_2 
REMARK    3  A    between atoms: C_8  and  C_5 
REMARK    4  A    between atoms: O_10  and  C_6 
ROOT
ATOM      1  C   UNL d   1     -47.433  12.649  23.067  0.00  0.00     0.186 A 
ATOM      2  C   UNL d   1     -47.351  13.384  22.657  0.00  0.00     0.193 A 
ATOM      3  N   UNL d   1     -48.220  12.467  23.114  0.00  0.00    -0.213 NA
ATOM      4  O   UNL d   1     -48.137  13.632  22.462  0.00  0.00    -0.271 OA
ATOM      5  C   UNL d   1     -48.643  13.031  22.765  0.00  0.00     0.184 A 
ENDROOT
BRANCH   5   6
ATOM      6  C   UNL d   1     -49.367  12.851  22.815  0.00  0.00     0.041 A 
ATOM      7  C   UNL d   1     -49.512  13.335  22.147  0.00  0.00     0.004 A 
ATOM      8  C   UNL d   1     -50.280  13.416  21.846  0.00  0.00     0.000 A 
ATOM      9  C   UNL d   1     -50.900  13.013  22.213  0.00  0.00     0.000 A 
ATOM     10  C   UNL d   1     -50.755  12.529  22.882  0.00  0.00     0.000 A 
ATOM     11  C   UNL d   1     -49.995  12.462  23.164  0.00  0.00     0.004 A 
ENDBRANCH   5   6
BRANCH   1  12
ATOM     12  C   UNL d   1     -46.803  12.387  23.260  0.00  0.00     0.317 C 
ATOM     13  O   UNL d   1     -46.093  12.677  23.697  0.00  0.00    -0.257 OA
BRANCH  12  14
ATOM     14  O   UNL d   1     -46.516  11.721  23.142  0.00  0.00    -0.294 OA
ATOM     15  C   UNL d   1     -46.172  11.164  23.697  0.00  0.00     0.185 C 
ENDBRANCH  12  14
ENDBRANCH   1  12
BRANCH   2  16
ATOM     16  N   UNL d   1     -46.723  13.564  22.600  0.00  0.00    -0.281 N 
ATOM     17  C   UNL d   1     -46.852  14.301  22.897  0.00  0.00     0.101 C 
ATOM     18  C   UNL d   1     -45.992  13.345  22.377  0.00  0.00     0.101 C 
ENDBRANCH   2  16
TORSDOF 4
ENDMDL
MODEL 3
REMARK VINA RESULT:      -7.1      1.450      3.515
REMARK  4 active torsions:
REMARK  status: ('A' for Active; 'I' for Inactive)
REMARK    1  A    between atoms: C_6  and  C_1 
REMARK    2  A    between atoms: N_7  and  C_2 
REMARK    3  A    between atoms: C_8  and  C_5 
REMARK    4  A    between atoms: O_10  and  C_6 
ROOT
ATOM      1  C   UNL d   1     -49.343  14.430  22.722  0.00  0.00     0.186 A 
ATOM      2  C   UNL d   1     -49.579  13.701  22.363  0.00  0.00     0.193 A 
ATOM      3  N   UNL d   1     -48.545  14.404  22.854  0.00  0.00    -0.213 NA
ATOM      4  O   UNL d   1     -48.874  13.238  22.289  0.00  0.00    -0.271 OA
ATOM      5  C   UNL d   1     -48.258  13.715  22.607  0.00  0.00     0.184 A 
ENDROOT
BRANCH   5   6
ATOM      6  C   UNL d   1     -47.521  13.705  22.735  0.00  0.00     0.041 A 
ATOM      7  C   UNL d   1     -47.576  12.878  22.859  0.00  0.00     0.004 A 
ATOM      8  C   UNL d   1     -46.900  12.436  23.046  0.00  0.00     0.000 A 
ATOM      9  C   UNL d   1     -46.173  12.822  23.109  0.00  0.00     0.000 A 
ATOM     10  C   UNL d   1     -46.118  13.649  22.985  0.00  0.00     0.000 A 
ATOM     11  C   UNL d   1     -46.792  14.066  22.802  0.00  0.00     0.004 A 
ENDBRANCH   5   6
BRANCH   1  12
ATOM     12  C   UNL d   1     -49.894  14.866  22.811  0.00  0.00     0.317 C 
ATOM     13  O   UNL d   1     -50.460  15.303  22.292  0.00  0.00    -0.257 OA
BRANCH  12  14
ATOM     14  O   UNL d   1     -50.199  15.115  23.432  0.00  0.00    -0.294 OA
ATOM     15  C   UNL d   1     -50.324  15.922  23.698  0.00  0.00     0.185 C 
ENDBRANCH  12  14
ENDBRANCH   1  12
BRANCH   2  16
ATOM     16  N   UNL d   1     -50.223  13.686  22.240  0.00  0.00    -0.281 N 
ATOM     17  C   UNL d   1     -50.124  13.506  21.462  0.00  0.00     0.101 C 
ATOM     18  C   UNL d   1     -50.954  13.770  22.542  0.00  0.00     0.101 C 
ENDBRANCH   2  16
TORSDOF 4
ENDMDL
