MODEL 1
REMARK VINA RESULT:      18.6      0.000      0.000
REMARK  4 active torsions:
REMARK  status: ('A' for Active; 'I' for Inactive)
REMARK    1  A    between atoms: C_6  and  C_1 
REMARK       I    between atoms: N_9  and  C_6 
REMARK    2  A    between atoms: C_13  and  N_9 
REMARK    3  A    between atoms: O_12  and  C_14 
REMARK    4  A    between atoms: C_14  and  C_13 
ROOT
ATOM      1  C   UNL d   1      13.495  12.778  -3.404  0.00  0.00     0.084 A 
ATOM      2  C   UNL d   1      13.641  13.593  -3.407  0.00  0.00     0.137 A 
ATOM      3  S   UNL d   1      13.503  13.872  -4.172  0.00  0.00    -0.066 SA
ATOM      4  C   UNL d   1      13.268  12.559  -4.163  0.00  0.00     0.013 A 
ATOM      5  C   UNL d   1      13.272  13.228  -4.636  0.00  0.00     0.031 A 
ATOM      6  N   UNL d   1      13.884  14.049  -2.757  0.00  0.00    -0.141 N 
ATOM      7  C   UNL d   1      13.056  11.829  -4.486  0.00  0.00     0.001 A 
ATOM      8  C   UNL d   1      13.067  13.183  -5.435  0.00  0.00     0.006 A 
ATOM      9  C   UNL d   1      12.851  11.781  -5.286  0.00  0.00     0.000 A 
ATOM     10  C   UNL d   1      12.857  12.457  -5.756  0.00  0.00     0.001 A 
ENDROOT
BRANCH   1  11
ATOM     11  C   UNL d   1      13.567  12.280  -2.746  0.00  0.00     0.281 C 
ATOM     12  O   UNL d   1      12.946  11.779  -2.541  0.00  0.00    -0.265 OA
ATOM     13  N   UNL d   1      14.256  12.280  -2.295  0.00  0.00    -0.204 NA
BRANCH  13  14
ATOM     14  C   UNL d   1      14.327  11.783  -1.638  0.00  0.00     0.128 C 
BRANCH  14  15
ATOM     15  C   UNL d   1      14.937  11.894  -1.095  0.00  0.00     0.137 C 
BRANCH  15  16
ATOM     16  O   UNL d   1      14.773  11.924  -0.288  0.00  0.00    -0.325 OA
ATOM     17  C   UNL d   1      14.003  11.810  -0.014  0.00  0.00     0.182 C 
ENDBRANCH  15  16
ENDBRANCH  14  15
ENDBRANCH  13  14
ENDBRANCH   1  11
TORSDOF 4
ENDMDL
MODEL 2
REMARK VINA RESULT:      18.7      1.249      3.664
REMARK  4 active torsions:
REMARK  status: ('A' for Active; 'I' for Inactive)
REMARK    1  A    between atoms: C_6  and  C_1 
REMARK       I    between atoms: N_9  and  C_6 
REMARK    2  A    between atoms: C_13  and  N_9 
REMARK    3  A    between atoms: O_12  and  C_14 
REMARK    4  A    between atoms: C_14  and  C_13 
ROOT
ATOM      1  C   UNL d   1      13.916  12.760  -2.369  0.00  0.00     0.084 A 
ATOM      2  C   UNL d   1      14.099  13.554  -2.515  0.00  0.00     0.137 A 
ATOM      3  S   UNL d   1      14.573  13.823  -1.894  0.00  0.00    -0.066 SA
ATOM      4  C   UNL d   1      14.275  12.543  -1.663  0.00  0.00     0.013 A 
ATOM      5  C   UNL d   1      14.679  13.193  -1.369  0.00  0.00     0.031 A 
ATOM      6  N   UNL d   1      13.851  14.002  -3.169  0.00  0.00    -0.141 N 
ATOM      7  C   UNL d   1      14.286  11.830  -1.246  0.00  0.00     0.001 A 
ATOM      8  C   UNL d   1      15.099  13.145  -0.659  0.00  0.00     0.006 A 
ATOM      9  C   UNL d   1      14.706  11.780  -0.535  0.00  0.00     0.000 A 
ATOM     10  C   UNL d   1      15.110  12.436  -0.245  0.00  0.00     0.001 A 
ENDROOT
BRANCH   1  11
ATOM     11  C   UNL d   1      13.451  12.278  -2.856  0.00  0.00     0.281 C 
ATOM     12  O   UNL d   1      12.860  11.809  -2.524  0.00  0.00    -0.265 OA
ATOM     13  N   UNL d   1      13.575  12.261  -3.670  0.00  0.00    -0.204 NA
BRANCH  13  14
ATOM     14  C   UNL d   1      13.111  11.780  -4.155  0.00  0.00     0.128 C 
BRANCH  14  15
ATOM     15  C   UNL d   1      12.879  12.039  -4.903  0.00  0.00     0.137 C 
BRANCH  15  16
ATOM     16  O   UNL d   1      13.373  11.928  -5.552  0.00  0.00    -0.325 OA
ATOM     17  C   UNL d   1      13.054  11.811  -6.303  0.00  0.00     0.182 C 
ENDBRANCH  15  16
ENDBRANCH  14  15
ENDBRANCH  13  14
ENDBRANCH   1  11
TORSDOF 4
ENDMDL
