MODEL 1
REMARK VINA RESULT:      -4.4      0.000      0.000
REMARK  3 active torsions:
REMARK  status: ('A' for Active; 'I' for Inactive)
REMARK    1  A    between atoms: C_2  and  N_1 
REMARK    2  A    between atoms: C_4  and  N_1 
REMARK    3  A    between atoms: C_5  and  C_2 
ROOT
ATOM      1  N   UNL d   1      56.664  -0.160  32.128  0.00  0.00    -0.184 N 
ATOM      2  O   UNL d   1      56.539  -0.879  32.508  0.00  0.00    -0.080 OA
ENDROOT
BRANCH   1   3
ATOM      3  C   UNL d   1      56.318   0.523  32.418  0.00  0.00     0.108 C 
BRANCH   3   4
ATOM      4  C   UNL d   1      55.968   0.526  33.168  0.00  0.00     0.020 A 
ATOM      5  C   UNL d   1      55.156   0.369  33.240  0.00  0.00     0.004 A 
ATOM      6  C   UNL d   1      54.807   0.372  33.988  0.00  0.00     0.030 A 
ATOM      7  C   UNL d   1      55.255   0.528  34.653  0.00  0.00     0.140 A 
ATOM      8  C   UNL d   1      56.057   0.682  34.570  0.00  0.00     0.030 A 
ATOM      9  F   UNL d   1      54.908   0.531  35.398  0.00  0.00    -0.204 F 
ATOM     10  C   UNL d   1      56.417   0.681  33.828  0.00  0.00     0.004 A 
ENDBRANCH   3   4
ENDBRANCH   1   3
BRANCH   1  11
ATOM     11  C   UNL d   1      57.144  -0.132  31.449  0.00  0.00     0.090 A 
ATOM     12  C   UNL d   1      57.376   0.585  31.143  0.00  0.00     0.020 A 
ATOM     13  C   UNL d   1      57.849   0.605  30.474  0.00  0.00     0.002 A 
ATOM     14  C   UNL d   1      58.087  -0.101  30.113  0.00  0.00     0.000 A 
ATOM     15  C   UNL d   1      57.845  -0.825  30.433  0.00  0.00     0.002 A 
ATOM     16  C   UNL d   1      57.375  -0.846  31.098  0.00  0.00     0.020 A 
ENDBRANCH   1  11
TORSDOF 3
ENDMDL
MODEL 2
REMARK VINA RESULT:      -4.1      1.290      1.862
REMARK  3 active torsions:
REMARK  status: ('A' for Active; 'I' for Inactive)
REMARK    1  A    between atoms: C_2  and  N_1 
REMARK    2  A    between atoms: C_4  and  N_1 
REMARK    3  A    between atoms: C_5  and  C_2 
ROOT
ATOM      1  N   UNL d   1      57.548   0.354  30.972  0.00  0.00    -0.184 N 
ATOM      2  O   UNL d   1      56.848   0.671  30.679  0.00  0.00    -0.080 OA
ENDROOT
BRANCH   1   3
ATOM      3  C   UNL d   1      57.592   0.103  31.749  0.00  0.00     0.108 C 
BRANCH   3   4
ATOM      4  C   UNL d   1      56.899  -0.044  32.179  0.00  0.00     0.020 A 
ATOM      5  C   UNL d   1      56.617  -0.822  32.245  0.00  0.00     0.004 A 
ATOM      6  C   UNL d   1      55.927  -0.968  32.672  0.00  0.00     0.030 A 
ATOM      7  C   UNL d   1      55.522  -0.354  33.028  0.00  0.00     0.140 A 
ATOM      8  C   UNL d   1      55.810   0.412  32.956  0.00  0.00     0.030 A 
ATOM      9  F   UNL d   1      54.834  -0.499  33.454  0.00  0.00    -0.204 F 
ATOM     10  C   UNL d   1      56.499   0.570  32.531  0.00  0.00     0.004 A 
ENDBRANCH   3   4
ENDBRANCH   1   3
BRANCH   1  11
ATOM     11  C   UNL d   1      58.210   0.289  30.472  0.00  0.00     0.090 A 
ATOM     12  C   UNL d   1      58.165  -0.152  29.790  0.00  0.00     0.020 A 
ATOM     13  C   UNL d   1      58.821  -0.211  29.302  0.00  0.00     0.002 A 
ATOM     14  C   UNL d   1      59.525   0.177  29.504  0.00  0.00     0.000 A 
ATOM     15  C   UNL d   1      59.559   0.623  30.201  0.00  0.00     0.002 A 
ATOM     16  C   UNL d   1      58.907   0.682  30.686  0.00  0.00     0.020 A 
ENDBRANCH   1  11
TORSDOF 3
ENDMDL
MODEL 3
REMARK VINA RESULT:      -3.3      2.266      4.127
REMARK  3 active torsions:
REMARK  status: ('A' for Active; 'I' for Inactive)
REMARK    1  A    between atoms: C_2  and  N_1 
REMARK    2  A    between atoms: C_4  and  N_1 
REMARK    3  A    between atoms: C_5  and  C_2 
ROOT
ATOM      1  N   UNL d   1      57.073  -0.277  31.449  0.00  0.00    -0.184 N 
ATOM      2  O   UNL d   1      57.325  -0.960  31.066  0.00  0.00    -0.080 OA
ENDROOT
BRANCH   1   3
ATOM      3  C   UNL d   1      57.323   0.457  31.186  0.00  0.00     0.108 C 
BRANCH   3   4
ATOM      4  C   UNL d   1      57.912   0.513  30.607  0.00  0.00     0.020 A 
ATOM      5  C   UNL d   1      58.704   0.608  30.837  0.00  0.00     0.004 A 
ATOM      6  C   UNL d   1      59.290   0.664  30.260  0.00  0.00     0.030 A 
ATOM      7  C   UNL d   1      59.095   0.626  29.467  0.00  0.00     0.140 A 
ATOM      8  C   UNL d   1      58.309   0.532  29.250  0.00  0.00     0.030 A 
ATOM      9  F   UNL d   1      59.680   0.682  28.892  0.00  0.00    -0.204 F 
ATOM     10  C   UNL d   1      57.714   0.475  29.819  0.00  0.00     0.004 A 
ENDBRANCH   3   4
ENDBRANCH   1   3
BRANCH   1  11
ATOM     11  C   UNL d   1      56.563  -0.337  32.103  0.00  0.00     0.090 A 
ATOM     12  C   UNL d   1      56.292   0.335  32.473  0.00  0.00     0.020 A 
ATOM     13  C   UNL d   1      55.790   0.268  33.117  0.00  0.00     0.002 A 
ATOM     14  C   UNL d   1      55.560  -0.479  33.388  0.00  0.00     0.000 A 
ATOM     15  C   UNL d   1      55.842  -1.157  33.004  0.00  0.00     0.002 A 
ATOM     16  C   UNL d   1      56.341  -1.092  32.364  0.00  0.00     0.020 A 
ENDBRANCH   1  11
TORSDOF 3
ENDMDL
MODEL 4
REMARK VINA RESULT:      -2.8     10.168     10.655
REMARK  3 active torsions:
REMARK  status: ('A' for Active; 'I' for Inactive)
REMARK    1  A    between atoms: C_2  and  N_1 
REMARK    2  A    between atoms: C_4  and  N_1 
REMARK    3  A    between atoms: C_5  and  C_2 
ROOT
ATOM      1  N   UNL d   1      59.524  -9.100  34.170  0.00  0.00    -0.184 N 
ATOM      2  O   UNL d   1      59.232  -8.398  33.857  0.00  0.00    -0.080 OA
ENDROOT
BRANCH   1   3
ATOM      3  C   UNL d   1      59.403  -9.807  33.775  0.00  0.00     0.108 C 
BRANCH   3   4
ATOM      4  C   UNL d   1      59.053  -9.810  33.025  0.00  0.00     0.020 A 
ATOM      5  C   UNL d   1      59.535  -9.808  32.349  0.00  0.00     0.004 A 
ATOM      6  C   UNL d   1      59.186  -9.811  31.602  0.00  0.00     0.030 A 
ATOM      7  C   UNL d   1      58.372  -9.815  31.525  0.00  0.00     0.140 A 
ATOM      8  C   UNL d   1      57.905  -9.816  32.200  0.00  0.00     0.030 A 
ATOM      9  F   UNL d   1      58.024  -9.818  30.781  0.00  0.00    -0.204 F 
ATOM     10  C   UNL d   1      58.243  -9.814  32.953  0.00  0.00     0.004 A 
ENDBRANCH   3   4
ENDBRANCH   1   3
BRANCH   1  11
ATOM     11  C   UNL d   1      59.943  -9.087  34.889  0.00  0.00     0.090 A 
ATOM     12  C   UNL d   1      60.724  -8.857  34.902  0.00  0.00     0.020 A 
ATOM     13  C   UNL d   1      61.130  -8.847  35.614  0.00  0.00     0.002 A 
ATOM     14  C   UNL d   1      60.747  -9.069  36.314  0.00  0.00     0.000 A 
ATOM     15  C   UNL d   1      59.952  -9.300  36.288  0.00  0.00     0.002 A 
ATOM     16  C   UNL d   1      59.548  -9.311  35.581  0.00  0.00     0.020 A 
ENDBRANCH   1  11
TORSDOF 3
ENDMDL
MODEL 5
REMARK VINA RESULT:      -1.8      9.975     10.216
REMARK  3 active torsions:
REMARK  status: ('A' for Active; 'I' for Inactive)
REMARK    1  A    between atoms: C_2  and  N_1 
REMARK    2  A    between atoms: C_4  and  N_1 
REMARK    3  A    between atoms: C_5  and  C_2 
ROOT
ATOM      1  N   UNL d   1      58.859  -9.387  33.249  0.00  0.00    -0.184 N 
ATOM      2  O   UNL d   1      58.410  -8.951  33.782  0.00  0.00    -0.080 OA
ENDROOT
BRANCH   1   3
ATOM      3  C   UNL d   1      59.592  -9.677  33.468  0.00  0.00     0.108 C 
BRANCH   3   4
ATOM      4  C   UNL d   1      59.948  -9.418  34.170  0.00  0.00     0.020 A 
ATOM      5  C   UNL d   1      60.656  -8.986  34.132  0.00  0.00     0.004 A 
ATOM      6  C   UNL d   1      61.011  -8.727  34.831  0.00  0.00     0.030 A 
ATOM      7  C   UNL d   1      60.669  -8.895  35.555  0.00  0.00     0.140 A 
ATOM      8  C   UNL d   1      59.969  -9.322  35.580  0.00  0.00     0.030 A 
ATOM      9  F   UNL d   1      61.023  -8.637  36.251  0.00  0.00    -0.204 F 
ATOM     10  C   UNL d   1      59.606  -9.586  34.887  0.00  0.00     0.004 A 
ENDBRANCH   3   4
ENDBRANCH   1   3
BRANCH   1  11
ATOM     11  C   UNL d   1      58.562  -9.533  32.485  0.00  0.00     0.090 A 
ATOM     12  C   UNL d   1      59.074  -9.665  31.866  0.00  0.00     0.020 A 
ATOM     13  C   UNL d   1      58.775  -9.807  31.117  0.00  0.00     0.002 A 
ATOM     14  C   UNL d   1      57.956  -9.817  30.991  0.00  0.00     0.000 A 
ATOM     15  C   UNL d   1      57.444  -9.681  31.628  0.00  0.00     0.002 A 
ATOM     16  C   UNL d   1      57.741  -9.540  32.374  0.00  0.00     0.020 A 
ENDBRANCH   1  11
TORSDOF 3
ENDMDL
MODEL 6
REMARK VINA RESULT:      -1.7      8.851      9.503
REMARK  3 active torsions:
REMARK  status: ('A' for Active; 'I' for Inactive)
REMARK    1  A    between atoms: C_2  and  N_1 
REMARK    2  A    between atoms: C_4  and  N_1 
REMARK    3  A    between atoms: C_5  and  C_2 
ROOT
ATOM      1  N   UNL d   1      59.666  -8.917  34.957  0.00  0.00    -0.184 N 
ATOM      2  O   UNL d   1      58.994  -8.997  35.424  0.00  0.00    -0.080 OA
ENDROOT
BRANCH   1   3
ATOM      3  C   UNL d   1      60.329  -8.540  35.254  0.00  0.00     0.108 C 
BRANCH   3   4
ATOM      4  C   UNL d   1      60.278  -7.759  35.524  0.00  0.00     0.020 A 
ATOM      5  C   UNL d   1      60.972  -7.352  35.729  0.00  0.00     0.004 A 
ATOM      6  C   UNL d   1      60.921  -6.574  35.998  0.00  0.00     0.030 A 
ATOM      7  C   UNL d   1      60.194  -6.205  36.062  0.00  0.00     0.140 A 
ATOM      8  C   UNL d   1      59.515  -6.617  35.856  0.00  0.00     0.030 A 
ATOM      9  F   UNL d   1      60.143  -5.429  36.330  0.00  0.00    -0.204 F 
ATOM     10  C   UNL d   1      59.554  -7.395  35.586  0.00  0.00     0.004 A 
ENDBRANCH   3   4
ENDBRANCH   1   3
BRANCH   1  11
ATOM     11  C   UNL d   1      59.667  -9.220  34.182  0.00  0.00     0.090 A 
ATOM     12  C   UNL d   1      60.371  -9.343  33.793  0.00  0.00     0.020 A 
ATOM     13  C   UNL d   1      60.365  -9.642  33.031  0.00  0.00     0.002 A 
ATOM     14  C   UNL d   1      59.646  -9.818  32.659  0.00  0.00     0.000 A 
ATOM     15  C   UNL d   1      58.935  -9.689  33.065  0.00  0.00     0.002 A 
ATOM     16  C   UNL d   1      58.941  -9.391  33.823  0.00  0.00     0.020 A 
ENDBRANCH   1  11
TORSDOF 3
ENDMDL
