MODEL 1
REMARK VINA RESULT:      46.0      0.000      0.000
REMARK  5 active torsions:
REMARK  status: ('A' for Active; 'I' for Inactive)
REMARK    1  A    between atoms: N_4  and  C_1 
REMARK    2  A    between atoms: S_3  and  C_9 
REMARK       I    between atoms: C_6  and  N_4 
REMARK    3  A    between atoms: C_11  and  C_5 
REMARK    4  A    between atoms: C_10  and  C_6 
REMARK    5  A    between atoms: O_25  and  C_22 
ROOT
ATOM      1  C   UNL d   1      45.585 -17.063  38.951  0.00  0.00     0.197 A 
ATOM      2  N   UNL d   1      44.831 -16.889  38.660  0.00  0.00    -0.221 NA
ATOM      3  C   UNL d   1      44.909 -16.367  38.035  0.00  0.00     0.090 A 
ATOM      4  S   UNL d   1      46.120 -16.644  38.499  0.00  0.00    -0.046 SA
ATOM      5  C   UNL d   1      45.693 -16.213  37.931  0.00  0.00     0.058 A 
ENDROOT
BRANCH   1   6
ATOM      6  N   UNL d   1      45.848 -17.546  39.564  0.00  0.00    -0.183 NA
ATOM      7  C   UNL d   1      45.331 -17.758  40.173  0.00  0.00     0.281 C 
ATOM      8  O   UNL d   1      44.561 -17.486  40.162  0.00  0.00    -0.265 OA
BRANCH   7   9
ATOM      9  C   UNL d   1      45.594 -18.241  40.787  0.00  0.00     0.058 A 
ATOM     10  C   UNL d   1      46.277 -18.689  40.697  0.00  0.00     0.005 A 
ATOM     11  C   UNL d   1      46.540 -19.172  41.311  0.00  0.00     0.011 A 
ATOM     12  C   UNL d   1      46.119 -19.208  42.015  0.00  0.00     0.084 A 
ATOM     13  C   UNL d   1      45.434 -18.760  42.108  0.00  0.00     0.011 A 
ATOM     14  C   UNL d   1      45.171 -18.277  41.494  0.00  0.00     0.005 A 
BRANCH  12  15
ATOM     15  S   UNL d   1      46.382 -19.692  42.630  0.00  0.00     0.191 S 
ATOM     16  O   UNL d   1      46.290 -19.068  43.160  0.00  0.00    -0.222 OA
ATOM     17  O   UNL d   1      46.475 -20.316  42.098  0.00  0.00    -0.222 OA
ATOM     18  C   UNL d   1      46.645 -20.175  43.243  0.00  0.00     0.145 C 
ENDBRANCH  12  15
ENDBRANCH   7   9
ENDBRANCH   1   6
BRANCH   3  19
ATOM     19  C   UNL d   1      44.267 -16.071  37.608  0.00  0.00     0.018 A 
ATOM     20  C   UNL d   1      43.595 -15.797  38.022  0.00  0.00     0.004 A 
ATOM     21  C   UNL d   1      42.953 -15.501  37.595  0.00  0.00     0.024 A 
ATOM     22  C   UNL d   1      42.968 -15.473  36.762  0.00  0.00     0.094 A 
ATOM     23  C   UNL d   1      43.635 -15.745  36.360  0.00  0.00     0.024 A 
ATOM     24  C   UNL d   1      44.283 -16.044  36.789  0.00  0.00     0.004 A 
BRANCH  22  25
ATOM     25  O   UNL d   1      42.316 -15.172  36.335  0.00  0.00    -0.328 OA
ATOM     26  C   UNL d   1      41.586 -15.571  36.351  0.00  0.00     0.181 C 
ENDBRANCH  22  25
ENDBRANCH   3  19
TORSDOF 5
ENDMDL
