MODEL 1
REMARK VINA RESULT:      62.9      0.000      0.000
REMARK  8 active torsions:
REMARK  status: ('A' for Active; 'I' for Inactive)
REMARK    1  A    between atoms: C_2  and  P_1 
REMARK    2  A    between atoms: O_5  and  P_1 
REMARK    3  A    between atoms: O_6  and  P_1 
REMARK    4  A    between atoms: N_3  and  C_2 
REMARK       I    between atoms: C_4  and  N_3 
REMARK    5  A    between atoms: C_9  and  C_4 
REMARK    6  A    between atoms: C_12  and  O_5 
REMARK    7  A    between atoms: C_11  and  O_6 
REMARK    8  A    between atoms: C_10  and  C_9 
ROOT
ATOM      1  C   UNL d   1      61.431  47.437  50.239  0.00  0.00     0.165 C 
ATOM      2  C   UNL d   1      61.873  47.708  49.597  0.00  0.00     0.029 C 
ENDROOT
BRANCH   1   3
ATOM      3  P   UNL d   1      61.344  46.627  50.378  0.00  0.00     0.392 P 
ATOM      4  O   UNL d   1      61.282  46.787  51.210  0.00  0.00    -0.251 OA
BRANCH   3   5
ATOM      5  O   UNL d   1      61.254  45.797  50.533  0.00  0.00    -0.265 OA
BRANCH   5   6
ATOM      6  C   UNL d   1      60.764  45.541  51.146  0.00  0.00     0.103 C 
ATOM      7  C   UNL d   1      61.053  45.029  51.715  0.00  0.00     0.027 C 
ATOM      8  C   UNL d   1      59.982  45.791  51.201  0.00  0.00     0.027 C 
ENDBRANCH   5   6
ENDBRANCH   3   5
BRANCH   3   9
ATOM      9  O   UNL d   1      61.405  46.481  49.566  0.00  0.00    -0.265 OA
BRANCH   9  10
ATOM     10  C   UNL d   1      61.936  45.917  49.289  0.00  0.00     0.103 C 
ATOM     11  C   UNL d   1      62.735  46.023  49.396  0.00  0.00     0.027 C 
ATOM     12  C   UNL d   1      61.666  45.262  48.911  0.00  0.00     0.027 C 
ENDBRANCH   9  10
ENDBRANCH   3   9
ENDBRANCH   1   3
BRANCH   1  13
ATOM     13  N   UNL d   1      61.074  47.982  50.744  0.00  0.00    -0.200 NA
ATOM     14  C   UNL d   1      61.071  48.791  50.541  0.00  0.00     0.280 C 
ATOM     15  O   UNL d   1      61.422  49.047  49.838  0.00  0.00    -0.265 OA
BRANCH  14  16
ATOM     16  C   UNL d   1      60.701  49.339  51.067  0.00  0.00     0.062 C 
BRANCH  16  17
ATOM     17  C   UNL d   1      59.861  49.465  50.985  0.00  0.00     0.005 A 
ATOM     18  C   UNL d   1      59.394  49.494  51.675  0.00  0.00     0.000 A 
ATOM     19  C   UNL d   1      58.571  49.616  51.624  0.00  0.00     0.000 A 
ATOM     20  C   UNL d   1      58.227  49.707  50.880  0.00  0.00     0.000 A 
ATOM     21  C   UNL d   1      58.708  49.676  50.190  0.00  0.00     0.000 A 
ATOM     22  C   UNL d   1      59.518  49.556  50.241  0.00  0.00     0.000 A 
ENDBRANCH  16  17
ENDBRANCH  14  16
ENDBRANCH   1  13
TORSDOF 8
ENDMDL
