MODEL 1
REMARK VINA RESULT:      -9.7      0.000      0.000
REMARK  2 active torsions:
REMARK  status: ('A' for Active; 'I' for Inactive)
REMARK    1  A    between atoms: C_5  and  C_1 
REMARK    2  A    between atoms: N_2  and  C_6 
ROOT
ATOM      1  C   UNL d   1     -48.613  14.288  22.863  0.00  0.00     0.077 A 
ATOM      2  C   UNL d   1     -49.499  14.035  21.847  0.00  0.00     0.160 A 
ATOM      3  C   UNL d   1     -48.708  13.857  22.197  0.00  0.00     0.024 A 
ATOM      4  C   UNL d   1     -49.207  14.726  23.018  0.00  0.00    -0.014 A 
ATOM      5  C   UNL d   1     -49.039  14.882  23.360  0.00  0.00    -0.014 A 
ATOM      6  C   UNL d   1     -49.695  15.040  23.084  0.00  0.00    -0.000 A 
ATOM      7  C   UNL d   1     -50.023  14.912  22.661  0.00  0.00    -0.000 A 
ATOM      8  C   UNL d   1     -49.845  14.501  22.229  0.00  0.00     0.038 A 
ATOM      9  C   UNL d   1     -50.116  14.492  22.012  0.00  0.00     0.038 A 
ATOM     10  C   UNL d   1     -50.473  15.517  23.154  0.00  0.00    -0.000 A 
ATOM     11  O   UNL d   1     -49.564  13.630  21.241  0.00  0.00    -0.290 OA
ENDROOT
BRANCH   1  12
ATOM     12  C   UNL d   1     -47.893  13.902  22.873  0.00  0.00    -0.011 A 
ATOM     13  C   UNL d   1     -47.836  13.119  23.112  0.00  0.00    -0.002 A 
ATOM     14  C   UNL d   1     -47.097  12.731  23.120  0.00  0.00     0.023 A 
ATOM     15  C   UNL d   1     -46.423  13.145  22.884  0.00  0.00     0.127 A 
ATOM     16  C   UNL d   1     -46.486  13.932  22.645  0.00  0.00     0.023 A 
ATOM     17  C   UNL d   1     -47.232  14.307  22.642  0.00  0.00    -0.002 A 
BRANCH  15  18
ATOM     18  N   UNL d   1     -45.684  12.775  22.887  0.00  0.00    -0.114 N 
ATOM     19  O   UNL d   1     -45.109  13.081  22.388  0.00  0.00    -0.532 OA
ATOM     20  O   UNL d   1     -45.529  12.101  23.391  0.00  0.00    -0.532 OA
ENDBRANCH  15  18
ENDBRANCH   1  12
TORSDOF 2
ENDMDL
MODEL 2
REMARK VINA RESULT:      -9.6      1.575      3.809
REMARK  2 active torsions:
REMARK  status: ('A' for Active; 'I' for Inactive)
REMARK    1  A    between atoms: C_5  and  C_1 
REMARK    2  A    between atoms: N_2  and  C_6 
ROOT
ATOM      1  C   UNL d   1     -47.932  12.970  23.104  0.00  0.00     0.077 A 
ATOM      2  C   UNL d   1     -46.629  13.394  23.160  0.00  0.00     0.160 A 
ATOM      3  C   UNL d   1     -47.470  13.613  23.001  0.00  0.00     0.024 A 
ATOM      4  C   UNL d   1     -47.543  12.356  23.306  0.00  0.00    -0.014 A 
ATOM      5  C   UNL d   1     -47.876  12.115  23.324  0.00  0.00    -0.014 A 
ATOM      6  C   UNL d   1     -47.187  11.919  23.459  0.00  0.00    -0.000 A 
ATOM      7  C   UNL d   1     -46.678  12.127  23.470  0.00  0.00    -0.000 A 
ATOM      8  C   UNL d   1     -46.571  12.724  23.335  0.00  0.00     0.038 A 
ATOM      9  C   UNL d   1     -46.227  12.753  23.370  0.00  0.00     0.038 A 
ATOM     10  C   UNL d   1     -46.601  11.258  23.697  0.00  0.00    -0.000 A 
ATOM     11  O   UNL d   1     -46.226  13.997  23.060  0.00  0.00    -0.290 OA
ENDROOT
BRANCH   1  12
ATOM     12  C   UNL d   1     -48.519  13.500  22.899  0.00  0.00    -0.011 A 
ATOM     13  C   UNL d   1     -48.700  13.647  22.112  0.00  0.00    -0.002 A 
ATOM     14  C   UNL d   1     -49.301  14.190  21.909  0.00  0.00     0.023 A 
ATOM     15  C   UNL d   1     -49.711  14.578  22.512  0.00  0.00     0.127 A 
ATOM     16  C   UNL d   1     -49.525  14.427  23.301  0.00  0.00     0.023 A 
ATOM     17  C   UNL d   1     -48.921  13.880  23.488  0.00  0.00    -0.002 A 
BRANCH  15  18
ATOM     18  N   UNL d   1     -50.308  15.119  22.328  0.00  0.00    -0.114 N 
ATOM     19  O   UNL d   1     -50.235  15.878  22.631  0.00  0.00    -0.532 OA
ATOM     20  O   UNL d   1     -50.975  14.892  21.842  0.00  0.00    -0.532 OA
ENDBRANCH  15  18
ENDBRANCH   1  12
TORSDOF 2
ENDMDL
MODEL 3
REMARK VINA RESULT:      -9.6      1.642      1.965
REMARK  2 active torsions:
REMARK  status: ('A' for Active; 'I' for Inactive)
REMARK    1  A    between atoms: C_5  and  C_1 
REMARK    2  A    between atoms: N_2  and  C_6 
ROOT
ATOM      1  C   UNL d   1     -48.871  12.376  23.082  0.00  0.00     0.077 A 
ATOM      2  C   UNL d   1     -49.594  12.488  21.922  0.00  0.00     0.160 A 
ATOM      3  C   UNL d   1     -48.793  12.486  22.294  0.00  0.00     0.024 A 
ATOM      4  C   UNL d   1     -49.589  12.305  23.301  0.00  0.00    -0.014 A 
ATOM      5  C   UNL d   1     -49.493  12.258  23.698  0.00  0.00    -0.014 A 
ATOM      6  C   UNL d   1     -50.161  12.258  23.406  0.00  0.00    -0.000 A 
ATOM      7  C   UNL d   1     -50.416  12.307  22.920  0.00  0.00    -0.000 A 
ATOM      8  C   UNL d   1     -50.093  12.396  22.396  0.00  0.00     0.038 A 
ATOM      9  C   UNL d   1     -50.341  12.414  22.153  0.00  0.00     0.038 A 
ATOM     10  C   UNL d   1     -51.064  12.188  23.534  0.00  0.00    -0.000 A 
ATOM     11  O   UNL d   1     -49.498  12.590  21.204  0.00  0.00    -0.290 OA
ENDROOT
BRANCH   1  12
ATOM     12  C   UNL d   1     -48.056  12.428  23.053  0.00  0.00    -0.011 A 
ATOM     13  C   UNL d   1     -47.681  13.146  22.917  0.00  0.00    -0.002 A 
ATOM     14  C   UNL d   1     -46.848  13.191  22.889  0.00  0.00     0.023 A 
ATOM     15  C   UNL d   1     -46.405  12.503  23.001  0.00  0.00     0.127 A 
ATOM     16  C   UNL d   1     -46.786  11.785  23.137  0.00  0.00     0.023 A 
ATOM     17  C   UNL d   1     -47.621  11.755  23.162  0.00  0.00    -0.002 A 
BRANCH  15  18
ATOM     18  N   UNL d   1     -45.580  12.531  22.976  0.00  0.00    -0.114 N 
ATOM     19  O   UNL d   1     -45.171  11.920  23.341  0.00  0.00    -0.532 OA
ATOM     20  O   UNL d   1     -45.170  13.173  22.585  0.00  0.00    -0.532 OA
ENDBRANCH  15  18
ENDBRANCH   1  12
TORSDOF 2
ENDMDL
MODEL 4
REMARK VINA RESULT:      -9.4      2.238      3.620
REMARK  2 active torsions:
REMARK  status: ('A' for Active; 'I' for Inactive)
REMARK    1  A    between atoms: C_5  and  C_1 
REMARK    2  A    between atoms: N_2  and  C_6 
ROOT
ATOM      1  C   UNL d   1     -47.207  12.885  22.670  0.00  0.00     0.077 A 
ATOM      2  C   UNL d   1     -46.957  14.229  22.784  0.00  0.00     0.160 A 
ATOM      3  C   UNL d   1     -47.555  13.582  22.846  0.00  0.00     0.024 A 
ATOM      4  C   UNL d   1     -46.475  12.955  22.500  0.00  0.00    -0.014 A 
ATOM      5  C   UNL d   1     -46.422  12.552  22.435  0.00  0.00    -0.014 A 
ATOM      6  C   UNL d   1     -45.916  13.074  22.380  0.00  0.00    -0.000 A 
ATOM      7  C   UNL d   1     -45.856  13.618  22.436  0.00  0.00    -0.000 A 
ATOM      8  C   UNL d   1     -46.334  13.980  22.600  0.00  0.00     0.038 A 
ATOM      9  C   UNL d   1     -46.195  14.297  22.607  0.00  0.00     0.038 A 
ATOM     10  C   UNL d   1     -45.048  13.298  22.197  0.00  0.00    -0.000 A 
ATOM     11  O   UNL d   1     -47.297  14.855  22.948  0.00  0.00    -0.290 OA
ENDROOT
BRANCH   1  12
ATOM     12  C   UNL d   1     -47.959  12.602  22.817  0.00  0.00    -0.011 A 
ATOM     13  C   UNL d   1     -48.165  12.308  23.555  0.00  0.00    -0.002 A 
ATOM     14  C   UNL d   1     -48.935  12.022  23.698  0.00  0.00     0.023 A 
ATOM     15  C   UNL d   1     -49.489  12.037  23.086  0.00  0.00     0.127 A 
ATOM     16  C   UNL d   1     -49.278  12.333  22.346  0.00  0.00     0.023 A 
ATOM     17  C   UNL d   1     -48.502  12.617  22.218  0.00  0.00    -0.002 A 
BRANCH  15  18
ATOM     18  N   UNL d   1     -50.256  11.757  23.211  0.00  0.00    -0.114 N 
ATOM     19  O   UNL d   1     -50.871  12.172  22.861  0.00  0.00    -0.532 OA
ATOM     20  O   UNL d   1     -50.400  11.060  23.688  0.00  0.00    -0.532 OA
ENDBRANCH  15  18
ENDBRANCH   1  12
TORSDOF 2
ENDMDL
