MODEL 1
REMARK VINA RESULT:      61.8      0.000      0.000
REMARK  6 active torsions:
REMARK  status: ('A' for Active; 'I' for Inactive)
REMARK    1  A    between atoms: C_12  and  N_1 
REMARK    2  A    between atoms: S_10  and  C_2 
REMARK    3  A    between atoms: C_5  and  N_7 
REMARK       I    between atoms: N_7  and  C_11 
REMARK    4  A    between atoms: C_16  and  S_10 
REMARK    5  A    between atoms: C_11  and  C_16 
REMARK    6  A    between atoms: C_17  and  C_12 
ROOT
ATOM      1  N   UNL d   1      59.022  49.631  51.106  0.00  0.00    -0.303 N 
ATOM      2  C   UNL d   1      60.258  49.629  50.605  0.00  0.00     0.049 A 
ATOM      3  C   UNL d   1      59.444  49.616  50.416  0.00  0.00     0.087 A 
ATOM      4  C   UNL d   1      60.310  49.652  51.430  0.00  0.00     0.024 A 
ATOM      5  C   UNL d   1      59.545  49.653  51.740  0.00  0.00     0.065 A 
ATOM      6  C   UNL d   1      60.959  49.672  51.932  0.00  0.00     0.002 A 
ATOM      7  C   UNL d   1      59.430  49.674  52.552  0.00  0.00     0.018 A 
ATOM      8  C   UNL d   1      60.845  49.693  52.749  0.00  0.00     0.000 A 
ATOM      9  C   UNL d   1      60.081  49.695  53.060  0.00  0.00     0.002 A 
ENDROOT
BRANCH   2  10
ATOM     10  S   UNL d   1      60.889  49.620  50.077  0.00  0.00    -0.080 SA
BRANCH  10  11
ATOM     11  C   UNL d   1      60.943  49.027  49.499  0.00  0.00     0.098 C 
BRANCH  11  12
ATOM     12  C   UNL d   1      61.361  48.333  49.642  0.00  0.00     0.288 C 
ATOM     13  N   UNL d   1      61.002  47.594  49.562  0.00  0.00    -0.182 NA
ATOM     14  O   UNL d   1      62.146  48.381  49.867  0.00  0.00    -0.265 OA
BRANCH  13  15
ATOM     15  C   UNL d   1      61.430  46.906  49.707  0.00  0.00     0.197 A 
ATOM     16  N   UNL d   1      62.183  46.670  49.464  0.00  0.00    -0.219 NA
ATOM     17  C   UNL d   1      62.322  45.916  49.782  0.00  0.00     0.108 A 
ATOM     18  C   UNL d   1      61.656  45.701  50.215  0.00  0.00     0.059 A 
ATOM     19  S   UNL d   1      61.105  46.314  50.168  0.00  0.00    -0.046 SA
ENDBRANCH  13  15
ENDBRANCH  11  12
ENDBRANCH  10  11
ENDBRANCH   2  10
BRANCH   1  20
ATOM     20  C   UNL d   1      58.184  49.625  51.165  0.00  0.00     0.080 C 
BRANCH  20  21
ATOM     21  C   UNL d   1      57.721  49.649  50.488  0.00  0.00     0.018 A 
ATOM     22  C   UNL d   1      56.898  49.684  50.540  0.00  0.00     0.002 A 
ATOM     23  C   UNL d   1      56.437  49.708  49.858  0.00  0.00     0.000 A 
ATOM     24  C   UNL d   1      56.790  49.698  49.120  0.00  0.00     0.000 A 
ATOM     25  C   UNL d   1      57.624  49.664  49.057  0.00  0.00     0.000 A 
ATOM     26  C   UNL d   1      58.082  49.639  49.747  0.00  0.00     0.002 A 
ENDBRANCH  20  21
ENDBRANCH   1  20
TORSDOF 6
ENDMDL
