MODEL 1
REMARK VINA RESULT:      -9.0      0.000      0.000
REMARK  3 active torsions:
REMARK  status: ('A' for Active; 'I' for Inactive)
REMARK    1  A    between atoms: C_6  and  N_2 
REMARK    2  A    between atoms: C_7  and  C_6 
REMARK    3  A    between atoms: C_8  and  C_7 
ROOT
ATOM      1  N   UNL d   1      54.260  33.940  55.061  0.00  0.00    -0.224 NA
ATOM      2  N   UNL d   1      53.601  33.093  54.285  0.00  0.00    -0.287 N 
ATOM      3  C   UNL d   1      54.184  33.186  54.820  0.00  0.00     0.183 A 
ATOM      4  C   UNL d   1      53.266  33.854  54.167  0.00  0.00     0.083 A 
ATOM      5  C   UNL d   1      53.661  34.363  54.632  0.00  0.00     0.099 A 
ATOM      6  C   UNL d   1      52.659  34.143  53.700  0.00  0.00     0.019 A 
ATOM      7  C   UNL d   1      53.486  35.206  54.673  0.00  0.00     0.021 A 
ATOM      8  C   UNL d   1      52.442  34.930  53.691  0.00  0.00     0.002 A 
ATOM      9  C   UNL d   1      52.838  35.439  54.157  0.00  0.00     0.002 A 
ENDROOT
BRANCH   2  10
ATOM     10  C   UNL d   1      53.343  32.395  53.897  0.00  0.00     0.082 C 
BRANCH  10  11
ATOM     11  C   UNL d   1      53.800  31.736  53.927  0.00  0.00     0.019 C 
BRANCH  11  12
ATOM     12  C   UNL d   1      53.478  31.008  53.669  0.00  0.00     0.002 A 
ATOM     13  C   UNL d   1      53.552  30.335  54.166  0.00  0.00     0.000 A 
ATOM     14  C   UNL d   1      53.230  29.603  53.909  0.00  0.00     0.000 A 
ATOM     15  C   UNL d   1      52.854  29.567  53.181  0.00  0.00     0.000 A 
ATOM     16  C   UNL d   1      52.782  30.243  52.686  0.00  0.00     0.000 A 
ATOM     17  C   UNL d   1      53.096  30.949  52.940  0.00  0.00     0.000 A 
ENDBRANCH  11  12
ENDBRANCH  10  11
ENDBRANCH   2  10
TORSDOF 3
ENDMDL
MODEL 2
REMARK VINA RESULT:      -8.7      1.537      4.179
REMARK  3 active torsions:
REMARK  status: ('A' for Active; 'I' for Inactive)
REMARK    1  A    between atoms: C_6  and  N_2 
REMARK    2  A    between atoms: C_7  and  C_6 
REMARK    3  A    between atoms: C_8  and  C_7 
ROOT
ATOM      1  N   UNL d   1      52.523  31.084  52.534  0.00  0.00    -0.224 NA
ATOM      2  N   UNL d   1      53.354  31.452  53.498  0.00  0.00    -0.287 N 
ATOM      3  C   UNL d   1      52.928  31.684  52.866  0.00  0.00     0.183 A 
ATOM      4  C   UNL d   1      53.215  30.628  53.587  0.00  0.00     0.083 A 
ATOM      5  C   UNL d   1      52.716  30.408  53.009  0.00  0.00     0.099 A 
ATOM      6  C   UNL d   1      53.477  30.061  54.115  0.00  0.00     0.019 A 
ATOM      7  C   UNL d   1      52.434  29.599  52.906  0.00  0.00     0.021 A 
ATOM      8  C   UNL d   1      53.248  29.278  54.074  0.00  0.00     0.002 A 
ATOM      9  C   UNL d   1      52.749  29.057  53.496  0.00  0.00     0.002 A 
ENDROOT
BRANCH   2  10
ATOM     10  C   UNL d   1      53.852  31.906  53.998  0.00  0.00     0.082 C 
BRANCH  10  11
ATOM     11  C   UNL d   1      53.891  32.702  53.897  0.00  0.00     0.019 C 
BRANCH  11  12
ATOM     12  C   UNL d   1      54.383  33.150  54.404  0.00  0.00     0.002 A 
ATOM     13  C   UNL d   1      55.127  33.414  54.114  0.00  0.00     0.000 A 
ATOM     14  C   UNL d   1      55.622  33.865  54.621  0.00  0.00     0.000 A 
ATOM     15  C   UNL d   1      55.366  34.034  55.382  0.00  0.00     0.000 A 
ATOM     16  C   UNL d   1      54.622  33.768  55.668  0.00  0.00     0.000 A 
ATOM     17  C   UNL d   1      54.146  33.332  55.172  0.00  0.00     0.000 A 
ENDBRANCH  11  12
ENDBRANCH  10  11
ENDBRANCH   2  10
TORSDOF 3
ENDMDL
MODEL 3
REMARK VINA RESULT:      -8.5      1.585      3.951
REMARK  3 active torsions:
REMARK  status: ('A' for Active; 'I' for Inactive)
REMARK    1  A    between atoms: C_6  and  N_2 
REMARK    2  A    between atoms: C_7  and  C_6 
REMARK    3  A    between atoms: C_8  and  C_7 
ROOT
ATOM      1  N   UNL d   1      54.023  32.105  53.831  0.00  0.00    -0.224 NA
ATOM      2  N   UNL d   1      52.860  32.335  53.240  0.00  0.00    -0.287 N 
ATOM      3  C   UNL d   1      53.491  32.654  53.607  0.00  0.00     0.183 A 
ATOM      4  C   UNL d   1      52.991  31.505  53.221  0.00  0.00     0.083 A 
ATOM      5  C   UNL d   1      53.689  31.367  53.576  0.00  0.00     0.099 A 
ATOM      6  C   UNL d   1      52.568  30.868  52.930  0.00  0.00     0.019 A 
ATOM      7  C   UNL d   1      54.027  30.580  53.672  0.00  0.00     0.021 A 
ATOM      8  C   UNL d   1      52.832  30.097  52.988  0.00  0.00     0.002 A 
ATOM      9  C   UNL d   1      53.530  29.960  53.343  0.00  0.00     0.002 A 
ENDROOT
BRANCH   2  10
ATOM     10  C   UNL d   1      52.183  32.716  52.921  0.00  0.00     0.082 C 
BRANCH  10  11
ATOM     11  C   UNL d   1      52.099  33.509  53.010  0.00  0.00     0.019 C 
BRANCH  11  12
ATOM     12  C   UNL d   1      51.404  33.877  52.725  0.00  0.00     0.002 A 
ATOM     13  C   UNL d   1      50.779  34.032  53.266  0.00  0.00     0.000 A 
ATOM     14  C   UNL d   1      50.080  34.402  52.982  0.00  0.00     0.000 A 
ATOM     15  C   UNL d   1      50.028  34.600  52.188  0.00  0.00     0.000 A 
ATOM     16  C   UNL d   1      50.655  34.443  51.651  0.00  0.00     0.000 A 
ATOM     17  C   UNL d   1      51.330  34.085  51.931  0.00  0.00     0.000 A 
ENDBRANCH  11  12
ENDBRANCH  10  11
ENDBRANCH   2  10
TORSDOF 3
ENDMDL
MODEL 4
REMARK VINA RESULT:      -8.5      1.784      3.462
REMARK  3 active torsions:
REMARK  status: ('A' for Active; 'I' for Inactive)
REMARK    1  A    between atoms: C_6  and  N_2 
REMARK    2  A    between atoms: C_7  and  C_6 
REMARK    3  A    between atoms: C_8  and  C_7 
ROOT
ATOM      1  N   UNL d   1      53.664  34.891  55.008  0.00  0.00    -0.224 NA
ATOM      2  N   UNL d   1      52.852  34.259  54.173  0.00  0.00    -0.287 N 
ATOM      3  C   UNL d   1      53.040  34.953  54.518  0.00  0.00     0.183 A 
ATOM      4  C   UNL d   1      53.403  33.695  54.464  0.00  0.00     0.083 A 
ATOM      5  C   UNL d   1      53.890  34.074  54.965  0.00  0.00     0.099 A 
ATOM      6  C   UNL d   1      53.519  32.894  54.337  0.00  0.00     0.019 A 
ATOM      7  C   UNL d   1      54.537  33.688  55.384  0.00  0.00     0.021 A 
ATOM      8  C   UNL d   1      54.113  32.469  54.702  0.00  0.00     0.002 A 
ATOM      9  C   UNL d   1      54.600  32.849  55.202  0.00  0.00     0.002 A 
ENDROOT
BRANCH   2  10
ATOM     10  C   UNL d   1      52.239  34.086  53.627  0.00  0.00     0.082 C 
BRANCH  10  11
ATOM     11  C   UNL d   1      51.820  34.688  53.302  0.00  0.00     0.019 C 
BRANCH  11  12
ATOM     12  C   UNL d   1      51.196  34.509  52.774  0.00  0.00     0.002 A 
ATOM     13  C   UNL d   1      50.405  34.556  53.054  0.00  0.00     0.000 A 
ATOM     14  C   UNL d   1      49.777  34.376  52.526  0.00  0.00     0.000 A 
ATOM     15  C   UNL d   1      49.954  34.162  51.754  0.00  0.00     0.000 A 
ATOM     16  C   UNL d   1      50.747  34.117  51.478  0.00  0.00     0.000 A 
ATOM     17  C   UNL d   1      51.351  34.292  51.994  0.00  0.00     0.000 A 
ENDBRANCH  11  12
ENDBRANCH  10  11
ENDBRANCH   2  10
TORSDOF 3
ENDMDL
MODEL 5
REMARK VINA RESULT:      -7.4      2.055      3.330
REMARK  3 active torsions:
REMARK  status: ('A' for Active; 'I' for Inactive)
REMARK    1  A    between atoms: C_6  and  N_2 
REMARK    2  A    between atoms: C_7  and  C_6 
REMARK    3  A    between atoms: C_8  and  C_7 
ROOT
ATOM      1  N   UNL d   1      51.599  34.075  51.595  0.00  0.00    -0.224 NA
ATOM      2  N   UNL d   1      52.007  34.001  52.854  0.00  0.00    -0.287 N 
ATOM      3  C   UNL d   1      52.208  33.928  52.087  0.00  0.00     0.183 A 
ATOM      4  C   UNL d   1      51.194  34.215  52.865  0.00  0.00     0.083 A 
ATOM      5  C   UNL d   1      50.950  34.260  52.110  0.00  0.00     0.099 A 
ATOM      6  C   UNL d   1      50.655  34.373  53.461  0.00  0.00     0.019 A 
ATOM      7  C   UNL d   1      50.144  34.466  51.882  0.00  0.00     0.021 A 
ATOM      8  C   UNL d   1      49.877  34.574  53.313  0.00  0.00     0.002 A 
ATOM      9  C   UNL d   1      49.633  34.618  52.557  0.00  0.00     0.002 A 
ENDROOT
BRANCH   2  10
ATOM     10  C   UNL d   1      52.479  33.895  53.539  0.00  0.00     0.082 C 
BRANCH  10  11
ATOM     11  C   UNL d   1      53.246  33.673  53.459  0.00  0.00     0.019 C 
BRANCH  11  12
ATOM     12  C   UNL d   1      53.693  33.503  54.145  0.00  0.00     0.002 A 
ATOM     13  C   UNL d   1      53.678  32.721  54.453  0.00  0.00     0.000 A 
ATOM     14  C   UNL d   1      54.126  32.549  55.142  0.00  0.00     0.000 A 
ATOM     15  C   UNL d   1      54.564  33.147  55.493  0.00  0.00     0.000 A 
ATOM     16  C   UNL d   1      54.577  33.927  55.182  0.00  0.00     0.000 A 
ATOM     17  C   UNL d   1      54.141  34.089  54.514  0.00  0.00     0.000 A 
ENDBRANCH  11  12
ENDBRANCH  10  11
ENDBRANCH   2  10
TORSDOF 3
ENDMDL
MODEL 6
REMARK VINA RESULT:      -6.5      1.102      4.157
REMARK  3 active torsions:
REMARK  status: ('A' for Active; 'I' for Inactive)
REMARK    1  A    between atoms: C_6  and  N_2 
REMARK    2  A    between atoms: C_7  and  C_6 
REMARK    3  A    between atoms: C_8  and  C_7 
ROOT
ATOM      1  N   UNL d   1      53.696  30.201  52.742  0.00  0.00    -0.224 NA
ATOM      2  N   UNL d   1      53.457  31.210  53.566  0.00  0.00    -0.287 N 
ATOM      3  C   UNL d   1      53.661  30.991  52.828  0.00  0.00     0.183 A 
ATOM      4  C   UNL d   1      53.348  30.499  54.001  0.00  0.00     0.083 A 
ATOM      5  C   UNL d   1      53.491  29.894  53.506  0.00  0.00     0.099 A 
ATOM      6  C   UNL d   1      53.139  30.331  54.774  0.00  0.00     0.019 A 
ATOM      7  C   UNL d   1      53.438  29.065  53.740  0.00  0.00     0.021 A 
ATOM      8  C   UNL d   1      53.071  29.569  55.060  0.00  0.00     0.002 A 
ATOM      9  C   UNL d   1      53.215  28.964  54.565  0.00  0.00     0.002 A 
ENDROOT
BRANCH   2  10
ATOM     10  C   UNL d   1      53.359  31.980  53.884  0.00  0.00     0.082 C 
BRANCH  10  11
ATOM     11  C   UNL d   1      53.394  32.616  53.394  0.00  0.00     0.019 C 
BRANCH  11  12
ATOM     12  C   UNL d   1      53.322  33.383  53.720  0.00  0.00     0.002 A 
ATOM     13  C   UNL d   1      53.713  33.552  54.444  0.00  0.00     0.000 A 
ATOM     14  C   UNL d   1      53.642  34.322  54.773  0.00  0.00     0.000 A 
ATOM     15  C   UNL d   1      53.193  34.884  54.378  0.00  0.00     0.000 A 
ATOM     16  C   UNL d   1      52.803  34.710  53.655  0.00  0.00     0.000 A 
ATOM     17  C   UNL d   1      52.876  33.963  53.341  0.00  0.00     0.000 A 
ENDBRANCH  11  12
ENDBRANCH  10  11
ENDBRANCH   2  10
TORSDOF 3
ENDMDL
