MODEL 1
REMARK VINA RESULT:      20.9      0.000      0.000
REMARK  1 active torsions:
REMARK  status: ('A' for Active; 'I' for Inactive)
REMARK    1  A    between atoms: C_9  and  C_3 
ROOT
ATOM      1  C   UNL d   1      46.291 -18.251  43.518  0.00  0.00     0.035 A 
ATOM      2  N   UNL d   1      46.129 -17.109  42.569  0.00  0.00    -0.239 NA
ATOM      3  C   UNL d   1      46.266 -17.914  42.780  0.00  0.00     0.083 A 
ATOM      4  N   UNL d   1      46.031 -17.070  44.435  0.00  0.00    -0.207 NA
ATOM      5  C   UNL d   1      46.186 -17.875  44.262  0.00  0.00     0.086 A 
ATOM      6  C   UNL d   1      45.943 -16.446  43.903  0.00  0.00     0.298 A 
ATOM      7  C   UNL d   1      46.437 -19.036  43.477  0.00  0.00     0.003 A 
ATOM      8  C   UNL d   1      45.989 -16.473  43.062  0.00  0.00     0.161 A 
ATOM      9  C   UNL d   1      46.233 -18.316  44.955  0.00  0.00     0.019 A 
ATOM     10  O   UNL d   1      45.788 -15.693  44.247  0.00  0.00    -0.263 OA
ATOM     11  C   UNL d   1      46.486 -19.489  44.180  0.00  0.00     0.000 A 
ATOM     12  C   UNL d   1      46.382 -19.119  44.920  0.00  0.00     0.002 A 
ATOM     13  C   UNL d   1      46.642 -20.328  44.108  0.00  0.00     0.000 C 
ENDROOT
BRANCH   3  14
ATOM     14  C   UNL d   1      46.389 -18.424  42.158  0.00  0.00     0.018 A 
ATOM     15  C   UNL d   1      46.387 -19.233  42.270  0.00  0.00     0.002 A 
ATOM     16  C   UNL d   1      46.516 -19.758  41.617  0.00  0.00     0.000 A 
ATOM     17  C   UNL d   1      46.644 -19.432  40.871  0.00  0.00     0.000 A 
ATOM     18  C   UNL d   1      46.644 -18.619  40.766  0.00  0.00     0.000 A 
ATOM     19  C   UNL d   1      46.516 -18.111  41.417  0.00  0.00     0.002 A 
ENDBRANCH   3  14
TORSDOF 1
ENDMDL
