MODEL 1
REMARK VINA RESULT:     -11.6      0.000      0.000
REMARK  3 active torsions:
REMARK  status: ('A' for Active; 'I' for Inactive)
REMARK    1  A    between atoms: N_8  and  C_1 
REMARK    2  A    between atoms: N_7  and  C_2 
REMARK    3  A    between atoms: C_11  and  N_8 
ROOT
ATOM      1  C   UNL d   1      53.034  32.799  53.308  0.00  0.00     0.139 A 
ATOM      2  C   UNL d   1      52.630  33.496  53.469  0.00  0.00     0.124 A 
ATOM      3  C   UNL d   1      52.919  34.045  54.030  0.00  0.00     0.213 A 
ATOM      4  C   UNL d   1      53.740  32.629  53.702  0.00  0.00     0.215 A 
ATOM      5  C   UNL d   1      53.630  33.855  54.416  0.00  0.00     0.044 A 
ATOM      6  C   UNL d   1      54.034  33.159  54.254  0.00  0.00     0.044 A 
ATOM      7  O   UNL d   1      52.512  34.748  54.193  0.00  0.00    -0.285 OA
ATOM      8  O   UNL d   1      54.147  31.925  53.539  0.00  0.00    -0.285 OA
ATOM      9  C   UNL d   1      53.920  34.405  54.977  0.00  0.00     0.003 A 
ATOM     10  C   UNL d   1      54.740  32.989  54.649  0.00  0.00     0.003 A 
ATOM     11  C   UNL d   1      54.633  34.216  55.365  0.00  0.00     0.000 A 
ATOM     12  C   UNL d   1      55.036  33.520  55.203  0.00  0.00     0.000 A 
ENDROOT
BRANCH   1  13
ATOM     13  N   UNL d   1      52.721  32.262  52.737  0.00  0.00    -0.241 NA
BRANCH  13  14
ATOM     14  C   UNL d   1      52.696  31.452  52.912  0.00  0.00     0.082 A 
ATOM     15  C   UNL d   1      53.202  30.931  52.520  0.00  0.00     0.019 A 
ATOM     16  C   UNL d   1      53.177  30.125  52.694  0.00  0.00     0.002 A 
ATOM     17  C   UNL d   1      52.648  29.851  53.257  0.00  0.00     0.000 A 
ATOM     18  C   UNL d   1      52.147  30.362  53.646  0.00  0.00     0.002 A 
ATOM     19  C   UNL d   1      52.171  31.168  53.473  0.00  0.00     0.019 A 
ENDBRANCH  13  14
ENDBRANCH   1  13
BRANCH   2  20
ATOM     20  N   UNL d   1      51.914  33.683  53.078  0.00  0.00    -0.300 N 
ATOM     21  C   UNL d   1      51.180  33.548  53.439  0.00  0.00     0.080 A 
ATOM     22  C   UNL d   1      50.487  33.738  53.042  0.00  0.00     0.019 A 
ATOM     23  C   UNL d   1      50.511  34.067  52.271  0.00  0.00     0.003 A 
ATOM     24  C   UNL d   1      51.245  34.201  51.911  0.00  0.00     0.019 A 
ATOM     25  C   UNL d   1      51.969  34.009  52.314  0.00  0.00     0.080 A 
ENDBRANCH   2  20
TORSDOF 3
ENDMDL
MODEL 2
REMARK VINA RESULT:     -11.5      1.015      3.564
REMARK  3 active torsions:
REMARK  status: ('A' for Active; 'I' for Inactive)
REMARK    1  A    between atoms: N_8  and  C_1 
REMARK    2  A    between atoms: N_7  and  C_2 
REMARK    3  A    between atoms: C_11  and  N_8 
ROOT
ATOM      1  C   UNL d   1      53.195  32.459  53.312  0.00  0.00     0.139 A 
ATOM      2  C   UNL d   1      53.685  32.253  53.939  0.00  0.00     0.124 A 
ATOM      3  C   UNL d   1      53.784  31.455  54.168  0.00  0.00     0.213 A 
ATOM      4  C   UNL d   1      52.789  31.872  52.895  0.00  0.00     0.215 A 
ATOM      5  C   UNL d   1      53.368  30.881  53.736  0.00  0.00     0.044 A 
ATOM      6  C   UNL d   1      52.879  31.086  53.110  0.00  0.00     0.044 A 
ATOM      7  O   UNL d   1      54.279  31.248  54.801  0.00  0.00    -0.285 OA
ATOM      8  O   UNL d   1      52.295  32.079  52.262  0.00  0.00    -0.285 OA
ATOM      9  C   UNL d   1      53.468  30.082  53.966  0.00  0.00     0.003 A 
ATOM     10  C   UNL d   1      52.473  30.499  52.692  0.00  0.00     0.003 A 
ATOM     11  C   UNL d   1      53.051  29.504  53.533  0.00  0.00     0.000 A 
ATOM     12  C   UNL d   1      52.562  29.710  52.907  0.00  0.00     0.000 A 
ENDROOT
BRANCH   1  13
ATOM     13  N   UNL d   1      53.112  33.271  53.101  0.00  0.00    -0.241 NA
BRANCH  13  14
ATOM     14  C   UNL d   1      52.353  33.587  52.992  0.00  0.00     0.082 A 
ATOM     15  C   UNL d   1      52.164  33.967  52.284  0.00  0.00     0.019 A 
ATOM     16  C   UNL d   1      51.409  34.281  52.176  0.00  0.00     0.002 A 
ATOM     17  C   UNL d   1      50.855  34.212  52.776  0.00  0.00     0.000 A 
ATOM     18  C   UNL d   1      51.037  33.838  53.476  0.00  0.00     0.002 A 
ATOM     19  C   UNL d   1      51.792  33.523  53.584  0.00  0.00     0.019 A 
ENDBRANCH  13  14
ENDBRANCH   1  13
BRANCH   2  20
ATOM     20  N   UNL d   1      54.103  32.836  54.371  0.00  0.00    -0.300 N 
ATOM     21  C   UNL d   1      53.830  33.103  55.107  0.00  0.00     0.080 A 
ATOM     22  C   UNL d   1      54.251  33.674  55.518  0.00  0.00     0.019 A 
ATOM     23  C   UNL d   1      54.959  33.994  55.203  0.00  0.00     0.003 A 
ATOM     24  C   UNL d   1      55.232  33.727  54.468  0.00  0.00     0.019 A 
ATOM     25  C   UNL d   1      54.803  33.135  54.034  0.00  0.00     0.080 A 
ENDBRANCH   2  20
TORSDOF 3
ENDMDL
MODEL 3
REMARK VINA RESULT:     -11.2      1.021      2.976
REMARK  3 active torsions:
REMARK  status: ('A' for Active; 'I' for Inactive)
REMARK    1  A    between atoms: N_8  and  C_1 
REMARK    2  A    between atoms: N_7  and  C_2 
REMARK    3  A    between atoms: C_11  and  N_8 
ROOT
ATOM      1  C   UNL d   1      53.350  32.480  53.409  0.00  0.00     0.139 A 
ATOM      2  C   UNL d   1      52.559  32.423  53.194  0.00  0.00     0.124 A 
ATOM      3  C   UNL d   1      52.186  31.680  53.102  0.00  0.00     0.213 A 
ATOM      4  C   UNL d   1      53.793  31.795  53.540  0.00  0.00     0.215 A 
ATOM      5  C   UNL d   1      52.648  31.004  53.238  0.00  0.00     0.044 A 
ATOM      6  C   UNL d   1      53.439  31.060  53.453  0.00  0.00     0.044 A 
ATOM      7  O   UNL d   1      51.388  31.623  52.884  0.00  0.00    -0.285 OA
ATOM      8  O   UNL d   1      54.591  31.852  53.757  0.00  0.00    -0.285 OA
ATOM      9  C   UNL d   1      52.276  30.260  53.146  0.00  0.00     0.003 A 
ATOM     10  C   UNL d   1      53.882  30.374  53.584  0.00  0.00     0.003 A 
ATOM     11  C   UNL d   1      52.738  29.580  53.282  0.00  0.00     0.000 A 
ATOM     12  C   UNL d   1      53.528  29.637  53.497  0.00  0.00     0.000 A 
ENDROOT
BRANCH   1  13
ATOM     13  N   UNL d   1      53.702  33.241  53.495  0.00  0.00    -0.241 NA
BRANCH  13  14
ATOM     14  C   UNL d   1      54.154  33.406  54.169  0.00  0.00     0.082 A 
ATOM     15  C   UNL d   1      54.944  33.632  54.090  0.00  0.00     0.019 A 
ATOM     16  C   UNL d   1      55.394  33.796  54.761  0.00  0.00     0.002 A 
ATOM     17  C   UNL d   1      55.049  33.733  55.502  0.00  0.00     0.000 A 
ATOM     18  C   UNL d   1      54.270  33.511  55.585  0.00  0.00     0.002 A 
ATOM     19  C   UNL d   1      53.819  33.346  54.914  0.00  0.00     0.019 A 
ENDBRANCH  13  14
ENDBRANCH   1  13
BRANCH   2  20
ATOM     20  N   UNL d   1      52.097  33.108  53.058  0.00  0.00    -0.300 N 
ATOM     21  C   UNL d   1      51.552  33.377  53.621  0.00  0.00     0.080 A 
ATOM     22  C   UNL d   1      51.106  34.050  53.472  0.00  0.00     0.019 A 
ATOM     23  C   UNL d   1      51.195  34.471  52.753  0.00  0.00     0.003 A 
ATOM     24  C   UNL d   1      51.740  34.202  52.189  0.00  0.00     0.019 A 
ATOM     25  C   UNL d   1      52.206  33.506  52.334  0.00  0.00     0.080 A 
ENDBRANCH   2  20
TORSDOF 3
ENDMDL
MODEL 4
REMARK VINA RESULT:     -11.0      1.002      2.844
REMARK  3 active torsions:
REMARK  status: ('A' for Active; 'I' for Inactive)
REMARK    1  A    between atoms: N_8  and  C_1 
REMARK    2  A    between atoms: N_7  and  C_2 
REMARK    3  A    between atoms: C_11  and  N_8 
ROOT
ATOM      1  C   UNL d   1      53.200  32.707  53.406  0.00  0.00     0.139 A 
ATOM      2  C   UNL d   1      53.309  33.374  53.872  0.00  0.00     0.124 A 
ATOM      3  C   UNL d   1      52.749  33.995  53.878  0.00  0.00     0.213 A 
ATOM      4  C   UNL d   1      52.527  32.639  52.931  0.00  0.00     0.215 A 
ATOM      5  C   UNL d   1      52.080  33.908  53.394  0.00  0.00     0.044 A 
ATOM      6  C   UNL d   1      51.971  33.241  52.928  0.00  0.00     0.044 A 
ATOM      7  O   UNL d   1      52.859  34.669  54.348  0.00  0.00    -0.285 OA
ATOM      8  O   UNL d   1      52.417  31.965  52.460  0.00  0.00    -0.285 OA
ATOM      9  C   UNL d   1      51.519  34.530  53.399  0.00  0.00     0.003 A 
ATOM     10  C   UNL d   1      51.297  33.173  52.452  0.00  0.00     0.003 A 
ATOM     11  C   UNL d   1      50.847  34.444  52.914  0.00  0.00     0.000 A 
ATOM     12  C   UNL d   1      50.738  33.777  52.449  0.00  0.00     0.000 A 
ENDROOT
BRANCH   1  13
ATOM     13  N   UNL d   1      53.780  32.094  53.418  0.00  0.00    -0.241 NA
BRANCH  13  14
ATOM     14  C   UNL d   1      53.537  31.306  53.504  0.00  0.00     0.082 A 
ATOM     15  C   UNL d   1      53.570  30.793  52.859  0.00  0.00     0.019 A 
ATOM     16  C   UNL d   1      53.329  30.009  52.945  0.00  0.00     0.002 A 
ATOM     17  C   UNL d   1      53.059  29.749  53.675  0.00  0.00     0.000 A 
ATOM     18  C   UNL d   1      53.025  30.252  54.314  0.00  0.00     0.002 A 
ATOM     19  C   UNL d   1      53.266  31.036  54.228  0.00  0.00     0.019 A 
ENDBRANCH  13  14
ENDBRANCH   1  13
BRANCH   2  20
ATOM     20  N   UNL d   1      53.985  33.458  54.358  0.00  0.00    -0.300 N 
ATOM     21  C   UNL d   1      53.944  33.328  55.176  0.00  0.00     0.080 A 
ATOM     22  C   UNL d   1      54.617  33.415  55.639  0.00  0.00     0.019 A 
ATOM     23  C   UNL d   1      55.349  33.633  55.294  0.00  0.00     0.003 A 
ATOM     24  C   UNL d   1      55.389  33.763  54.476  0.00  0.00     0.019 A 
ATOM     25  C   UNL d   1      54.699  33.676  53.988  0.00  0.00     0.080 A 
ENDBRANCH   2  20
TORSDOF 3
ENDMDL
MODEL 5
REMARK VINA RESULT:     -11.0      1.032      3.476
REMARK  3 active torsions:
REMARK  status: ('A' for Active; 'I' for Inactive)
REMARK    1  A    between atoms: N_8  and  C_1 
REMARK    2  A    between atoms: N_7  and  C_2 
REMARK    3  A    between atoms: C_11  and  N_8 
ROOT
ATOM      1  C   UNL d   1      53.202  32.756  53.388  0.00  0.00     0.139 A 
ATOM      2  C   UNL d   1      52.654  32.149  53.308  0.00  0.00     0.124 A 
ATOM      3  C   UNL d   1      51.846  32.310  53.164  0.00  0.00     0.213 A 
ATOM      4  C   UNL d   1      52.959  33.543  53.326  0.00  0.00     0.215 A 
ATOM      5  C   UNL d   1      51.622  33.107  53.105  0.00  0.00     0.044 A 
ATOM      6  C   UNL d   1      52.169  33.714  53.185  0.00  0.00     0.044 A 
ATOM      7  O   UNL d   1      51.294  31.697  53.083  0.00  0.00    -0.285 OA
ATOM      8  O   UNL d   1      53.511  34.156  53.407  0.00  0.00    -0.285 OA
ATOM      9  C   UNL d   1      50.813  33.269  52.961  0.00  0.00     0.003 A 
ATOM     10  C   UNL d   1      51.926  34.502  53.123  0.00  0.00     0.003 A 
ATOM     11  C   UNL d   1      50.586  34.068  52.902  0.00  0.00     0.000 A 
ATOM     12  C   UNL d   1      51.134  34.675  52.982  0.00  0.00     0.000 A 
ENDROOT
BRANCH   1  13
ATOM     13  N   UNL d   1      54.011  32.567  53.533  0.00  0.00    -0.241 NA
BRANCH  13  14
ATOM     14  C   UNL d   1      54.416  32.954  54.145  0.00  0.00     0.082 A 
ATOM     15  C   UNL d   1      55.097  33.388  53.977  0.00  0.00     0.019 A 
ATOM     16  C   UNL d   1      55.499  33.772  54.585  0.00  0.00     0.002 A 
ATOM     17  C   UNL d   1      55.215  33.718  55.353  0.00  0.00     0.000 A 
ATOM     18  C   UNL d   1      54.543  33.291  55.523  0.00  0.00     0.002 A 
ATOM     19  C   UNL d   1      54.141  32.906  54.914  0.00  0.00     0.019 A 
ENDBRANCH  13  14
ENDBRANCH   1  13
BRANCH   2  20
ATOM     20  N   UNL d   1      52.884  31.346  53.368  0.00  0.00    -0.300 N 
ATOM     21  C   UNL d   1      52.835  30.938  54.088  0.00  0.00     0.080 A 
ATOM     22  C   UNL d   1      53.065  30.151  54.129  0.00  0.00     0.019 A 
ATOM     23  C   UNL d   1      53.351  29.752  53.450  0.00  0.00     0.003 A 
ATOM     24  C   UNL d   1      53.400  30.160  52.730  0.00  0.00     0.019 A 
ATOM     25  C   UNL d   1      53.164  30.976  52.677  0.00  0.00     0.080 A 
ENDBRANCH   2  20
TORSDOF 3
ENDMDL
MODEL 6
REMARK VINA RESULT:     -10.5      0.596      2.818
REMARK  3 active torsions:
REMARK  status: ('A' for Active; 'I' for Inactive)
REMARK    1  A    between atoms: N_8  and  C_1 
REMARK    2  A    between atoms: N_7  and  C_2 
REMARK    3  A    between atoms: C_11  and  N_8 
ROOT
ATOM      1  C   UNL d   1      53.005  32.875  53.342  0.00  0.00     0.139 A 
ATOM      2  C   UNL d   1      53.277  32.183  53.690  0.00  0.00     0.124 A 
ATOM      3  C   UNL d   1      53.810  32.202  54.334  0.00  0.00     0.213 A 
ATOM      4  C   UNL d   1      53.258  33.608  53.626  0.00  0.00     0.215 A 
ATOM      5  C   UNL d   1      54.053  32.949  54.605  0.00  0.00     0.044 A 
ATOM      6  C   UNL d   1      53.781  33.640  54.256  0.00  0.00     0.044 A 
ATOM      7  O   UNL d   1      54.085  31.503  54.686  0.00  0.00    -0.285 OA
ATOM      8  O   UNL d   1      52.983  34.307  53.274  0.00  0.00    -0.285 OA
ATOM      9  C   UNL d   1      54.587  32.968  55.249  0.00  0.00     0.003 A 
ATOM     10  C   UNL d   1      54.034  34.375  54.541  0.00  0.00     0.003 A 
ATOM     11  C   UNL d   1      54.831  33.716  55.522  0.00  0.00     0.000 A 
ATOM     12  C   UNL d   1      54.559  34.408  55.173  0.00  0.00     0.000 A 
ENDROOT
BRANCH   1  13
ATOM     13  N   UNL d   1      52.467  32.828  52.694  0.00  0.00    -0.241 NA
BRANCH  13  14
ATOM     14  C   UNL d   1      51.792  33.310  52.690  0.00  0.00     0.082 A 
ATOM     15  C   UNL d   1      51.694  33.875  52.097  0.00  0.00     0.019 A 
ATOM     16  C   UNL d   1      51.023  34.355  52.093  0.00  0.00     0.002 A 
ATOM     17  C   UNL d   1      50.459  34.262  52.682  0.00  0.00     0.000 A 
ATOM     18  C   UNL d   1      50.552  33.705  53.268  0.00  0.00     0.002 A 
ATOM     19  C   UNL d   1      51.223  33.225  53.272  0.00  0.00     0.019 A 
ENDBRANCH  13  14
ENDBRANCH   1  13
BRANCH   2  20
ATOM     20  N   UNL d   1      53.030  31.432  53.415  0.00  0.00    -0.300 N 
ATOM     21  C   UNL d   1      52.415  31.018  53.786  0.00  0.00     0.080 A 
ATOM     22  C   UNL d   1      52.185  30.283  53.503  0.00  0.00     0.019 A 
ATOM     23  C   UNL d   1      52.566  29.942  52.839  0.00  0.00     0.003 A 
ATOM     24  C   UNL d   1      53.181  30.355  52.467  0.00  0.00     0.019 A 
ATOM     25  C   UNL d   1      53.426  31.118  52.753  0.00  0.00     0.080 A 
ENDBRANCH   2  20
TORSDOF 3
ENDMDL
MODEL 7
REMARK VINA RESULT:      -9.3      1.107      3.291
REMARK  3 active torsions:
REMARK  status: ('A' for Active; 'I' for Inactive)
REMARK    1  A    between atoms: N_8  and  C_1 
REMARK    2  A    between atoms: N_7  and  C_2 
REMARK    3  A    between atoms: C_11  and  N_8 
ROOT
ATOM      1  C   UNL d   1      52.170  33.248  53.568  0.00  0.00     0.139 A 
ATOM      2  C   UNL d   1      52.934  33.435  53.804  0.00  0.00     0.124 A 
ATOM      3  C   UNL d   1      53.549  32.870  53.770  0.00  0.00     0.213 A 
ATOM      4  C   UNL d   1      51.996  32.489  53.292  0.00  0.00     0.215 A 
ATOM      5  C   UNL d   1      53.355  32.113  53.489  0.00  0.00     0.044 A 
ATOM      6  C   UNL d   1      52.591  31.925  53.254  0.00  0.00     0.044 A 
ATOM      7  O   UNL d   1      54.321  33.059  54.008  0.00  0.00    -0.285 OA
ATOM      8  O   UNL d   1      51.225  32.300  53.054  0.00  0.00    -0.285 OA
ATOM      9  C   UNL d   1      53.971  31.546  53.456  0.00  0.00     0.003 A 
ATOM     10  C   UNL d   1      52.418  31.166  52.977  0.00  0.00     0.003 A 
ATOM     11  C   UNL d   1      53.778  30.787  53.174  0.00  0.00     0.000 A 
ATOM     12  C   UNL d   1      53.014  30.599  52.939  0.00  0.00     0.000 A 
ENDROOT
BRANCH   1  13
ATOM     13  N   UNL d   1      51.567  33.836  53.612  0.00  0.00    -0.241 NA
BRANCH  13  14
ATOM     14  C   UNL d   1      51.103  33.993  52.943  0.00  0.00     0.082 A 
ATOM     15  C   UNL d   1      50.282  34.024  53.011  0.00  0.00     0.019 A 
ATOM     16  C   UNL d   1      49.819  34.181  52.346  0.00  0.00     0.002 A 
ATOM     17  C   UNL d   1      50.185  34.304  51.623  0.00  0.00     0.000 A 
ATOM     18  C   UNL d   1      50.996  34.275  51.551  0.00  0.00     0.002 A 
ATOM     19  C   UNL d   1      51.458  34.118  52.217  0.00  0.00     0.019 A 
ENDBRANCH  13  14
ENDBRANCH   1  13
BRANCH   2  20
ATOM     20  N   UNL d   1      53.126  34.199  54.087  0.00  0.00    -0.300 N 
ATOM     21  C   UNL d   1      53.440  34.778  53.583  0.00  0.00     0.080 A 
ATOM     22  C   UNL d   1      53.623  35.522  53.876  0.00  0.00     0.019 A 
ATOM     23  C   UNL d   1      53.495  35.707  54.683  0.00  0.00     0.003 A 
ATOM     24  C   UNL d   1      53.180  35.129  55.187  0.00  0.00     0.019 A 
ATOM     25  C   UNL d   1      52.988  34.355  54.893  0.00  0.00     0.080 A 
ENDBRANCH   2  20
TORSDOF 3
ENDMDL
