MODEL 1
REMARK VINA RESULT:      -4.3      0.000      0.000
REMARK  4 active torsions:
REMARK  status: ('A' for Active; 'I' for Inactive)
REMARK    1  A    between atoms: N_7  and  C_1 
REMARK    2  A    between atoms: C_8  and  C_2 
REMARK    3  A    between atoms: C_11  and  N_7 
REMARK    4  A    between atoms: C_19  and  C_12 
ROOT
ATOM      1  C   UNL d   1      58.388   0.198  30.379  0.00  0.00     0.189 A 
ATOM      2  C   UNL d   1      58.794   0.165  29.662  0.00  0.00     0.119 A 
ATOM      3  C   UNL d   1      59.608   0.305  29.643  0.00  0.00     0.204 A 
ATOM      4  O   UNL d   1      58.797   0.370  31.075  0.00  0.00    -0.289 OA
ATOM      5  C   UNL d   1      60.010   0.476  30.335  0.00  0.00     0.067 A 
ATOM      6  C   UNL d   1      59.604   0.509  31.053  0.00  0.00     0.105 A 
ATOM      7  O   UNL d   1      60.015   0.272  28.923  0.00  0.00    -0.286 OA
ATOM      8  C   UNL d   1      60.001   0.682  31.768  0.00  0.00     0.027 C 
ENDROOT
BRANCH   1   9
ATOM      9  N   UNL d   1      57.547   0.054  30.409  0.00  0.00    -0.222 NA
BRANCH   9  10
ATOM     10  C   UNL d   1      57.160  -0.007  31.130  0.00  0.00     0.084 A 
ATOM     11  C   UNL d   1      57.072  -0.746  31.495  0.00  0.00     0.019 A 
ATOM     12  C   UNL d   1      56.682  -0.809  32.220  0.00  0.00     0.002 A 
ATOM     13  C   UNL d   1      56.379  -0.132  32.583  0.00  0.00     0.000 A 
ATOM     14  C   UNL d   1      56.465   0.599  32.224  0.00  0.00     0.002 A 
ATOM     15  C   UNL d   1      56.854   0.661  31.499  0.00  0.00     0.019 A 
BRANCH  13  16
ATOM     16  C   UNL d   1      55.987  -0.194  33.311  0.00  0.00     0.000 C 
ATOM     17  C   UNL d   1      55.170  -0.181  33.339  0.00  0.00     0.000 C 
ENDBRANCH  13  16
ENDBRANCH   9  10
ENDBRANCH   1   9
BRANCH   2  18
ATOM     18  C   UNL d   1      58.369  -0.012  28.957  0.00  0.00     0.202 C 
ATOM     19  O   UNL d   1      58.244  -0.803  28.748  0.00  0.00    -0.286 OA
ATOM     20  C   UNL d   1      58.081   0.589  28.481  0.00  0.00     0.046 C 
ENDBRANCH   2  18
TORSDOF 4
ENDMDL
MODEL 2
REMARK VINA RESULT:      -2.9      1.302      2.161
REMARK  4 active torsions:
REMARK  status: ('A' for Active; 'I' for Inactive)
REMARK    1  A    between atoms: N_7  and  C_1 
REMARK    2  A    between atoms: C_8  and  C_2 
REMARK    3  A    between atoms: C_11  and  N_7 
REMARK    4  A    between atoms: C_19  and  C_12 
ROOT
ATOM      1  C   UNL d   1      59.230  -0.353  29.554  0.00  0.00     0.189 A 
ATOM      2  C   UNL d   1      59.957  -0.450  29.176  0.00  0.00     0.119 A 
ATOM      3  C   UNL d   1      60.159  -1.184  28.857  0.00  0.00     0.204 A 
ATOM      4  O   UNL d   1      58.708  -0.990  29.612  0.00  0.00    -0.289 OA
ATOM      5  C   UNL d   1      59.638  -1.814  28.916  0.00  0.00     0.067 A 
ATOM      6  C   UNL d   1      58.912  -1.716  29.295  0.00  0.00     0.105 A 
ATOM      7  O   UNL d   1      60.888  -1.282  28.477  0.00  0.00    -0.286 OA
ATOM      8  C   UNL d   1      58.370  -2.350  29.364  0.00  0.00     0.027 C 
ENDROOT
BRANCH   1   9
ATOM      9  N   UNL d   1      59.012   0.402  29.887  0.00  0.00    -0.222 NA
BRANCH   9  10
ATOM     10  C   UNL d   1      58.405   0.457  30.437  0.00  0.00     0.084 A 
ATOM     11  C   UNL d   1      57.632   0.628  30.191  0.00  0.00     0.019 A 
ATOM     12  C   UNL d   1      57.022   0.682  30.744  0.00  0.00     0.002 A 
ATOM     13  C   UNL d   1      57.182   0.566  31.545  0.00  0.00     0.000 A 
ATOM     14  C   UNL d   1      57.944   0.397  31.790  0.00  0.00     0.002 A 
ATOM     15  C   UNL d   1      58.555   0.342  31.237  0.00  0.00     0.019 A 
BRANCH  13  16
ATOM     16  C   UNL d   1      56.569   0.620  32.100  0.00  0.00     0.000 C 
ATOM     17  C   UNL d   1      56.271  -0.057  32.450  0.00  0.00     0.000 C 
ENDBRANCH  13  16
ENDBRANCH   9  10
ENDBRANCH   1   9
BRANCH   2  18
ATOM     18  C   UNL d   1      60.483   0.205  29.121  0.00  0.00     0.202 C 
ATOM     19  O   UNL d   1      60.998   0.363  29.749  0.00  0.00    -0.286 OA
ATOM     20  C   UNL d   1      60.487   0.682  28.455  0.00  0.00     0.046 C 
ENDBRANCH   2  18
TORSDOF 4
ENDMDL
