MODEL 1
REMARK VINA RESULT:      -5.9      0.000      0.000
REMARK  5 active torsions:
REMARK  status: ('A' for Active; 'I' for Inactive)
REMARK    1  A    between atoms: C_2  and  N_1 
REMARK    2  A    between atoms: O_4  and  N_1 
REMARK    3  A    between atoms: C_8  and  C_2 
REMARK    4  A    between atoms: C_3  and  O_4 
REMARK    5  A    between atoms: C_5  and  C_3 
ROOT
ATOM      1  O   UNL d   1     -41.586-122.715 -52.123  0.00  0.00    -0.168 OA
ENDROOT
BRANCH   1   2
ATOM      2  C   UNL d   1     -41.496-122.229 -51.356  0.00  0.00     0.319 C 
ATOM      3  O   UNL d   1     -41.123-121.411 -51.375  0.00  0.00    -0.257 OA
BRANCH   2   4
ATOM      4  C   UNL d   1     -41.760-122.541 -50.634  0.00  0.00     0.065 A 
ATOM      5  C   UNL d   1     -41.286-123.057 -50.204  0.00  0.00     0.006 A 
ATOM      6  C   UNL d   1     -41.551-123.355 -49.502  0.00  0.00     0.007 A 
ATOM      7  C   UNL d   1     -42.291-123.159 -49.194  0.00  0.00     0.035 A 
ATOM      8  C   UNL d   1     -42.766-122.642 -49.626  0.00  0.00     0.007 A 
ATOM      9 BR   UNL d   1     -42.560-123.466 -48.476  0.00  0.00    -0.049 Br
ATOM     10  C   UNL d   1     -42.512-122.323 -50.351  0.00  0.00     0.006 A 
ENDBRANCH   2   4
ENDBRANCH   1   2
BRANCH   1  11
ATOM     11  N   UNL d   1     -41.487-122.371 -52.856  0.00  0.00    -0.102 NA
BRANCH  11  12
ATOM     12  C   UNL d   1     -41.554-122.808 -53.547  0.00  0.00     0.210 C 
ATOM     13  N   UNL d   1     -41.387-123.616 -53.530  0.00  0.00    -0.125 N 
BRANCH  12  14
ATOM     14  C   UNL d   1     -41.782-122.462 -54.254  0.00  0.00     0.043 A 
ATOM     15  C   UNL d   1     -42.455-122.003 -54.305  0.00  0.00     0.024 A 
ATOM     16  C   UNL d   1     -42.684-121.655 -55.012  0.00  0.00     0.099 A 
ATOM     17  N   UNL d   1     -42.213-121.782 -55.680  0.00  0.00    -0.242 NA
ATOM     18  C   UNL d   1     -41.535-122.239 -55.649  0.00  0.00     0.099 A 
ATOM     19  C   UNL d   1     -41.320-122.580 -54.929  0.00  0.00     0.024 A 
ENDBRANCH  12  14
ENDBRANCH  11  12
ENDBRANCH   1  11
TORSDOF 5
ENDMDL
MODEL 2
REMARK VINA RESULT:      -5.2      2.183      4.812
REMARK  5 active torsions:
REMARK  status: ('A' for Active; 'I' for Inactive)
REMARK    1  A    between atoms: C_2  and  N_1 
REMARK    2  A    between atoms: O_4  and  N_1 
REMARK    3  A    between atoms: C_8  and  C_2 
REMARK    4  A    between atoms: C_3  and  O_4 
REMARK    5  A    between atoms: C_5  and  C_3 
ROOT
ATOM      1  O   UNL d   1     -41.641-122.504 -52.232  0.00  0.00    -0.168 OA
ENDROOT
BRANCH   1   2
ATOM      2  C   UNL d   1     -41.477-122.992 -52.984  0.00  0.00     0.319 C 
ATOM      3  O   UNL d   1     -41.123-123.817 -52.926  0.00  0.00    -0.257 OA
BRANCH   2   4
ATOM      4  C   UNL d   1     -41.654-122.676 -53.731  0.00  0.00     0.065 A 
ATOM      5  C   UNL d   1     -42.330-122.222 -53.842  0.00  0.00     0.006 A 
ATOM      6  C   UNL d   1     -42.495-121.918 -54.572  0.00  0.00     0.007 A 
ATOM      7  C   UNL d   1     -42.003-122.049 -55.221  0.00  0.00     0.035 A 
ATOM      8  C   UNL d   1     -41.326-122.505 -55.110  0.00  0.00     0.007 A 
ATOM      9 BR   UNL d   1     -42.174-121.738 -55.967  0.00  0.00    -0.049 Br
ATOM     10  C   UNL d   1     -41.138-122.827 -54.366  0.00  0.00     0.006 A 
ENDBRANCH   2   4
ENDBRANCH   1   2
BRANCH   1  11
ATOM     11  N   UNL d   1     -41.604-122.844 -51.491  0.00  0.00    -0.102 NA
BRANCH  11  12
ATOM     12  C   UNL d   1     -41.663-122.392 -50.808  0.00  0.00     0.210 C 
ATOM     13  N   UNL d   1     -41.462-121.593 -50.837  0.00  0.00    -0.125 N 
BRANCH  12  14
ATOM     14  C   UNL d   1     -41.917-122.715 -50.100  0.00  0.00     0.043 A 
ATOM     15  C   UNL d   1     -41.396-123.072 -49.584  0.00  0.00     0.024 A 
ATOM     16  C   UNL d   1     -41.649-123.397 -48.874  0.00  0.00     0.099 A 
ATOM     17  N   UNL d   1     -42.454-123.354 -48.690  0.00  0.00    -0.242 NA
ATOM     18  C   UNL d   1     -42.993-123.000 -49.194  0.00  0.00     0.099 A 
ATOM     19  C   UNL d   1     -42.720-122.679 -49.904  0.00  0.00     0.024 A 
ENDBRANCH  12  14
ENDBRANCH  11  12
ENDBRANCH   1  11
TORSDOF 5
ENDMDL
