MODEL 1
REMARK VINA RESULT:      -5.7      0.000      0.000
REMARK  9 active torsions:
REMARK  status: ('A' for Active; 'I' for Inactive)
REMARK    1  A    between atoms: N_2  and  S_1 
REMARK    2  A    between atoms: C_9  and  S_1 
REMARK    3  A    between atoms: C_4  and  N_2 
REMARK    4  A    between atoms: O_22  and  C_6 
REMARK    5  A    between atoms: O_23  and  C_7 
REMARK       I    between atoms: C_12  and  N_13 
REMARK    6  A    between atoms: C_20  and  C_12 
REMARK    7  A    between atoms: N_13  and  C_21 
REMARK    8  A    between atoms: O_14  and  C_20 
REMARK    9  A    between atoms: C_15  and  O_14 
ROOT
ATOM      1  C   UNL d   1     -45.592  12.717  22.680  0.00  0.00     0.105 A 
ATOM      2  C   UNL d   1     -45.479  13.275  22.093  0.00  0.00     0.015 A 
ATOM      3  C   UNL d   1     -45.018  12.159  22.838  0.00  0.00     0.015 A 
ATOM      4  C   UNL d   1     -44.198  12.710  21.813  0.00  0.00     0.085 A 
ATOM      5  C   UNL d   1     -44.793  13.292  21.647  0.00  0.00     0.020 A 
ATOM      6  C   UNL d   1     -44.330  12.166  22.399  0.00  0.00     0.020 A 
ENDROOT
BRANCH   1   7
ATOM      7  S   UNL d   1     -46.297  12.712  23.128  0.00  0.00     0.287 S 
ATOM      8  O   UNL d   1     -46.060  13.418  23.512  0.00  0.00    -0.198 OA
ATOM      9  O   UNL d   1     -46.540  12.008  22.749  0.00  0.00    -0.198 OA
BRANCH   7  10
ATOM     10  N   UNL d   1     -47.004  12.709  23.578  0.00  0.00    -0.139 NA
BRANCH  10  11
ATOM     11  C   UNL d   1     -47.722  12.914  23.230  0.00  0.00     0.182 A 
ATOM     12  N   UNL d   1     -47.874  13.693  23.046  0.00  0.00    -0.185 NA
ATOM     13  C   UNL d   1     -48.611  13.912  22.688  0.00  0.00     0.274 A 
ATOM     14  N   UNL d   1     -49.166  13.348  22.528  0.00  0.00    -0.181 NA
ATOM     15  C   UNL d   1     -49.039  12.566  22.702  0.00  0.00     0.185 A 
ATOM     16  C   UNL d   1     -48.287  12.329  23.069  0.00  0.00     0.084 A 
BRANCH  13  17
ATOM     17  O   UNL d   1     -48.761  14.711  22.502  0.00  0.00    -0.297 OA
ATOM     18  C   UNL d   1     -49.107  15.236  23.055  0.00  0.00     0.185 C 
ENDBRANCH  13  17
BRANCH  15  19
ATOM     19  O   UNL d   1     -49.626  12.001  22.527  0.00  0.00    -0.312 OA
ATOM     20  C   UNL d   1     -50.184  11.818  23.129  0.00  0.00     0.183 C 
ENDBRANCH  15  19
ENDBRANCH  10  11
ENDBRANCH   7  10
ENDBRANCH   1   7
BRANCH   4  21
ATOM     21  N   UNL d   1     -43.491  12.699  21.379  0.00  0.00    -0.206 NA
ATOM     22  C   UNL d   1     -43.020  13.372  21.349  0.00  0.00     0.304 C 
ATOM     23  O   UNL d   1     -43.253  14.054  21.750  0.00  0.00    -0.263 OA
BRANCH  22  24
ATOM     24  C   UNL d   1     -42.310  13.361  20.914  0.00  0.00     0.185 C 
BRANCH  24  25
ATOM     25  O   UNL d   1     -41.670  13.805  21.169  0.00  0.00    -0.299 OA
BRANCH  25  26
ATOM     26  C   UNL d   1     -41.036  14.010  20.631  0.00  0.00     0.111 A 
ATOM     27  C   UNL d   1     -40.273  14.143  20.907  0.00  0.00     0.081 A 
ATOM     28 CL   UNL d   1     -40.100  14.079  21.738  0.00  0.00    -0.080 Cl
ATOM     29  C   UNL d   1     -39.675  14.339  20.380  0.00  0.00     0.013 A 
ATOM     30  C   UNL d   1     -39.848  14.402  19.561  0.00  0.00     0.001 A 
ATOM     31  C   UNL d   1     -40.614  14.267  19.289  0.00  0.00     0.002 A 
ATOM     32  C   UNL d   1     -41.212  14.071  19.817  0.00  0.00     0.026 A 
ENDBRANCH  25  26
ENDBRANCH  24  25
ENDBRANCH  22  24
ENDBRANCH   4  21
TORSDOF 9
ENDMDL
MODEL 2
REMARK VINA RESULT:      -5.3      2.991      7.496
REMARK  9 active torsions:
REMARK  status: ('A' for Active; 'I' for Inactive)
REMARK    1  A    between atoms: N_2  and  S_1 
REMARK    2  A    between atoms: C_9  and  S_1 
REMARK    3  A    between atoms: C_4  and  N_2 
REMARK    4  A    between atoms: O_22  and  C_6 
REMARK    5  A    between atoms: O_23  and  C_7 
REMARK       I    between atoms: C_12  and  N_13 
REMARK    6  A    between atoms: C_20  and  C_12 
REMARK    7  A    between atoms: N_13  and  C_21 
REMARK    8  A    between atoms: O_14  and  C_20 
REMARK    9  A    between atoms: C_15  and  O_14 
ROOT
ATOM      1  C   UNL d   1     -41.015  14.404  20.354  0.00  0.00     0.105 A 
ATOM      2  C   UNL d   1     -40.991  13.614  20.564  0.00  0.00     0.015 A 
ATOM      3  C   UNL d   1     -41.622  14.884  20.612  0.00  0.00     0.015 A 
ATOM      4  C   UNL d   1     -42.202  13.782  21.302  0.00  0.00     0.085 A 
ATOM      5  C   UNL d   1     -41.571  13.281  21.035  0.00  0.00     0.020 A 
ATOM      6  C   UNL d   1     -42.206  14.562  21.083  0.00  0.00     0.020 A 
ENDROOT
BRANCH   1   7
ATOM      7  S   UNL d   1     -40.417  14.732  19.872  0.00  0.00     0.287 S 
ATOM      8  O   UNL d   1     -40.813  15.471  19.880  0.00  0.00    -0.198 OA
ATOM      9  O   UNL d   1     -40.016  13.999  19.859  0.00  0.00    -0.198 OA
BRANCH   7  10
ATOM     10  N   UNL d   1     -39.817  15.063  19.389  0.00  0.00    -0.139 NA
BRANCH  10  11
ATOM     11  C   UNL d   1     -39.847  14.979  18.569  0.00  0.00     0.182 A 
ATOM     12  N   UNL d   1     -40.310  15.483  18.127  0.00  0.00    -0.185 NA
ATOM     13  C   UNL d   1     -40.345  15.402  17.284  0.00  0.00     0.274 A 
ATOM     14  N   UNL d   1     -39.921  14.824  16.915  0.00  0.00    -0.181 NA
ATOM     15  C   UNL d   1     -39.452  14.309  17.332  0.00  0.00     0.185 A 
ATOM     16  C   UNL d   1     -39.408  14.382  18.198  0.00  0.00     0.084 A 
BRANCH  13  17
ATOM     17  O   UNL d   1     -40.821  15.922  16.837  0.00  0.00    -0.297 OA
ATOM     18  C   UNL d   1     -41.557  15.683  16.518  0.00  0.00     0.185 C 
ENDBRANCH  13  17
BRANCH  15  19
ATOM     19  O   UNL d   1     -39.022  13.720  16.929  0.00  0.00    -0.312 OA
ATOM     20  C   UNL d   1     -38.224  13.889  16.726  0.00  0.00     0.183 C 
ENDBRANCH  15  19
ENDBRANCH  10  11
ENDBRANCH   7  10
ENDBRANCH   1   7
BRANCH   4  21
ATOM     21  N   UNL d   1     -42.806  13.475  21.781  0.00  0.00    -0.206 NA
ATOM     22  C   UNL d   1     -43.414  13.039  21.443  0.00  0.00     0.304 C 
ATOM     23  O   UNL d   1     -43.421  12.908  20.628  0.00  0.00    -0.263 OA
BRANCH  22  24
ATOM     24  C   UNL d   1     -44.020  12.731  21.924  0.00  0.00     0.185 C 
BRANCH  24  25
ATOM     25  O   UNL d   1     -44.752  13.100  21.941  0.00  0.00    -0.299 OA
BRANCH  25  26
ATOM     26  C   UNL d   1     -45.370  12.823  22.465  0.00  0.00     0.111 A 
ATOM     27  C   UNL d   1     -46.000  13.311  22.672  0.00  0.00     0.081 A 
ATOM     28 CL   UNL d   1     -46.046  14.103  22.367  0.00  0.00    -0.080 Cl
ATOM     29  C   UNL d   1     -46.585  13.032  23.176  0.00  0.00     0.013 A 
ATOM     30  C   UNL d   1     -46.537  12.250  23.475  0.00  0.00     0.001 A 
ATOM     31  C   UNL d   1     -45.905  11.765  23.265  0.00  0.00     0.002 A 
ATOM     32  C   UNL d   1     -45.319  12.044  22.762  0.00  0.00     0.026 A 
ENDBRANCH  25  26
ENDBRANCH  24  25
ENDBRANCH  22  24
ENDBRANCH   4  21
TORSDOF 9
ENDMDL
MODEL 3
REMARK VINA RESULT:      -3.9      2.198      7.048
REMARK  9 active torsions:
REMARK  status: ('A' for Active; 'I' for Inactive)
REMARK    1  A    between atoms: N_2  and  S_1 
REMARK    2  A    between atoms: C_9  and  S_1 
REMARK    3  A    between atoms: C_4  and  N_2 
REMARK    4  A    between atoms: O_22  and  C_6 
REMARK    5  A    between atoms: O_23  and  C_7 
REMARK       I    between atoms: C_12  and  N_13 
REMARK    6  A    between atoms: C_20  and  C_12 
REMARK    7  A    between atoms: N_13  and  C_21 
REMARK    8  A    between atoms: O_14  and  C_20 
REMARK    9  A    between atoms: C_15  and  O_14 
ROOT
ATOM      1  C   UNL d   1     -43.458  13.089  21.457  0.00  0.00     0.105 A 
ATOM      2  C   UNL d   1     -43.864  12.391  21.589  0.00  0.00     0.015 A 
ATOM      3  C   UNL d   1     -43.843  13.808  21.502  0.00  0.00     0.015 A 
ATOM      4  C   UNL d   1     -45.059  13.138  21.814  0.00  0.00     0.085 A 
ATOM      5  C   UNL d   1     -44.662  12.390  21.768  0.00  0.00     0.020 A 
ATOM      6  C   UNL d   1     -44.639  13.818  21.680  0.00  0.00     0.020 A 
ENDROOT
BRANCH   1   7
ATOM      7  S   UNL d   1     -42.643  13.077  21.275  0.00  0.00     0.287 S 
ATOM      8  O   UNL d   1     -42.464  13.337  22.051  0.00  0.00    -0.198 OA
ATOM      9  O   UNL d   1     -42.813  12.817  20.499  0.00  0.00    -0.198 OA
BRANCH   7  10
ATOM     10  N   UNL d   1     -41.825  13.064  21.095  0.00  0.00    -0.139 NA
BRANCH  10  11
ATOM     11  C   UNL d   1     -41.462  13.722  20.755  0.00  0.00     0.182 A 
ATOM     12  N   UNL d   1     -41.359  13.755  19.947  0.00  0.00    -0.185 NA
ATOM     13  C   UNL d   1     -40.987  14.429  19.591  0.00  0.00     0.274 A 
ATOM     14  N   UNL d   1     -40.731  15.040  20.051  0.00  0.00    -0.181 NA
ATOM     15  C   UNL d   1     -40.822  15.031  20.857  0.00  0.00     0.185 A 
ATOM     16  C   UNL d   1     -41.202  14.346  21.234  0.00  0.00     0.084 A 
BRANCH  13  17
ATOM     17  O   UNL d   1     -40.885  14.456  18.763  0.00  0.00    -0.297 OA
ATOM     18  C   UNL d   1     -40.237  14.085  18.385  0.00  0.00     0.185 C 
ENDBRANCH  13  17
BRANCH  15  19
ATOM     19  O   UNL d   1     -40.550  15.675  21.313  0.00  0.00    -0.312 OA
ATOM     20  C   UNL d   1     -39.758  15.648  21.594  0.00  0.00     0.183 C 
ENDBRANCH  15  19
ENDBRANCH  10  11
ENDBRANCH   7  10
ENDBRANCH   1   7
BRANCH   4  21
ATOM     21  N   UNL d   1     -45.869  13.172  21.993  0.00  0.00    -0.206 NA
ATOM     22  C   UNL d   1     -46.121  13.050  22.766  0.00  0.00     0.304 C 
ATOM     23  O   UNL d   1     -45.568  12.894  23.358  0.00  0.00    -0.263 OA
BRANCH  22  24
ATOM     24  C   UNL d   1     -46.933  13.084  22.946  0.00  0.00     0.185 C 
BRANCH  24  25
ATOM     25  O   UNL d   1     -47.319  12.411  23.213  0.00  0.00    -0.299 OA
BRANCH  25  26
ATOM     26  C   UNL d   1     -48.168  12.407  23.325  0.00  0.00     0.111 A 
ATOM     27  C   UNL d   1     -48.562  11.723  23.554  0.00  0.00     0.081 A 
ATOM     28 CL   UNL d   1     -48.129  11.002  23.684  0.00  0.00    -0.080 Cl
ATOM     29  C   UNL d   1     -49.376  11.734  23.656  0.00  0.00     0.013 A 
ATOM     30  C   UNL d   1     -49.801  12.446  23.527  0.00  0.00     0.001 A 
ATOM     31  C   UNL d   1     -49.402  13.129  23.298  0.00  0.00     0.002 A 
ATOM     32  C   UNL d   1     -48.588  13.118  23.195  0.00  0.00     0.026 A 
ENDBRANCH  25  26
ENDBRANCH  24  25
ENDBRANCH  22  24
ENDBRANCH   4  21
TORSDOF 9
ENDMDL
