MODEL 1
REMARK VINA RESULT:       1.0      0.000      0.000
REMARK  8 active torsions:
REMARK  status: ('A' for Active; 'I' for Inactive)
REMARK    1  A    between atoms: C_5  and  C_1 
REMARK    2  A    between atoms: N_6  and  C_2 
REMARK    3  A    between atoms: C_7  and  C_5 
REMARK    4  A    between atoms: C_8  and  C_5 
REMARK    5  A    between atoms: O_13  and  C_7 
REMARK    6  A    between atoms: C_21  and  N_12 
REMARK    7  A    between atoms: C_19  and  O_13 
REMARK    8  A    between atoms: C_20  and  C_19 
ROOT
ATOM      1  C   UNL d   1      57.649  -0.680  30.833  0.00  0.00     0.122 A 
ATOM      2  C   UNL d   1      58.173  -0.147  31.174  0.00  0.00     0.166 A 
ATOM      3  N   UNL d   1      57.994   0.172  31.909  0.00  0.00    -0.225 NA
ATOM      4  N   UNL d   1      56.953  -0.893  31.223  0.00  0.00    -0.241 NA
ATOM      5  C   UNL d   1      57.310  -0.032  32.301  0.00  0.00     0.101 A 
ATOM      6  C   UNL d   1      56.785  -0.569  31.955  0.00  0.00     0.099 A 
ATOM      7  C   UNL d   1      56.097  -0.777  32.344  0.00  0.00     0.021 A 
ATOM      8  C   UNL d   1      57.136   0.292  33.039  0.00  0.00     0.021 A 
ATOM      9  C   UNL d   1      56.441   0.079  33.429  0.00  0.00     0.002 A 
ATOM     10  C   UNL d   1      55.923  -0.453  33.083  0.00  0.00     0.002 A 
ENDROOT
BRANCH   1  11
ATOM     11  C   UNL d   1      57.814  -1.013  30.089  0.00  0.00     0.105 C 
BRANCH  11  12
ATOM     12  C   UNL d   1      57.836  -1.833  29.987  0.00  0.00     0.303 C 
ATOM     13  O   UNL d   1      57.356  -2.308  30.450  0.00  0.00    -0.259 OA
BRANCH  12  14
ATOM     14  O   UNL d   1      58.335  -2.154  29.429  0.00  0.00    -0.271 OA
BRANCH  14  15
ATOM     15  C   UNL d   1      58.527  -2.782  28.940  0.00  0.00     0.126 C 
BRANCH  15  16
ATOM     16  C   UNL d   1      59.283  -3.098  28.952  0.00  0.00     0.025 A 
ATOM     17  C   UNL d   1      59.383  -3.893  29.132  0.00  0.00     0.002 A 
ATOM     18  C   UNL d   1      60.144  -4.215  29.145  0.00  0.00     0.000 A 
ATOM     19  C   UNL d   1      60.793  -3.739  28.978  0.00  0.00     0.000 A 
ATOM     20  C   UNL d   1      60.681  -2.938  28.797  0.00  0.00     0.000 A 
ATOM     21  C   UNL d   1      59.929  -2.624  28.786  0.00  0.00     0.002 A 
ENDBRANCH  15  16
ENDBRANCH  14  15
ENDBRANCH  12  14
ENDBRANCH  11  12
BRANCH  11  22
ATOM     22  C   UNL d   1      57.958  -0.512  29.441  0.00  0.00     0.129 C 
ATOM     23  N   UNL d   1      57.362  -0.445  28.703  0.00  0.00    -0.146 N 
ENDBRANCH  11  22
ENDBRANCH   1  11
BRANCH   2  24
ATOM     24  N   UNL d   1      58.863   0.061  30.782  0.00  0.00    -0.285 N 
ATOM     25  C   UNL d   1      58.826   0.477  30.079  0.00  0.00     0.101 A 
ATOM     26  C   UNL d   1      59.524   0.682  29.689  0.00  0.00     0.100 A 
ATOM     27  N   UNL d   1      60.256   0.467  30.009  0.00  0.00    -0.300 N 
ATOM     28  C   UNL d   1      60.289   0.048  30.718  0.00  0.00     0.100 A 
ATOM     29  C   UNL d   1      59.595  -0.154  31.102  0.00  0.00     0.101 A 
BRANCH  27  30
ATOM     30  C   UNL d   1      60.957   0.676  29.613  0.00  0.00     0.080 C 
ATOM     31  C   UNL d   1      61.129   0.324  28.885  0.00  0.00     0.021 C 
ENDBRANCH  27  30
ENDBRANCH   2  24
TORSDOF 8
ENDMDL
