MODEL 1
REMARK VINA RESULT:      -9.4      0.000      0.000
REMARK  4 active torsions:
REMARK  status: ('A' for Active; 'I' for Inactive)
REMARK    1  A    between atoms: C_18  and  N_4 
REMARK    2  A    between atoms: C_11  and  C_6 
REMARK       I    between atoms: N_15  and  C_11 
REMARK    3  A    between atoms: C_26  and  N_15 
REMARK    4  A    between atoms: C_17  and  C_26 
ROOT
ATOM      1  C   UNL d   1      52.595  33.410  53.624  0.00  0.00     0.155 A 
ATOM      2  C   UNL d   1      52.432  34.215  53.687  0.00  0.00     0.091 A 
ATOM      3  N   UNL d   1      53.244  33.097  54.029  0.00  0.00    -0.210 NA
ATOM      4  N   UNL d   1      52.119  32.936  53.168  0.00  0.00    -0.275 N 
ATOM      5  C   UNL d   1      51.478  33.245  52.768  0.00  0.00     0.175 A 
ATOM      6  C   UNL d   1      51.315  34.048  52.831  0.00  0.00     0.094 A 
ATOM      7  N   UNL d   1      53.563  34.389  54.556  0.00  0.00    -0.258 N 
ATOM      8  C   UNL d   1      53.729  33.572  54.492  0.00  0.00     0.152 A 
ATOM      9  C   UNL d   1      52.916  34.717  54.156  0.00  0.00     0.269 A 
ATOM     10  C   UNL d   1      51.787  34.541  53.289  0.00  0.00     0.016 A 
ATOM     11  C   UNL d   1      54.369  33.257  54.889  0.00  0.00     0.035 A 
ATOM     12  N   UNL d   1      50.989  32.761  52.300  0.00  0.00    -0.128 N 
ATOM     13  C   UNL d   1      54.041  34.877  55.017  0.00  0.00     0.084 A 
ATOM     14  O   UNL d   1      52.748  35.513  54.213  0.00  0.00    -0.266 OA
ATOM     15  C   UNL d   1      54.686  34.549  55.415  0.00  0.00     0.019 A 
ATOM     16  C   UNL d   1      54.852  33.732  55.351  0.00  0.00     0.005 A 
ATOM     17  C   UNL d   1      54.533  32.446  54.826  0.00  0.00     0.003 C 
ENDROOT
BRANCH   6  18
ATOM     18  C   UNL d   1      50.664  34.370  52.427  0.00  0.00     0.282 C 
ATOM     19  N   UNL d   1      50.032  34.693  52.847  0.00  0.00    -0.204 NA
ATOM     20  O   UNL d   1      50.651  34.364  51.599  0.00  0.00    -0.265 OA
BRANCH  19  21
ATOM     21  C   UNL d   1      49.389  35.010  52.447  0.00  0.00     0.127 C 
BRANCH  21  22
ATOM     22  C   UNL d   1      48.814  35.446  52.857  0.00  0.00     0.119 A 
ATOM     23  O   UNL d   1      48.932  35.876  53.553  0.00  0.00    -0.304 OA
ATOM     24  C   UNL d   1      48.209  36.220  53.762  0.00  0.00     0.123 A 
ATOM     25  C   UNL d   1      47.651  36.002  53.197  0.00  0.00     0.029 A 
ATOM     26  C   UNL d   1      48.028  35.521  52.635  0.00  0.00     0.028 A 
ENDBRANCH  21  22
ENDBRANCH  19  21
ENDBRANCH   6  18
BRANCH   4  27
ATOM     27  C   UNL d   1      52.283  32.125  53.104  0.00  0.00     0.067 A 
ATOM     28  C   UNL d   1      51.917  31.530  53.540  0.00  0.00     0.018 A 
ATOM     29  C   UNL d   1      52.244  30.809  53.304  0.00  0.00     0.002 A 
ATOM     30  C   UNL d   1      52.818  30.960  52.716  0.00  0.00     0.002 A 
ATOM     31  C   UNL d   1      52.834  31.775  52.602  0.00  0.00     0.018 A 
ENDBRANCH   4  27
TORSDOF 4
ENDMDL
MODEL 2
REMARK VINA RESULT:      -8.3      2.036      4.470
REMARK  4 active torsions:
REMARK  status: ('A' for Active; 'I' for Inactive)
REMARK    1  A    between atoms: C_18  and  N_4 
REMARK    2  A    between atoms: C_11  and  C_6 
REMARK       I    between atoms: N_15  and  C_11 
REMARK    3  A    between atoms: C_26  and  N_15 
REMARK    4  A    between atoms: C_17  and  C_26 
ROOT
ATOM      1  C   UNL d   1      52.766  33.429  53.708  0.00  0.00     0.155 A 
ATOM      2  C   UNL d   1      53.407  33.009  54.012  0.00  0.00     0.091 A 
ATOM      3  N   UNL d   1      52.687  34.232  53.888  0.00  0.00    -0.210 NA
ATOM      4  N   UNL d   1      52.223  33.051  53.237  0.00  0.00    -0.275 N 
ATOM      5  C   UNL d   1      52.301  32.258  53.058  0.00  0.00     0.175 A 
ATOM      6  C   UNL d   1      52.940  31.840  53.362  0.00  0.00     0.094 A 
ATOM      7  N   UNL d   1      53.884  34.193  54.673  0.00  0.00    -0.258 N 
ATOM      8  C   UNL d   1      53.234  34.619  54.364  0.00  0.00     0.152 A 
ATOM      9  C   UNL d   1      53.976  33.388  54.501  0.00  0.00     0.269 A 
ATOM     10  C   UNL d   1      53.497  32.207  53.840  0.00  0.00     0.016 A 
ATOM     11  C   UNL d   1      53.151  35.412  54.539  0.00  0.00     0.035 A 
ATOM     12  N   UNL d   1      51.746  31.870  52.576  0.00  0.00    -0.128 N 
ATOM     13  C   UNL d   1      54.439  34.568  55.152  0.00  0.00     0.084 A 
ATOM     14  O   UNL d   1      54.607  32.965  54.799  0.00  0.00    -0.266 OA
ATOM     15  C   UNL d   1      54.346  35.371  55.323  0.00  0.00     0.019 A 
ATOM     16  C   UNL d   1      53.697  35.797  55.013  0.00  0.00     0.005 A 
ATOM     17  C   UNL d   1      52.506  35.835  54.232  0.00  0.00     0.003 C 
ENDROOT
BRANCH   6  18
ATOM     18  C   UNL d   1      53.025  31.032  53.185  0.00  0.00     0.282 C 
ATOM     19  N   UNL d   1      53.068  30.475  53.793  0.00  0.00    -0.204 NA
ATOM     20  O   UNL d   1      53.067  30.787  52.395  0.00  0.00    -0.265 OA
BRANCH  19  21
ATOM     21  C   UNL d   1      53.152  29.678  53.617  0.00  0.00     0.127 C 
BRANCH  21  22
ATOM     22  C   UNL d   1      53.276  29.126  54.224  0.00  0.00     0.119 A 
ATOM     23  O   UNL d   1      52.901  29.119  54.961  0.00  0.00    -0.304 OA
ATOM     24  C   UNL d   1      53.193  28.472  55.386  0.00  0.00     0.123 A 
ATOM     25  C   UNL d   1      53.745  28.086  54.911  0.00  0.00     0.029 A 
ATOM     26  C   UNL d   1      53.795  28.493  54.191  0.00  0.00     0.028 A 
ENDBRANCH  21  22
ENDBRANCH  19  21
ENDBRANCH   6  18
BRANCH   4  27
ATOM     27  C   UNL d   1      51.578  33.474  52.930  0.00  0.00     0.067 A 
ATOM     28  C   UNL d   1      50.837  33.535  53.285  0.00  0.00     0.018 A 
ATOM     29  C   UNL d   1      50.363  34.003  52.797  0.00  0.00     0.002 A 
ATOM     30  C   UNL d   1      50.816  34.234  52.133  0.00  0.00     0.002 A 
ATOM     31  C   UNL d   1      51.563  33.902  52.226  0.00  0.00     0.018 A 
ENDBRANCH   4  27
TORSDOF 4
ENDMDL
MODEL 3
REMARK VINA RESULT:      -7.8      1.210      2.935
REMARK  4 active torsions:
REMARK  status: ('A' for Active; 'I' for Inactive)
REMARK    1  A    between atoms: C_18  and  N_4 
REMARK    2  A    between atoms: C_11  and  C_6 
REMARK       I    between atoms: N_15  and  C_11 
REMARK    3  A    between atoms: C_26  and  N_15 
REMARK    4  A    between atoms: C_17  and  C_26 
ROOT
ATOM      1  C   UNL d   1      52.873  32.470  53.615  0.00  0.00     0.155 A 
ATOM      2  C   UNL d   1      52.129  32.318  53.296  0.00  0.00     0.091 A 
ATOM      3  N   UNL d   1      53.394  31.840  53.744  0.00  0.00    -0.210 NA
ATOM      4  N   UNL d   1      53.086  33.232  53.799  0.00  0.00    -0.275 N 
ATOM      5  C   UNL d   1      52.572  33.854  53.672  0.00  0.00     0.175 A 
ATOM      6  C   UNL d   1      51.830  33.702  53.353  0.00  0.00     0.094 A 
ATOM      7  N   UNL d   1      52.428  30.914  53.236  0.00  0.00    -0.258 N 
ATOM      8  C   UNL d   1      53.183  31.068  53.560  0.00  0.00     0.152 A 
ATOM      9  C   UNL d   1      51.896  31.534  53.101  0.00  0.00     0.269 A 
ATOM     10  C   UNL d   1      51.600  32.937  53.162  0.00  0.00     0.016 A 
ATOM     11  C   UNL d   1      53.701  30.450  53.690  0.00  0.00     0.035 A 
ATOM     12  N   UNL d   1      52.788  34.634  53.859  0.00  0.00    -0.128 N 
ATOM     13  C   UNL d   1      52.204  30.144  53.047  0.00  0.00     0.084 A 
ATOM     14  O   UNL d   1      51.157  31.392  52.785  0.00  0.00    -0.266 OA
ATOM     15  C   UNL d   1      52.735  29.525  53.182  0.00  0.00     0.019 A 
ATOM     16  C   UNL d   1      53.490  29.680  53.506  0.00  0.00     0.005 A 
ATOM     17  C   UNL d   1      54.451  30.603  54.011  0.00  0.00     0.003 C 
ENDROOT
BRANCH   6  18
ATOM     18  C   UNL d   1      51.302  34.330  53.221  0.00  0.00     0.282 C 
ATOM     19  N   UNL d   1      50.684  34.248  52.680  0.00  0.00    -0.204 NA
ATOM     20  O   UNL d   1      51.398  35.041  53.635  0.00  0.00    -0.265 OA
BRANCH  19  21
ATOM     21  C   UNL d   1      50.163  34.868  52.550  0.00  0.00     0.127 C 
BRANCH  21  22
ATOM     22  C   UNL d   1      49.546  34.790  52.001  0.00  0.00     0.119 A 
ATOM     23  O   UNL d   1      49.608  34.471  51.240  0.00  0.00    -0.304 OA
ATOM     24  C   UNL d   1      48.858  34.503  50.893  0.00  0.00     0.123 A 
ATOM     25  C   UNL d   1      48.340  34.840  51.437  0.00  0.00     0.029 A 
ATOM     26  C   UNL d   1      48.768  35.018  52.125  0.00  0.00     0.028 A 
ENDBRANCH  21  22
ENDBRANCH  19  21
ENDBRANCH   6  18
BRANCH   4  27
ATOM     27  C   UNL d   1      53.835  33.385  54.120  0.00  0.00     0.067 A 
ATOM     28  C   UNL d   1      54.006  33.436  54.925  0.00  0.00     0.018 A 
ATOM     29  C   UNL d   1      54.813  33.595  55.000  0.00  0.00     0.002 A 
ATOM     30  C   UNL d   1      55.145  33.643  54.233  0.00  0.00     0.002 A 
ATOM     31  C   UNL d   1      54.532  33.512  53.700  0.00  0.00     0.018 A 
ENDBRANCH   4  27
TORSDOF 4
ENDMDL
MODEL 4
REMARK VINA RESULT:      -6.9      2.212      5.015
REMARK  4 active torsions:
REMARK  status: ('A' for Active; 'I' for Inactive)
REMARK    1  A    between atoms: C_18  and  N_4 
REMARK    2  A    between atoms: C_11  and  C_6 
REMARK       I    between atoms: N_15  and  C_11 
REMARK    3  A    between atoms: C_26  and  N_15 
REMARK    4  A    between atoms: C_17  and  C_26 
ROOT
ATOM      1  C   UNL d   1      52.999  33.053  53.665  0.00  0.00     0.155 A 
ATOM      2  C   UNL d   1      52.399  32.606  53.320  0.00  0.00     0.091 A 
ATOM      3  N   UNL d   1      52.885  33.864  53.778  0.00  0.00    -0.210 NA
ATOM      4  N   UNL d   1      53.693  32.694  53.888  0.00  0.00    -0.275 N 
ATOM      5  C   UNL d   1      53.807  31.893  53.776  0.00  0.00     0.175 A 
ATOM      6  C   UNL d   1      53.208  31.447  53.433  0.00  0.00     0.094 A 
ATOM      7  N   UNL d   1      51.576  33.778  53.204  0.00  0.00    -0.258 N 
ATOM      8  C   UNL d   1      52.185  34.232  53.554  0.00  0.00     0.152 A 
ATOM      9  C   UNL d   1      51.677  32.965  53.084  0.00  0.00     0.269 A 
ATOM     10  C   UNL d   1      52.501  31.796  53.201  0.00  0.00     0.016 A 
ATOM     11  C   UNL d   1      52.078  35.033  53.668  0.00  0.00     0.035 A 
ATOM     12  N   UNL d   1      54.516  31.524  54.004  0.00  0.00    -0.128 N 
ATOM     13  C   UNL d   1      50.869  34.134  52.975  0.00  0.00     0.084 A 
ATOM     14  O   UNL d   1      51.087  32.515  52.744  0.00  0.00    -0.266 OA
ATOM     15  C   UNL d   1      50.770  34.946  53.094  0.00  0.00     0.019 A 
ATOM     16  C   UNL d   1      51.379  35.399  53.444  0.00  0.00     0.005 A 
ATOM     17  C   UNL d   1      52.682  35.484  54.015  0.00  0.00     0.003 C 
ENDROOT
BRANCH   6  18
ATOM     18  C   UNL d   1      53.316  30.632  53.316  0.00  0.00     0.282 C 
ATOM     19  N   UNL d   1      53.180  30.102  53.933  0.00  0.00    -0.204 NA
ATOM     20  O   UNL d   1      53.563  30.352  52.577  0.00  0.00    -0.265 OA
BRANCH  19  21
ATOM     21  C   UNL d   1      53.287  29.296  53.817  0.00  0.00     0.127 C 
BRANCH  21  22
ATOM     22  C   UNL d   1      53.340  28.783  54.467  0.00  0.00     0.119 A 
ATOM     23  O   UNL d   1      52.924  28.852  55.178  0.00  0.00    -0.304 OA
ATOM     24  C   UNL d   1      53.149  28.221  55.664  0.00  0.00     0.123 A 
ATOM     25  C   UNL d   1      53.701  27.768  55.252  0.00  0.00     0.029 A 
ATOM     26  C   UNL d   1      53.818  28.118  54.509  0.00  0.00     0.028 A 
ENDBRANCH  21  22
ENDBRANCH  19  21
ENDBRANCH   6  18
BRANCH   4  27
ATOM     27  C   UNL d   1      54.297  33.144  54.235  0.00  0.00     0.067 A 
ATOM     28  C   UNL d   1      54.371  33.302  55.041  0.00  0.00     0.018 A 
ATOM     29  C   UNL d   1      55.046  33.766  55.144  0.00  0.00     0.002 A 
ATOM     30  C   UNL d   1      55.393  33.897  54.395  0.00  0.00     0.002 A 
ATOM     31  C   UNL d   1      54.923  33.509  53.843  0.00  0.00     0.018 A 
ENDBRANCH   4  27
TORSDOF 4
ENDMDL
