MODEL 1
REMARK VINA RESULT:     -10.4      0.000      0.000
REMARK  2 active torsions:
REMARK  status: ('A' for Active; 'I' for Inactive)
REMARK    1  A    between atoms: C_5  and  N_1 
REMARK    2  A    between atoms: C_7  and  C_5 
ROOT
ATOM      1  N   UNL d   1      53.255  32.326  53.416  0.00  0.00    -0.288 N 
ATOM      2  C   UNL d   1      52.671  32.635  52.930  0.00  0.00     0.183 A 
ATOM      3  N   UNL d   1      52.252  31.981  52.589  0.00  0.00    -0.224 NA
ATOM      4  C   UNL d   1      53.222  31.521  53.396  0.00  0.00     0.083 A 
ATOM      5  C   UNL d   1      52.585  31.302  52.871  0.00  0.00     0.099 A 
ATOM      6  C   UNL d   1      53.667  30.936  53.769  0.00  0.00     0.019 A 
ATOM      7  C   UNL d   1      52.443  30.485  52.761  0.00  0.00     0.021 A 
ATOM      8  C   UNL d   1      53.498  30.140  53.637  0.00  0.00     0.002 A 
ATOM      9  C   UNL d   1      52.882  29.928  53.130  0.00  0.00     0.002 A 
ENDROOT
BRANCH   1  10
ATOM     10  C   UNL d   1      53.844  32.102  53.905  0.00  0.00     0.066 C 
ATOM     11  C   UNL d   1      54.049  31.308  53.991  0.00  0.00     0.019 C 
BRANCH  10  12
ATOM     12  C   UNL d   1      54.251  32.680  54.328  0.00  0.00     0.016 A 
ATOM     13  C   UNL d   1      54.874  33.089  53.974  0.00  0.00     0.001 A 
ATOM     14  C   UNL d   1      55.282  33.669  54.398  0.00  0.00     0.000 A 
ATOM     15  C   UNL d   1      55.067  33.841  55.180  0.00  0.00     0.000 A 
ATOM     16  C   UNL d   1      54.445  33.432  55.534  0.00  0.00     0.000 A 
ATOM     17  C   UNL d   1      54.037  32.851  55.107  0.00  0.00     0.001 A 
ENDBRANCH  10  12
ENDBRANCH   1  10
TORSDOF 2
ENDMDL
MODEL 2
REMARK VINA RESULT:     -10.0      1.823      3.519
REMARK  2 active torsions:
REMARK  status: ('A' for Active; 'I' for Inactive)
REMARK    1  A    between atoms: C_5  and  N_1 
REMARK    2  A    between atoms: C_7  and  C_5 
ROOT
ATOM      1  N   UNL d   1      52.859  34.459  54.028  0.00  0.00    -0.288 N 
ATOM      2  C   UNL d   1      53.054  35.134  54.451  0.00  0.00     0.183 A 
ATOM      3  N   UNL d   1      53.673  34.923  54.992  0.00  0.00    -0.224 NA
ATOM      4  C   UNL d   1      53.319  33.845  54.273  0.00  0.00     0.083 A 
ATOM      5  C   UNL d   1      53.837  34.140  54.885  0.00  0.00     0.099 A 
ATOM      6  C   UNL d   1      53.361  33.054  54.044  0.00  0.00     0.019 A 
ATOM      7  C   UNL d   1      54.372  33.597  55.229  0.00  0.00     0.021 A 
ATOM      8  C   UNL d   1      53.902  32.547  54.406  0.00  0.00     0.002 A 
ATOM      9  C   UNL d   1      54.402  32.832  54.998  0.00  0.00     0.002 A 
ENDROOT
BRANCH   1  10
ATOM     10  C   UNL d   1      52.613  33.849  53.576  0.00  0.00     0.066 C 
ATOM     11  C   UNL d   1      53.046  33.147  53.536  0.00  0.00     0.019 C 
BRANCH  10  12
ATOM     12  C   UNL d   1      51.915  33.927  53.146  0.00  0.00     0.016 A 
ATOM     13  C   UNL d   1      51.936  34.218  52.374  0.00  0.00     0.001 A 
ATOM     14  C   UNL d   1      51.237  34.296  51.942  0.00  0.00     0.000 A 
ATOM     15  C   UNL d   1      50.512  34.084  52.284  0.00  0.00     0.000 A 
ATOM     16  C   UNL d   1      50.490  33.794  53.055  0.00  0.00     0.000 A 
ATOM     17  C   UNL d   1      51.193  33.716  53.486  0.00  0.00     0.001 A 
ENDBRANCH  10  12
ENDBRANCH   1  10
TORSDOF 2
ENDMDL
MODEL 3
REMARK VINA RESULT:      -9.9      0.817      3.048
REMARK  2 active torsions:
REMARK  status: ('A' for Active; 'I' for Inactive)
REMARK    1  A    between atoms: C_5  and  N_1 
REMARK    2  A    between atoms: C_7  and  C_5 
ROOT
ATOM      1  N   UNL d   1      52.937  32.679  53.663  0.00  0.00    -0.288 N 
ATOM      2  C   UNL d   1      52.285  33.177  53.636  0.00  0.00     0.183 A 
ATOM      3  N   UNL d   1      52.477  33.871  54.085  0.00  0.00    -0.224 NA
ATOM      4  C   UNL d   1      53.519  33.023  54.101  0.00  0.00     0.083 A 
ATOM      5  C   UNL d   1      53.227  33.780  54.369  0.00  0.00     0.099 A 
ATOM      6  C   UNL d   1      54.278  32.778  54.308  0.00  0.00     0.019 A 
ATOM      7  C   UNL d   1      53.740  34.244  54.840  0.00  0.00     0.021 A 
ATOM      8  C   UNL d   1      54.757  33.263  54.774  0.00  0.00     0.002 A 
ATOM      9  C   UNL d   1      54.475  33.993  55.033  0.00  0.00     0.002 A 
ENDROOT
BRANCH   1  10
ATOM     10  C   UNL d   1      53.528  32.143  53.643  0.00  0.00     0.066 C 
ATOM     11  C   UNL d   1      54.313  32.371  53.748  0.00  0.00     0.019 C 
BRANCH  10  12
ATOM     12  C   UNL d   1      53.342  31.351  53.514  0.00  0.00     0.016 A 
ATOM     13  C   UNL d   1      52.988  31.120  52.806  0.00  0.00     0.001 A 
ATOM     14  C   UNL d   1      52.802  30.326  52.676  0.00  0.00     0.000 A 
ATOM     15  C   UNL d   1      52.970  29.759  53.258  0.00  0.00     0.000 A 
ATOM     16  C   UNL d   1      53.325  29.990  53.966  0.00  0.00     0.000 A 
ATOM     17  C   UNL d   1      53.510  30.787  54.093  0.00  0.00     0.001 A 
ENDBRANCH  10  12
ENDBRANCH   1  10
TORSDOF 2
ENDMDL
MODEL 4
REMARK VINA RESULT:      -9.6      1.252      2.675
REMARK  2 active torsions:
REMARK  status: ('A' for Active; 'I' for Inactive)
REMARK    1  A    between atoms: C_5  and  N_1 
REMARK    2  A    between atoms: C_7  and  C_5 
ROOT
ATOM      1  N   UNL d   1      53.081  32.772  53.527  0.00  0.00    -0.288 N 
ATOM      2  C   UNL d   1      53.686  33.004  54.030  0.00  0.00     0.183 A 
ATOM      3  N   UNL d   1      54.117  32.306  54.246  0.00  0.00    -0.224 NA
ATOM      4  C   UNL d   1      53.113  31.974  53.418  0.00  0.00     0.083 A 
ATOM      5  C   UNL d   1      53.770  31.678  53.875  0.00  0.00     0.099 A 
ATOM      6  C   UNL d   1      52.651  31.454  52.976  0.00  0.00     0.019 A 
ATOM      7  C   UNL d   1      53.915  30.854  53.850  0.00  0.00     0.021 A 
ATOM      8  C   UNL d   1      52.823  30.647  52.975  0.00  0.00     0.002 A 
ATOM      9  C   UNL d   1      53.459  30.361  53.417  0.00  0.00     0.002 A 
ENDROOT
BRANCH   1  10
ATOM     10  C   UNL d   1      52.471  32.626  53.033  0.00  0.00     0.066 C 
ATOM     11  C   UNL d   1      52.411  31.908  52.632  0.00  0.00     0.019 C 
BRANCH  10  12
ATOM     12  C   UNL d   1      51.897  33.207  52.927  0.00  0.00     0.016 A 
ATOM     13  C   UNL d   1      52.004  33.795  52.358  0.00  0.00     0.001 A 
ATOM     14  C   UNL d   1      51.428  34.377  52.252  0.00  0.00     0.000 A 
ATOM     15  C   UNL d   1      50.741  34.373  52.717  0.00  0.00     0.000 A 
ATOM     16  C   UNL d   1      50.634  33.785  53.286  0.00  0.00     0.000 A 
ATOM     17  C   UNL d   1      51.213  33.202  53.390  0.00  0.00     0.001 A 
ENDBRANCH  10  12
ENDBRANCH   1  10
TORSDOF 2
ENDMDL
MODEL 5
REMARK VINA RESULT:      -9.3      1.225      2.329
REMARK  2 active torsions:
REMARK  status: ('A' for Active; 'I' for Inactive)
REMARK    1  A    between atoms: C_5  and  N_1 
REMARK    2  A    between atoms: C_7  and  C_5 
ROOT
ATOM      1  N   UNL d   1      53.106  32.946  53.365  0.00  0.00    -0.288 N 
ATOM      2  C   UNL d   1      52.949  32.222  53.012  0.00  0.00     0.183 A 
ATOM      3  N   UNL d   1      52.206  32.292  52.609  0.00  0.00    -0.224 NA
ATOM      4  C   UNL d   1      52.505  33.458  53.204  0.00  0.00     0.083 A 
ATOM      5  C   UNL d   1      51.934  33.043  52.724  0.00  0.00     0.099 A 
ATOM      6  C   UNL d   1      52.374  34.244  53.414  0.00  0.00     0.019 A 
ATOM      7  C   UNL d   1      51.253  33.467  52.486  0.00  0.00     0.021 A 
ATOM      8  C   UNL d   1      51.690  34.631  53.160  0.00  0.00     0.002 A 
ATOM      9  C   UNL d   1      51.138  34.230  52.696  0.00  0.00     0.002 A 
ENDROOT
BRANCH   1  10
ATOM     10  C   UNL d   1      53.328  33.616  53.736  0.00  0.00     0.066 C 
ATOM     11  C   UNL d   1      52.967  34.338  53.564  0.00  0.00     0.019 C 
BRANCH  10  12
ATOM     12  C   UNL d   1      53.929  33.580  54.299  0.00  0.00     0.016 A 
ATOM     13  C   UNL d   1      54.698  33.797  54.095  0.00  0.00     0.001 A 
ATOM     14  C   UNL d   1      55.300  33.761  54.659  0.00  0.00     0.000 A 
ATOM     15  C   UNL d   1      55.133  33.506  55.430  0.00  0.00     0.000 A 
ATOM     16  C   UNL d   1      54.364  33.289  55.634  0.00  0.00     0.000 A 
ATOM     17  C   UNL d   1      53.762  33.326  55.066  0.00  0.00     0.001 A 
ENDBRANCH  10  12
ENDBRANCH   1  10
TORSDOF 2
ENDMDL
