MODEL 1
REMARK VINA RESULT:      -5.2      0.000      0.000
REMARK  6 active torsions:
REMARK  status: ('A' for Active; 'I' for Inactive)
REMARK    1  A    between atoms: C_3  and  C_2 
REMARK    2  A    between atoms: O_5  and  C_3 
REMARK    3  A    between atoms: C_9  and  O_5 
REMARK    4  A    between atoms: C_6  and  C_9 
REMARK    5  A    between atoms: C_7  and  C_6 
REMARK    6  A    between atoms: O_19  and  C_16 
ROOT
ATOM      1  C   UNL d   1     -42.263-122.535 -50.351  0.00  0.00     0.318 C 
ATOM      2  O   UNL d   1     -42.509-121.764 -50.511  0.00  0.00    -0.257 OA
ENDROOT
BRANCH   1   3
ATOM      3  C   UNL d   1     -42.361-122.855 -49.597  0.00  0.00     0.145 A 
ATOM      4  N   UNL d   1     -41.757-122.763 -49.025  0.00  0.00    -0.240 NA
ATOM      5  C   UNL d   1     -41.851-123.081 -48.272  0.00  0.00     0.082 A 
ATOM      6  C   UNL d   1     -42.551-123.498 -48.076  0.00  0.00     0.018 A 
ATOM      7  C   UNL d   1     -41.259-122.992 -47.710  0.00  0.00     0.019 A 
ATOM      8  C   UNL d   1     -43.153-123.591 -48.644  0.00  0.00     0.003 A 
ATOM      9  C   UNL d   1     -42.644-123.816 -47.323  0.00  0.00     0.002 A 
ATOM     10  C   UNL d   1     -43.057-123.269 -49.403  0.00  0.00     0.025 A 
ATOM     11  C   UNL d   1     -42.042-123.720 -46.764  0.00  0.00     0.000 A 
ATOM     12  C   UNL d   1     -41.353-123.310 -46.956  0.00  0.00     0.002 A 
ENDBRANCH   1   3
BRANCH   1  13
ATOM     13  O   UNL d   1     -41.915-122.990 -50.952  0.00  0.00    -0.266 OA
BRANCH  13  14
ATOM     14  C   UNL d   1     -41.989-122.761 -51.740  0.00  0.00     0.168 C 
BRANCH  14  15
ATOM     15  C   UNL d   1     -41.559-123.144 -52.327  0.00  0.00     0.220 C 
ATOM     16  O   UNL d   1     -41.123-123.817 -52.137  0.00  0.00    -0.284 OA
BRANCH  15  17
ATOM     17  C   UNL d   1     -41.565-122.855 -53.101  0.00  0.00     0.041 A 
ATOM     18  C   UNL d   1     -41.424-123.373 -53.728  0.00  0.00     0.005 A 
ATOM     19  C   UNL d   1     -41.431-123.082 -54.498  0.00  0.00     0.024 A 
ATOM     20  C   UNL d   1     -41.577-122.277 -54.639  0.00  0.00     0.094 A 
ATOM     21  C   UNL d   1     -41.717-121.769 -54.004  0.00  0.00     0.024 A 
ATOM     22  C   UNL d   1     -41.710-122.059 -53.234  0.00  0.00     0.005 A 
BRANCH  20  23
ATOM     23  O   UNL d   1     -41.583-121.992 -55.404  0.00  0.00    -0.328 OA
ATOM     24  C   UNL d   1     -42.297-121.951 -55.825  0.00  0.00     0.181 C 
ENDBRANCH  20  23
ENDBRANCH  15  17
ENDBRANCH  14  15
ENDBRANCH  13  14
ENDBRANCH   1  13
TORSDOF 6
ENDMDL
MODEL 2
REMARK VINA RESULT:      -2.7      0.988      1.548
REMARK  6 active torsions:
REMARK  status: ('A' for Active; 'I' for Inactive)
REMARK    1  A    between atoms: C_3  and  C_2 
REMARK    2  A    between atoms: O_5  and  C_3 
REMARK    3  A    between atoms: C_9  and  O_5 
REMARK    4  A    between atoms: C_6  and  C_9 
REMARK    5  A    between atoms: C_7  and  C_6 
REMARK    6  A    between atoms: O_19  and  C_16 
ROOT
ATOM      1  C   UNL d   1     -41.910-123.235 -51.247  0.00  0.00     0.318 C 
ATOM      2  O   UNL d   1     -42.310-123.787 -51.713  0.00  0.00    -0.257 OA
ENDROOT
BRANCH   1   3
ATOM      3  C   UNL d   1     -41.940-123.285 -50.424  0.00  0.00     0.145 A 
ATOM      4  N   UNL d   1     -42.544-122.885 -50.006  0.00  0.00    -0.240 NA
ATOM      5  C   UNL d   1     -42.578-122.931 -49.185  0.00  0.00     0.082 A 
ATOM      6  C   UNL d   1     -42.007-123.380 -48.767  0.00  0.00     0.018 A 
ATOM      7  C   UNL d   1     -43.170-122.539 -48.774  0.00  0.00     0.019 A 
ATOM      8  C   UNL d   1     -41.405-123.779 -49.181  0.00  0.00     0.003 A 
ATOM      9  C   UNL d   1     -42.040-123.427 -47.946  0.00  0.00     0.002 A 
ATOM     10  C   UNL d   1     -41.373-123.731 -50.009  0.00  0.00     0.025 A 
ATOM     11  C   UNL d   1     -42.641-123.027 -47.540  0.00  0.00     0.000 A 
ATOM     12  C   UNL d   1     -43.203-122.586 -47.952  0.00  0.00     0.002 A 
ENDBRANCH   1   3
BRANCH   1  13
ATOM     13  O   UNL d   1     -41.476-122.627 -51.610  0.00  0.00    -0.266 OA
BRANCH  13  14
ATOM     14  C   UNL d   1     -41.414-122.594 -52.431  0.00  0.00     0.168 C 
BRANCH  14  15
ATOM     15  C   UNL d   1     -41.415-121.871 -52.821  0.00  0.00     0.220 C 
ATOM     16  O   UNL d   1     -41.144-121.198 -52.428  0.00  0.00    -0.284 OA
BRANCH  15  17
ATOM     17  C   UNL d   1     -41.685-121.819 -53.600  0.00  0.00     0.041 A 
ATOM     18  C   UNL d   1     -42.333-121.337 -53.773  0.00  0.00     0.005 A 
ATOM     19  C   UNL d   1     -42.599-121.288 -54.551  0.00  0.00     0.024 A 
ATOM     20  C   UNL d   1     -42.218-121.718 -55.150  0.00  0.00     0.094 A 
ATOM     21  C   UNL d   1     -41.572-122.196 -54.964  0.00  0.00     0.024 A 
ATOM     22  C   UNL d   1     -41.305-122.246 -54.187  0.00  0.00     0.005 A 
BRANCH  20  23
ATOM     23  O   UNL d   1     -42.485-121.666 -55.920  0.00  0.00    -0.328 OA
ATOM     24  C   UNL d   1     -43.176-122.066 -56.146  0.00  0.00     0.181 C 
ENDBRANCH  20  23
ENDBRANCH  15  17
ENDBRANCH  14  15
ENDBRANCH  13  14
ENDBRANCH   1  13
TORSDOF 6
ENDMDL
