MODEL 1
REMARK VINA RESULT:      11.7      0.000      0.000
REMARK  2 active torsions:
REMARK  status: ('A' for Active; 'I' for Inactive)
REMARK    1  A    between atoms: C_3  and  C_1 
REMARK       I    between atoms: C_2  and  N_4 
REMARK    2  A    between atoms: N_4  and  C_9 
ROOT
ATOM      1  C   UNL d   1      59.714  49.691  50.841  0.00  0.00     0.065 A 
ATOM      2  C   UNL d   1      59.373  49.700  50.091  0.00  0.00     0.008 A 
ATOM      3  C   UNL d   1      59.236  49.688  51.510  0.00  0.00     0.008 A 
ATOM      4  C   UNL d   1      58.064  49.702  50.681  0.00  0.00     0.085 A 
ATOM      5  C   UNL d   1      58.544  49.706  50.011  0.00  0.00     0.019 A 
ATOM      6  C   UNL d   1      58.414  49.693  51.430  0.00  0.00     0.019 A 
ENDROOT
BRANCH   4   7
ATOM      7  N   UNL d   1      57.242  49.708  50.606  0.00  0.00    -0.208 NA
ATOM      8  C   UNL d   1      56.901  49.690  49.853  0.00  0.00     0.279 C 
ATOM      9  O   UNL d   1      56.080  49.696  49.778  0.00  0.00    -0.265 OA
ATOM     10  C   UNL d   1      57.380  49.667  49.184  0.00  0.00     0.068 C 
ENDBRANCH   4   7
BRANCH   1  11
ATOM     11  C   UNL d   1      60.540  49.685  50.921  0.00  0.00     0.211 C 
ATOM     12  O   UNL d   1      60.882  49.676  51.670  0.00  0.00    -0.644 OA
ATOM     13  O   UNL d   1      61.019  49.689  50.252  0.00  0.00    -0.644 OA
ENDBRANCH   1  11
TORSDOF 2
ENDMDL
MODEL 2
REMARK VINA RESULT:      12.2      0.989      3.205
REMARK  2 active torsions:
REMARK  status: ('A' for Active; 'I' for Inactive)
REMARK    1  A    between atoms: C_3  and  C_1 
REMARK       I    between atoms: C_2  and  N_4 
REMARK    2  A    between atoms: N_4  and  C_9 
ROOT
ATOM      1  C   UNL d   1      57.530  49.677  50.314  0.00  0.00     0.065 A 
ATOM      2  C   UNL d   1      57.914  49.702  49.586  0.00  0.00     0.008 A 
ATOM      3  C   UNL d   1      57.969  49.657  51.010  0.00  0.00     0.008 A 
ATOM      4  C   UNL d   1      59.187  49.689  50.251  0.00  0.00     0.085 A 
ATOM      5  C   UNL d   1      58.747  49.708  49.555  0.00  0.00     0.019 A 
ATOM      6  C   UNL d   1      58.793  49.663  50.979  0.00  0.00     0.019 A 
ENDROOT
BRANCH   4   7
ATOM      7  N   UNL d   1      60.011  49.694  50.224  0.00  0.00    -0.208 NA
ATOM      8  C   UNL d   1      60.443  49.684  50.929  0.00  0.00     0.279 C 
ATOM      9  O   UNL d   1      61.268  49.690  50.901  0.00  0.00    -0.265 OA
ATOM     10  C   UNL d   1      60.052  49.668  51.652  0.00  0.00     0.068 C 
ENDBRANCH   4   7
BRANCH   1  11
ATOM     11  C   UNL d   1      56.701  49.671  50.346  0.00  0.00     0.211 C 
ATOM     12  O   UNL d   1      56.316  49.660  51.074  0.00  0.00    -0.644 OA
ATOM     13  O   UNL d   1      56.262  49.675  49.650  0.00  0.00    -0.644 OA
ENDBRANCH   1  11
TORSDOF 2
ENDMDL
