MODEL 1
REMARK VINA RESULT:      67.4      0.000      0.000
REMARK  7 active torsions:
REMARK  status: ('A' for Active; 'I' for Inactive)
REMARK    1  A    between atoms: N_4  and  C_2 
REMARK    2  A    between atoms: S_9  and  C_3 
REMARK    3  A    between atoms: C_8  and  C_13 
REMARK    4  A    between atoms: O_11  and  C_8 
REMARK    5  A    between atoms: C_13  and  S_9 
REMARK    6  A    between atoms: C_14  and  O_11 
REMARK    7  A    between atoms: C_17  and  C_14 
ROOT
ATOM      1  N   UNL d   1      60.104  49.037  50.650  0.00  0.00    -0.203 NA
ATOM      2  C   UNL d   1      59.506  49.371  51.107  0.00  0.00     0.152 A 
ATOM      3  C   UNL d   1      60.860  48.926  50.972  0.00  0.00     0.196 A 
ATOM      4  C   UNL d   1      59.659  49.593  51.884  0.00  0.00     0.057 A 
ATOM      5  N   UNL d   1      61.014  49.149  51.751  0.00  0.00    -0.221 NA
ATOM      6  C   UNL d   1      60.415  49.482  52.207  0.00  0.00     0.087 A 
ATOM      7  C   UNL d   1      60.568  49.707  52.988  0.00  0.00     0.021 C 
ENDROOT
BRANCH   3   8
ATOM      8  S   UNL d   1      61.462  48.590  50.509  0.00  0.00    -0.043 SA
BRANCH   8   9
ATOM      9  C   UNL d   1      61.436  47.786  50.324  0.00  0.00     0.107 C 
BRANCH   9  10
ATOM     10  C   UNL d   1      61.959  47.478  49.766  0.00  0.00     0.307 C 
ATOM     11  O   UNL d   1      62.333  47.973  49.228  0.00  0.00    -0.258 OA
BRANCH  10  12
ATOM     12  O   UNL d   1      62.107  46.663  49.748  0.00  0.00    -0.271 OA
BRANCH  12  13
ATOM     13  C   UNL d   1      61.613  46.162  49.319  0.00  0.00     0.126 C 
BRANCH  13  14
ATOM     14  C   UNL d   1      61.789  45.359  49.260  0.00  0.00     0.025 A 
ATOM     15  C   UNL d   1      62.523  45.124  48.947  0.00  0.00     0.002 A 
ATOM     16  C   UNL d   1      62.700  44.320  48.888  0.00  0.00     0.000 A 
ATOM     17  C   UNL d   1      62.140  43.756  49.141  0.00  0.00     0.000 A 
ATOM     18  C   UNL d   1      61.415  44.005  49.449  0.00  0.00     0.000 A 
ATOM     19  C   UNL d   1      61.240  44.801  49.508  0.00  0.00     0.002 A 
ENDBRANCH  13  14
ENDBRANCH  12  13
ENDBRANCH  10  12
ENDBRANCH   9  10
ENDBRANCH   8   9
ENDBRANCH   3   8
BRANCH   2  20
ATOM     20  N   UNL d   1      58.752  49.483  50.790  0.00  0.00    -0.285 N 
ATOM     21  C   UNL d   1      58.660  49.548  49.970  0.00  0.00     0.108 A 
ATOM     22  C   UNL d   1      57.912  49.660  49.651  0.00  0.00     0.142 A 
ATOM     23  O   UNL d   1      57.255  49.706  50.146  0.00  0.00    -0.300 OA
ATOM     24  C   UNL d   1      57.348  49.641  50.964  0.00  0.00     0.142 A 
ATOM     25  C   UNL d   1      58.100  49.529  51.285  0.00  0.00     0.108 A 
ENDBRANCH   2  20
TORSDOF 7
ENDMDL
