MODEL 1
REMARK VINA RESULT:     -10.1      0.000      0.000
REMARK  6 active torsions:
REMARK  status: ('A' for Active; 'I' for Inactive)
REMARK    1  A    between atoms: C_6  and  N_1 
REMARK    2  A    between atoms: C_13  and  C_6 
REMARK    3  A    between atoms: N_12  and  C_22 
REMARK    4  A    between atoms: C_23  and  N_12 
REMARK    5  A    between atoms: C_22  and  C_13 
REMARK    6  A    between atoms: C_20  and  C_23 
ROOT
ATOM      1  N   UNL d   1      52.651  32.893  53.211  0.00  0.00    -0.303 N 
ATOM      2  C   UNL d   1      53.636  32.633  54.069  0.00  0.00     0.018 A 
ATOM      3  C   UNL d   1      53.393  31.913  53.736  0.00  0.00     0.018 A 
ATOM      4  C   UNL d   1      53.178  33.238  53.745  0.00  0.00     0.064 A 
ATOM      5  C   UNL d   1      52.780  32.084  53.203  0.00  0.00     0.064 A 
ATOM      6  C   UNL d   1      52.421  31.479  52.783  0.00  0.00     0.018 A 
ATOM      7  C   UNL d   1      53.304  34.015  53.980  0.00  0.00     0.018 A 
ATOM      8  C   UNL d   1      53.642  31.137  53.845  0.00  0.00     0.008 A 
ATOM      9  C   UNL d   1      54.219  32.805  54.628  0.00  0.00     0.008 A 
ATOM     10  C   UNL d   1      54.339  33.588  54.859  0.00  0.00     0.035 A 
ATOM     11  C   UNL d   1      53.283  30.520  53.422  0.00  0.00     0.035 A 
ATOM     12  C   UNL d   1      52.669  30.688  52.887  0.00  0.00     0.008 A 
ATOM     13  C   UNL d   1      53.882  34.193  54.535  0.00  0.00     0.008 A 
ATOM     14 BR   UNL d   1      54.919  33.763  55.415  0.00  0.00    -0.049 Br
ATOM     15 BR   UNL d   1      53.533  29.744  53.530  0.00  0.00    -0.049 Br
ENDROOT
BRANCH   1  16
ATOM     16  C   UNL d   1      52.092  33.304  52.763  0.00  0.00     0.124 C 
BRANCH  16  17
ATOM     17  C   UNL d   1      51.352  33.479  53.077  0.00  0.00     0.232 C 
ATOM     18  O   UNL d   1      50.987  32.942  53.595  0.00  0.00    -0.283 OA
BRANCH  17  19
ATOM     19  C   UNL d   1      50.970  34.184  52.882  0.00  0.00     0.142 C 
BRANCH  19  20
ATOM     20  N   UNL d   1      50.231  34.159  52.513  0.00  0.00    -0.237 NA
BRANCH  20  21
ATOM     21  C   UNL d   1      49.764  34.838  52.475  0.00  0.00     0.124 C 
BRANCH  21  22
ATOM     22  C   UNL d   1      49.130  34.874  51.961  0.00  0.00     0.119 A 
ATOM     23  O   UNL d   1      49.106  34.547  51.198  0.00  0.00    -0.304 OA
ATOM     24  C   UNL d   1      48.359  34.715  50.875  0.00  0.00     0.123 A 
ATOM     25  C   UNL d   1      47.931  35.142  51.438  0.00  0.00     0.029 A 
ATOM     26  C   UNL d   1      48.403  35.240  52.103  0.00  0.00     0.028 A 
ENDBRANCH  21  22
ENDBRANCH  20  21
ENDBRANCH  19  20
ENDBRANCH  17  19
ENDBRANCH  16  17
ENDBRANCH   1  16
TORSDOF 6
ENDMDL
MODEL 2
REMARK VINA RESULT:     -10.1      0.009      2.245
REMARK  6 active torsions:
REMARK  status: ('A' for Active; 'I' for Inactive)
REMARK    1  A    between atoms: C_6  and  N_1 
REMARK    2  A    between atoms: C_13  and  C_6 
REMARK    3  A    between atoms: N_12  and  C_22 
REMARK    4  A    between atoms: C_23  and  N_12 
REMARK    5  A    between atoms: C_22  and  C_13 
REMARK    6  A    between atoms: C_20  and  C_23 
ROOT
ATOM      1  N   UNL d   1      52.651  32.895  53.212  0.00  0.00    -0.303 N 
ATOM      2  C   UNL d   1      53.389  31.914  53.730  0.00  0.00     0.018 A 
ATOM      3  C   UNL d   1      53.641  32.627  54.071  0.00  0.00     0.018 A 
ATOM      4  C   UNL d   1      52.779  32.079  53.200  0.00  0.00     0.064 A 
ATOM      5  C   UNL d   1      53.177  33.232  53.743  0.00  0.00     0.064 A 
ATOM      6  C   UNL d   1      53.296  34.010  53.973  0.00  0.00     0.018 A 
ATOM      7  C   UNL d   1      52.424  31.467  52.782  0.00  0.00     0.018 A 
ATOM      8  C   UNL d   1      54.220  32.805  54.626  0.00  0.00     0.008 A 
ATOM      9  C   UNL d   1      53.644  31.137  53.841  0.00  0.00     0.008 A 
ATOM     10  C   UNL d   1      53.284  30.527  53.418  0.00  0.00     0.035 A 
ATOM     11  C   UNL d   1      54.345  33.590  54.863  0.00  0.00     0.035 A 
ATOM     12  C   UNL d   1      53.882  34.199  54.536  0.00  0.00     0.008 A 
ATOM     13  C   UNL d   1      52.674  30.692  52.888  0.00  0.00     0.008 A 
ATOM     14 BR   UNL d   1      53.537  29.752  53.527  0.00  0.00    -0.049 Br
ATOM     15 BR   UNL d   1      54.925  33.768  55.418  0.00  0.00    -0.049 Br
ENDROOT
BRANCH   1  16
ATOM     16  C   UNL d   1      52.088  33.295  52.761  0.00  0.00     0.124 C 
BRANCH  16  17
ATOM     17  C   UNL d   1      51.353  33.482  53.080  0.00  0.00     0.232 C 
ATOM     18  O   UNL d   1      50.990  32.958  53.613  0.00  0.00    -0.283 OA
BRANCH  17  19
ATOM     19  C   UNL d   1      50.975  34.186  52.875  0.00  0.00     0.142 C 
BRANCH  19  20
ATOM     20  N   UNL d   1      50.236  34.160  52.505  0.00  0.00    -0.237 NA
BRANCH  20  21
ATOM     21  C   UNL d   1      49.760  34.833  52.480  0.00  0.00     0.124 C 
BRANCH  21  22
ATOM     22  C   UNL d   1      49.128  34.874  51.965  0.00  0.00     0.119 A 
ATOM     23  O   UNL d   1      49.102  34.541  51.204  0.00  0.00    -0.304 OA
ATOM     24  C   UNL d   1      48.358  34.716  50.878  0.00  0.00     0.123 A 
ATOM     25  C   UNL d   1      47.934  35.152  51.437  0.00  0.00     0.029 A 
ATOM     26  C   UNL d   1      48.405  35.249  52.102  0.00  0.00     0.028 A 
ENDBRANCH  21  22
ENDBRANCH  20  21
ENDBRANCH  19  20
ENDBRANCH  17  19
ENDBRANCH  16  17
ENDBRANCH   1  16
TORSDOF 6
ENDMDL
MODEL 3
REMARK VINA RESULT:      -7.1      2.136      4.708
REMARK  6 active torsions:
REMARK  status: ('A' for Active; 'I' for Inactive)
REMARK    1  A    between atoms: C_6  and  N_1 
REMARK    2  A    between atoms: C_13  and  C_6 
REMARK    3  A    between atoms: N_12  and  C_22 
REMARK    4  A    between atoms: C_23  and  N_12 
REMARK    5  A    between atoms: C_22  and  C_13 
REMARK    6  A    between atoms: C_20  and  C_23 
ROOT
ATOM      1  N   UNL d   1      52.230  33.135  53.634  0.00  0.00    -0.303 N 
ATOM      2  C   UNL d   1      52.214  34.463  53.739  0.00  0.00     0.018 A 
ATOM      3  C   UNL d   1      51.541  34.235  53.312  0.00  0.00     0.018 A 
ATOM      4  C   UNL d   1      52.639  33.785  53.938  0.00  0.00     0.064 A 
ATOM      5  C   UNL d   1      51.559  33.407  53.251  0.00  0.00     0.064 A 
ATOM      6  C   UNL d   1      50.959  33.012  52.854  0.00  0.00     0.018 A 
ATOM      7  C   UNL d   1      53.337  33.852  54.366  0.00  0.00     0.018 A 
ATOM      8  C   UNL d   1      50.924  34.661  52.975  0.00  0.00     0.008 A 
ATOM      9  C   UNL d   1      52.488  35.208  53.968  0.00  0.00     0.008 A 
ATOM     10  C   UNL d   1      53.189  35.267  54.398  0.00  0.00     0.035 A 
ATOM     11  C   UNL d   1      50.315  34.267  52.572  0.00  0.00     0.035 A 
ATOM     12  C   UNL d   1      50.329  33.438  52.510  0.00  0.00     0.008 A 
ATOM     13  C   UNL d   1      53.614  34.589  54.597  0.00  0.00     0.008 A 
ATOM     14 BR   UNL d   1      53.464  36.008  54.628  0.00  0.00    -0.049 Br
ATOM     15 BR   UNL d   1      49.698  34.694  52.235  0.00  0.00    -0.049 Br
ENDROOT
BRANCH   1  16
ATOM     16  C   UNL d   1      52.465  32.347  53.709  0.00  0.00     0.124 C 
BRANCH  16  17
ATOM     17  C   UNL d   1      52.838  31.962  53.086  0.00  0.00     0.232 C 
ATOM     18  O   UNL d   1      53.330  32.390  52.572  0.00  0.00    -0.283 OA
BRANCH  17  19
ATOM     19  C   UNL d   1      52.727  31.152  52.968  0.00  0.00     0.142 C 
BRANCH  19  20
ATOM     20  N   UNL d   1      53.136  30.612  53.441  0.00  0.00    -0.237 NA
BRANCH  20  21
ATOM     21  C   UNL d   1      52.943  29.809  53.415  0.00  0.00     0.124 C 
BRANCH  21  22
ATOM     22  C   UNL d   1      53.160  29.313  54.025  0.00  0.00     0.119 A 
ATOM     23  O   UNL d   1      52.729  29.188  54.725  0.00  0.00    -0.304 OA
ATOM     24  C   UNL d   1      53.152  28.643  55.187  0.00  0.00     0.123 A 
ATOM     25  C   UNL d   1      53.835  28.436  54.772  0.00  0.00     0.029 A 
ATOM     26  C   UNL d   1      53.840  28.846  54.061  0.00  0.00     0.028 A 
ENDBRANCH  21  22
ENDBRANCH  20  21
ENDBRANCH  19  20
ENDBRANCH  17  19
ENDBRANCH  16  17
ENDBRANCH   1  16
TORSDOF 6
ENDMDL
