MODEL 1
REMARK VINA RESULT:       2.7      0.000      0.000
REMARK  4 active torsions:
REMARK  status: ('A' for Active; 'I' for Inactive)
REMARK    1  A    between atoms: C_5  and  C_1 
REMARK    2  A    between atoms: O_9  and  C_5 
REMARK    3  A    between atoms: C_18  and  O_9 
REMARK       I    between atoms: C_11  and  N_14 
REMARK    4  A    between atoms: N_14  and  C_20 
ROOT
ATOM      1  C   UNL d   1      58.899  -1.102  29.442  0.00  0.00     0.127 A 
ATOM      2  C   UNL d   1      58.304  -1.490  29.031  0.00  0.00     0.305 A 
ATOM      3  O   UNL d   1      58.396  -2.287  28.841  0.00  0.00    -0.272 OA
ATOM      4  C   UNL d   1      59.592  -1.503  29.669  0.00  0.00     0.013 A 
ATOM      5  C   UNL d   1      59.678  -2.302  29.475  0.00  0.00     0.024 A 
ATOM      6  C   UNL d   1      59.084  -2.699  29.062  0.00  0.00     0.110 A 
ATOM      7  C   UNL d   1      59.166  -3.496  28.867  0.00  0.00     0.058 A 
ATOM      8  C   UNL d   1      59.850  -3.901  29.088  0.00  0.00     0.015 A 
ATOM      9  C   UNL d   1      60.364  -2.715  29.695  0.00  0.00     0.009 A 
ATOM     10  O   UNL d   1      57.623  -1.082  28.812  0.00  0.00    -0.259 OA
ATOM     11  C   UNL d   1      60.451  -3.509  29.503  0.00  0.00     0.035 A 
ATOM     12 BR   UNL d   1      58.569  -3.885  28.455  0.00  0.00    -0.047 Br
ATOM     13 BR   UNL d   1      61.133  -3.913  29.724  0.00  0.00    -0.049 Br
ENDROOT
BRANCH   1  14
ATOM     14  C   UNL d   1      58.818  -0.304  29.638  0.00  0.00     0.305 C 
ATOM     15  O   UNL d   1      59.476   0.188  29.602  0.00  0.00    -0.259 OA
BRANCH  14  16
ATOM     16  O   UNL d   1      58.086   0.004  29.867  0.00  0.00    -0.273 OA
BRANCH  16  17
ATOM     17  C   UNL d   1      57.936   0.173  30.657  0.00  0.00     0.103 A 
ATOM     18  C   UNL d   1      58.559   0.244  31.191  0.00  0.00     0.026 A 
ATOM     19  C   UNL d   1      58.416   0.412  31.978  0.00  0.00     0.021 A 
ATOM     20  C   UNL d   1      57.642   0.512  32.246  0.00  0.00     0.085 A 
ATOM     21  C   UNL d   1      57.007   0.443  31.717  0.00  0.00     0.021 A 
ATOM     22  C   UNL d   1      57.158   0.271  30.914  0.00  0.00     0.026 A 
BRANCH  20  23
ATOM     23  N   UNL d   1      57.488   0.682  33.039  0.00  0.00    -0.208 NA
ATOM     24  C   UNL d   1      56.963   0.203  33.463  0.00  0.00     0.279 C 
ATOM     25  O   UNL d   1      56.594  -0.443  33.096  0.00  0.00    -0.265 OA
ATOM     26  C   UNL d   1      56.803   0.367  34.261  0.00  0.00     0.068 C 
ENDBRANCH  20  23
ENDBRANCH  16  17
ENDBRANCH  14  16
ENDBRANCH   1  14
TORSDOF 4
ENDMDL
MODEL 2
REMARK VINA RESULT:       4.3      1.457      2.032
REMARK  4 active torsions:
REMARK  status: ('A' for Active; 'I' for Inactive)
REMARK    1  A    between atoms: C_5  and  C_1 
REMARK    2  A    between atoms: O_9  and  C_5 
REMARK    3  A    between atoms: C_18  and  O_9 
REMARK       I    between atoms: C_11  and  N_14 
REMARK    4  A    between atoms: N_14  and  C_20 
ROOT
ATOM      1  C   UNL d   1      57.893  -0.753  30.619  0.00  0.00     0.127 A 
ATOM      2  C   UNL d   1      58.263  -0.332  30.019  0.00  0.00     0.305 A 
ATOM      3  O   UNL d   1      58.806  -0.714  29.531  0.00  0.00    -0.272 OA
ATOM      4  C   UNL d   1      58.060  -1.559  30.739  0.00  0.00     0.013 A 
ATOM      5  C   UNL d   1      58.605  -1.937  30.246  0.00  0.00     0.024 A 
ATOM      6  C   UNL d   1      58.981  -1.520  29.641  0.00  0.00     0.110 A 
ATOM      7  C   UNL d   1      59.526  -1.894  29.147  0.00  0.00     0.058 A 
ATOM      8  C   UNL d   1      59.697  -2.693  29.258  0.00  0.00     0.015 A 
ATOM      9  C   UNL d   1      58.782  -2.741  30.353  0.00  0.00     0.009 A 
ATOM     10  O   UNL d   1      58.091   0.465  29.910  0.00  0.00    -0.259 OA
ATOM     11  C   UNL d   1      59.323  -3.118  29.864  0.00  0.00     0.035 A 
ATOM     12 BR   UNL d   1      59.897  -1.471  28.545  0.00  0.00    -0.047 Br
ATOM     13 BR   UNL d   1      59.494  -3.915  29.976  0.00  0.00    -0.049 Br
ENDROOT
BRANCH   1  14
ATOM     14  C   UNL d   1      57.348  -0.380  31.114  0.00  0.00     0.305 C 
ATOM     15  O   UNL d   1      57.379   0.436  31.205  0.00  0.00    -0.259 OA
BRANCH  14  16
ATOM     16  O   UNL d   1      56.773  -0.818  31.517  0.00  0.00    -0.273 OA
BRANCH  16  17
ATOM     17  C   UNL d   1      56.386  -0.496  32.166  0.00  0.00     0.103 A 
ATOM     18  C   UNL d   1      56.695   0.166  32.546  0.00  0.00     0.026 A 
ATOM     19  C   UNL d   1      56.314   0.492  33.192  0.00  0.00     0.021 A 
ATOM     20  C   UNL d   1      55.613   0.157  33.470  0.00  0.00     0.085 A 
ATOM     21  C   UNL d   1      55.293  -0.509  33.095  0.00  0.00     0.021 A 
ATOM     22  C   UNL d   1      55.686  -0.838  32.436  0.00  0.00     0.026 A 
BRANCH  20  23
ATOM     23  N   UNL d   1      55.221   0.479  34.122  0.00  0.00    -0.208 NA
ATOM     24  C   UNL d   1      55.453   0.258  34.886  0.00  0.00     0.279 C 
ATOM     25  O   UNL d   1      56.073  -0.281  34.997  0.00  0.00    -0.265 OA
ATOM     26  C   UNL d   1      55.064   0.577  35.546  0.00  0.00     0.068 C 
ENDBRANCH  20  23
ENDBRANCH  16  17
ENDBRANCH  14  16
ENDBRANCH   1  14
TORSDOF 4
ENDMDL
