MODEL 1
REMARK VINA RESULT:      51.3      0.000      0.000
REMARK  4 active torsions:
REMARK  status: ('A' for Active; 'I' for Inactive)
REMARK    1  A    between atoms: C_6  and  N_1 
REMARK    2  A    between atoms: C_8  and  C_14 
REMARK    3  A    between atoms: O_20  and  C_8 
REMARK    4  A    between atoms: C_22  and  O_20 
ROOT
ATOM      1  N   UNL d   1      14.509  14.892  -2.070  0.00  0.00    -0.242 N 
ATOM      2  C   UNL d   1      14.724  15.655  -2.373  0.00  0.00     0.267 A 
ATOM      3  C   UNL d   1      14.659  14.815  -1.357  0.00  0.00     0.267 A 
ATOM      4  C   UNL d   1      15.036  16.042  -1.714  0.00  0.00     0.061 A 
ATOM      5  C   UNL d   1      14.996  15.509  -1.070  0.00  0.00     0.061 A 
ATOM      6  C   UNL d   1      15.269  15.725  -0.310  0.00  0.00     0.005 A 
ATOM      7  C   UNL d   1      15.350  16.785  -1.592  0.00  0.00     0.005 A 
ATOM      8  O   UNL d   1      14.650  15.960  -3.128  0.00  0.00    -0.267 OA
ATOM      9  O   UNL d   1      14.510  14.128  -0.912  0.00  0.00    -0.267 OA
ATOM     10  C   UNL d   1      15.577  16.482  -0.229  0.00  0.00     0.000 A 
ATOM     11  C   UNL d   1      15.618  17.014  -0.873  0.00  0.00     0.000 A 
ATOM     12  C   UNL d   1      15.931  17.757  -0.752  0.00  0.00     0.000 C 
ENDROOT
BRANCH   1  13
ATOM     13  C   UNL d   1      14.167  14.279  -2.503  0.00  0.00     0.070 A 
ATOM     14  C   UNL d   1      13.778  14.428  -3.218  0.00  0.00     0.018 A 
ATOM     15  C   UNL d   1      13.437  13.816  -3.651  0.00  0.00     0.007 A 
ATOM     16  C   UNL d   1      13.472  13.039  -3.384  0.00  0.00     0.064 A 
ATOM     17  C   UNL d   1      13.875  12.866  -2.637  0.00  0.00     0.007 A 
ATOM     18  C   UNL d   1      14.225  13.526  -2.204  0.00  0.00     0.018 A 
BRANCH  16  19
ATOM     19  C   UNL d   1      13.114  12.456  -3.852  0.00  0.00     0.300 C 
ATOM     20  O   UNL d   1      12.769  11.779  -3.473  0.00  0.00    -0.259 OA
BRANCH  19  21
ATOM     21  O   UNL d   1      13.107  12.550  -4.632  0.00  0.00    -0.271 OA
BRANCH  21  22
ATOM     22  C   UNL d   1      13.125  11.905  -5.100  0.00  0.00     0.126 C 
ATOM     23  C   UNL d   1      13.555  11.907  -5.832  0.00  0.00     0.029 C 
ENDBRANCH  21  22
ENDBRANCH  19  21
ENDBRANCH  16  19
ENDBRANCH   1  13
TORSDOF 4
ENDMDL
MODEL 2
REMARK VINA RESULT:      52.4      1.060      4.792
REMARK  4 active torsions:
REMARK  status: ('A' for Active; 'I' for Inactive)
REMARK    1  A    between atoms: C_6  and  N_1 
REMARK    2  A    between atoms: C_8  and  C_14 
REMARK    3  A    between atoms: O_20  and  C_8 
REMARK    4  A    between atoms: C_22  and  O_20 
ROOT
ATOM      1  N   UNL d   1      14.148  14.040  -2.841  0.00  0.00    -0.242 N 
ATOM      2  C   UNL d   1      13.898  14.117  -3.649  0.00  0.00     0.267 A 
ATOM      3  C   UNL d   1      14.051  13.365  -2.575  0.00  0.00     0.267 A 
ATOM      4  C   UNL d   1      13.626  13.360  -3.837  0.00  0.00     0.061 A 
ATOM      5  C   UNL d   1      13.723  12.883  -3.156  0.00  0.00     0.061 A 
ATOM      6  C   UNL d   1      13.502  12.078  -3.155  0.00  0.00     0.005 A 
ATOM      7  C   UNL d   1      13.309  13.026  -4.510  0.00  0.00     0.005 A 
ATOM      8  O   UNL d   1      13.912  14.767  -4.143  0.00  0.00    -0.267 OA
ATOM      9  O   UNL d   1      14.245  13.127  -1.800  0.00  0.00    -0.267 OA
ATOM     10  C   UNL d   1      13.186  11.780  -3.852  0.00  0.00     0.000 A 
ATOM     11  C   UNL d   1      13.089  12.257  -4.533  0.00  0.00     0.000 A 
ATOM     12  C   UNL d   1      12.772  11.924  -5.206  0.00  0.00     0.000 C 
ENDROOT
BRANCH   1  13
ATOM     13  C   UNL d   1      14.469  14.640  -2.376  0.00  0.00     0.070 A 
ATOM     14  C   UNL d   1      14.691  14.497  -1.590  0.00  0.00     0.018 A 
ATOM     15  C   UNL d   1      15.012  15.097  -1.125  0.00  0.00     0.007 A 
ATOM     16  C   UNL d   1      15.122  15.853  -1.427  0.00  0.00     0.064 A 
ATOM     17  C   UNL d   1      14.895  16.019  -2.247  0.00  0.00     0.007 A 
ATOM     18  C   UNL d   1      14.561  15.373  -2.712  0.00  0.00     0.018 A 
BRANCH  16  19
ATOM     19  C   UNL d   1      15.448  16.424  -0.923  0.00  0.00     0.300 C 
ATOM     20  O   UNL d   1      16.014  16.182  -0.338  0.00  0.00    -0.259 OA
BRANCH  19  21
ATOM     21  O   UNL d   1      15.222  17.173  -1.004  0.00  0.00    -0.271 OA
BRANCH  21  22
ATOM     22  C   UNL d   1      15.573  17.733  -0.559  0.00  0.00     0.126 C 
ATOM     23  C   UNL d   1      15.161  18.446  -0.347  0.00  0.00     0.029 C 
ENDBRANCH  21  22
ENDBRANCH  19  21
ENDBRANCH  16  19
ENDBRANCH   1  13
TORSDOF 4
ENDMDL
MODEL 3
REMARK VINA RESULT:      53.7      2.074      3.593
REMARK  4 active torsions:
REMARK  status: ('A' for Active; 'I' for Inactive)
REMARK    1  A    between atoms: C_6  and  N_1 
REMARK    2  A    between atoms: C_8  and  C_14 
REMARK    3  A    between atoms: O_20  and  C_8 
REMARK    4  A    between atoms: C_22  and  O_20 
ROOT
ATOM      1  N   UNL d   1      14.008  13.758  -2.997  0.00  0.00    -0.242 N 
ATOM      2  C   UNL d   1      14.351  14.006  -2.261  0.00  0.00     0.267 A 
ATOM      3  C   UNL d   1      13.844  13.044  -3.009  0.00  0.00     0.267 A 
ATOM      4  C   UNL d   1      14.370  13.312  -1.815  0.00  0.00     0.061 A 
ATOM      5  C   UNL d   1      14.048  12.702  -2.290  0.00  0.00     0.061 A 
ATOM      6  C   UNL d   1      13.984  11.919  -2.005  0.00  0.00     0.005 A 
ATOM      7  C   UNL d   1      14.624  13.132  -1.061  0.00  0.00     0.005 A 
ATOM      8  O   UNL d   1      14.608  14.745  -2.024  0.00  0.00    -0.267 OA
ATOM      9  O   UNL d   1      13.502  12.647  -3.656  0.00  0.00    -0.267 OA
ATOM     10  C   UNL d   1      14.252  11.779  -1.242  0.00  0.00     0.000 A 
ATOM     11  C   UNL d   1      14.573  12.389  -0.767  0.00  0.00     0.000 A 
ATOM     12  C   UNL d   1      14.828  12.210  -0.014  0.00  0.00     0.000 C 
ENDROOT
BRANCH   1  13
ATOM     13  C   UNL d   1      13.861  14.241  -3.649  0.00  0.00     0.070 A 
ATOM     14  C   UNL d   1      14.359  14.878  -3.827  0.00  0.00     0.018 A 
ATOM     15  C   UNL d   1      14.212  15.361  -4.479  0.00  0.00     0.007 A 
ATOM     16  C   UNL d   1      13.568  15.224  -4.970  0.00  0.00     0.064 A 
ATOM     17  C   UNL d   1      13.037  14.561  -4.797  0.00  0.00     0.007 A 
ATOM     18  C   UNL d   1      13.214  14.071  -4.108  0.00  0.00     0.018 A 
BRANCH  16  19
ATOM     19  C   UNL d   1      13.460  15.735  -5.613  0.00  0.00     0.300 C 
ATOM     20  O   UNL d   1      13.358  15.406  -6.388  0.00  0.00    -0.259 OA
BRANCH  19  21
ATOM     21  O   UNL d   1      13.456  16.511  -5.482  0.00  0.00    -0.271 OA
BRANCH  21  22
ATOM     22  C   UNL d   1      13.292  17.004  -6.086  0.00  0.00     0.126 C 
ATOM     23  C   UNL d   1      13.662  17.766  -6.142  0.00  0.00     0.029 C 
ENDBRANCH  21  22
ENDBRANCH  19  21
ENDBRANCH  16  19
ENDBRANCH   1  13
TORSDOF 4
ENDMDL
