MODEL 1
REMARK VINA RESULT:       4.6      0.000      0.000
REMARK  7 active torsions:
REMARK  status: ('A' for Active; 'I' for Inactive)
REMARK    1  A    between atoms: N_3  and  S_1 
REMARK    2  A    between atoms: C_6  and  S_1 
REMARK    3  A    between atoms: N_2  and  C_5 
REMARK    4  A    between atoms: C_4  and  N_3 
REMARK    5  A    between atoms: C_5  and  C_4 
REMARK    6  A    between atoms: C_10  and  C_5 
REMARK    7  A    between atoms: C_22  and  N_7 
ROOT
ATOM      1  C   UNL d   1      33.167  19.843 -22.874  0.00  0.00     0.086 C 
ENDROOT
BRANCH   1   2
ATOM      2  N   UNL d   1      33.182  20.454 -23.430  0.00  0.00    -0.300 N 
ATOM      3  C   UNL d   1      33.196  21.236 -23.178  0.00  0.00     0.100 A 
ATOM      4  C   UNL d   1      33.211  21.852 -23.731  0.00  0.00     0.100 A 
ATOM      5  N   UNL d   1      33.212  21.678 -24.537  0.00  0.00    -0.300 N 
ATOM      6  C   UNL d   1      33.198  20.889 -24.787  0.00  0.00     0.100 A 
ATOM      7  C   UNL d   1      33.183  20.281 -24.236  0.00  0.00     0.100 A 
BRANCH   5   8
ATOM      8  C   UNL d   1      33.228  22.289 -25.097  0.00  0.00     0.080 C 
ATOM      9  C   UNL d   1      33.084  23.070 -24.860  0.00  0.00     0.021 C 
ENDBRANCH   5   8
ENDBRANCH   1   2
BRANCH   1  10
ATOM     10  C   UNL d   1      33.234  19.055 -23.121  0.00  0.00     0.130 C 
BRANCH  10  11
ATOM     11  N   UNL d   1      32.571  18.659 -23.418  0.00  0.00    -0.155 NA
BRANCH  11  12
ATOM     12  S   UNL d   1      32.528  17.840 -23.378  0.00  0.00     0.285 S 
ATOM     13  O   UNL d   1      32.486  17.017 -23.336  0.00  0.00    -0.198 OA
ATOM     14  O   UNL d   1      33.240  17.827 -22.945  0.00  0.00    -0.198 OA
BRANCH  12  15
ATOM     15  C   UNL d   1      31.817  17.860 -23.810  0.00  0.00     0.105 A 
ATOM     16  C   UNL d   1      31.832  17.881 -24.633  0.00  0.00     0.013 A 
ATOM     17  C   UNL d   1      31.129  17.901 -25.058  0.00  0.00     0.001 A 
ATOM     18  C   UNL d   1      30.406  17.898 -24.659  0.00  0.00     0.000 A 
ATOM     19  C   UNL d   1      30.391  17.877 -23.836  0.00  0.00     0.001 A 
ATOM     20  C   UNL d   1      29.691  17.918 -25.088  0.00  0.00     0.000 C 
ATOM     21  C   UNL d   1      31.094  17.858 -23.413  0.00  0.00     0.013 A 
ENDBRANCH  12  15
ENDBRANCH  11  12
ENDBRANCH  10  11
ENDBRANCH   1  10
BRANCH   1  22
ATOM     22  C   UNL d   1      33.085  20.016 -22.065  0.00  0.00     0.037 A 
ATOM     23  C   UNL d   1      32.851  20.775 -21.829  0.00  0.00     0.100 A 
ATOM     24  N   UNL d   1      32.770  20.947 -21.028  0.00  0.00    -0.242 NA
ATOM     25  C   UNL d   1      32.921  20.360 -20.463  0.00  0.00     0.099 A 
ATOM     26  C   UNL d   1      33.152  19.608 -20.702  0.00  0.00     0.021 A 
ATOM     27  C   UNL d   1      33.234  19.437 -21.503  0.00  0.00     0.005 A 
ENDBRANCH   1  22
TORSDOF 7
ENDMDL
MODEL 2
REMARK VINA RESULT:       7.3      0.979      2.709
REMARK  7 active torsions:
REMARK  status: ('A' for Active; 'I' for Inactive)
REMARK    1  A    between atoms: N_3  and  S_1 
REMARK    2  A    between atoms: C_6  and  S_1 
REMARK    3  A    between atoms: N_2  and  C_5 
REMARK    4  A    between atoms: C_4  and  N_3 
REMARK    5  A    between atoms: C_5  and  C_4 
REMARK    6  A    between atoms: C_10  and  C_5 
REMARK    7  A    between atoms: C_22  and  N_7 
ROOT
ATOM      1  C   UNL d   1      33.081  20.664 -22.529  0.00  0.00     0.086 C 
ENDROOT
BRANCH   1   2
ATOM      2  N   UNL d   1      32.907  20.984 -21.786  0.00  0.00    -0.300 N 
ATOM      3  C   UNL d   1      32.785  20.486 -21.145  0.00  0.00     0.100 A 
ATOM      4  C   UNL d   1      32.611  20.802 -20.399  0.00  0.00     0.100 A 
ATOM      5  N   UNL d   1      32.560  21.619 -20.303  0.00  0.00    -0.300 N 
ATOM      6  C   UNL d   1      32.684  22.118 -20.952  0.00  0.00     0.100 A 
ATOM      7  C   UNL d   1      32.857  21.801 -21.690  0.00  0.00     0.100 A 
BRANCH   5   8
ATOM      8  C   UNL d   1      32.386  21.943 -19.561  0.00  0.00     0.080 C 
ATOM      9  C   UNL d   1      32.735  22.658 -19.331  0.00  0.00     0.021 C 
ENDBRANCH   5   8
ENDBRANCH   1   2
BRANCH   1  10
ATOM     10  C   UNL d   1      33.226  19.852 -22.607  0.00  0.00     0.130 C 
BRANCH  10  11
ATOM     11  N   UNL d   1      32.612  19.345 -22.834  0.00  0.00    -0.155 NA
BRANCH  11  12
ATOM     12  S   UNL d   1      32.676  18.537 -22.701  0.00  0.00     0.285 S 
ATOM     13  O   UNL d   1      32.740  17.725 -22.566  0.00  0.00    -0.198 OA
ATOM     14  O   UNL d   1      33.232  18.683 -22.097  0.00  0.00    -0.198 OA
BRANCH  12  15
ATOM     15  C   UNL d   1      32.119  18.397 -23.304  0.00  0.00     0.105 A 
ATOM     16  C   UNL d   1      32.358  18.073 -24.022  0.00  0.00     0.013 A 
ATOM     17  C   UNL d   1      31.807  17.936 -24.616  0.00  0.00     0.001 A 
ATOM     18  C   UNL d   1      31.013  18.125 -24.493  0.00  0.00     0.000 A 
ATOM     19  C   UNL d   1      30.774  18.450 -23.775  0.00  0.00     0.001 A 
ATOM     20  C   UNL d   1      30.451  17.987 -25.094  0.00  0.00     0.000 C 
ATOM     21  C   UNL d   1      31.326  18.586 -23.182  0.00  0.00     0.013 A 
ENDBRANCH  12  15
ENDBRANCH  11  12
ENDBRANCH  10  11
ENDBRANCH   1  10
BRANCH   1  22
ATOM     22  C   UNL d   1      33.111  21.155 -23.199  0.00  0.00     0.037 A 
ATOM     23  C   UNL d   1      33.050  21.976 -23.110  0.00  0.00     0.100 A 
ATOM     24  N   UNL d   1      33.080  22.463 -23.773  0.00  0.00    -0.242 NA
ATOM     25  C   UNL d   1      33.170  22.128 -24.526  0.00  0.00     0.099 A 
ATOM     26  C   UNL d   1      33.230  21.312 -24.610  0.00  0.00     0.021 A 
ATOM     27  C   UNL d   1      33.200  20.826 -23.946  0.00  0.00     0.005 A 
ENDBRANCH   1  22
TORSDOF 7
ENDMDL
