MODEL 1
REMARK VINA RESULT:      -1.5      0.000      0.000
REMARK  2 active torsions:
REMARK  status: ('A' for Active; 'I' for Inactive)
REMARK       I    between atoms: N_3  and  C_1 
REMARK       I    between atoms: N_4  and  C_1 
REMARK       I    between atoms: C_2  and  N_5 
REMARK       I    between atoms: N_6  and  C_2 
REMARK    1  A    between atoms: C_13  and  N_4 
REMARK    2  A    between atoms: C_14  and  N_4 
ROOT
ATOM      1  C   UNL d   1      32.708  21.643 -20.349  0.00  0.00     0.339 C 
ATOM      2  C   UNL d   1      32.906  20.012 -23.209  0.00  0.00     0.340 C 
ATOM      3  N   UNL d   1      32.758  21.228 -21.074  0.00  0.00    -0.254 N 
ATOM      4  N   UNL d   1      32.602  22.459 -20.346  0.00  0.00    -0.260 N 
ATOM      5  N   UNL d   1      32.857  20.417 -22.493  0.00  0.00    -0.254 N 
ATOM      6  N   UNL d   1      33.012  19.193 -23.215  0.00  0.00    -0.253 N 
ATOM      7  O   UNL d   1      32.765  21.228 -19.631  0.00  0.00    -0.245 OA
ATOM      8  O   UNL d   1      32.850  20.424 -23.916  0.00  0.00    -0.245 OA
ATOM      9  C   UNL d   1      32.866  20.398 -21.058  0.00  0.00     0.104 A 
ATOM     10  C   UNL d   1      32.703  21.633 -21.776  0.00  0.00     0.104 A 
ATOM     11  C   UNL d   1      32.752  21.226 -22.487  0.00  0.00     0.104 A 
ATOM     12  C   UNL d   1      32.915  19.991 -21.770  0.00  0.00     0.104 A 
ATOM     13  O   UNL d   1      33.225  17.554 -23.230  0.00  0.00    -0.300 OA
ATOM     14  C   UNL d   1      33.061  18.792 -23.934  0.00  0.00     0.111 A 
ATOM     15  C   UNL d   1      33.069  18.782 -22.501  0.00  0.00     0.111 A 
ATOM     16  C   UNL d   1      33.175  17.959 -22.514  0.00  0.00     0.142 A 
ATOM     17  C   UNL d   1      33.167  17.975 -23.946  0.00  0.00     0.142 A 
ENDROOT
BRANCH   4  18
ATOM     18  C   UNL d   1      32.552  22.872 -19.624  0.00  0.00     0.068 A 
ATOM     19  C   UNL d   1      31.830  23.220 -19.397  0.00  0.00     0.018 A 
ATOM     20  C   UNL d   1      31.780  23.629 -18.682  0.00  0.00     0.002 A 
ATOM     21  C   UNL d   1      32.445  23.691 -18.196  0.00  0.00     0.000 A 
ATOM     22  C   UNL d   1      33.164  23.344 -18.423  0.00  0.00     0.002 A 
ATOM     23  C   UNL d   1      33.214  22.935 -19.138  0.00  0.00     0.018 A 
ENDBRANCH   4  18
BRANCH   4  24
ATOM     24  C   UNL d   1      32.546  22.871 -21.052  0.00  0.00     0.068 A 
ATOM     25  C   UNL d   1      31.812  22.996 -21.405  0.00  0.00     0.018 A 
ATOM     26  C   UNL d   1      31.767  23.408 -22.107  0.00  0.00     0.002 A 
ATOM     27  C   UNL d   1      32.447  23.702 -22.471  0.00  0.00     0.000 A 
ATOM     28  C   UNL d   1      33.186  23.574 -22.113  0.00  0.00     0.002 A 
ATOM     29  C   UNL d   1      33.234  23.159 -21.404  0.00  0.00     0.018 A 
ENDBRANCH   4  24
TORSDOF 2
ENDMDL
