MODEL 1
REMARK VINA RESULT:      -4.8      0.000      0.000
REMARK  3 active torsions:
REMARK  status: ('A' for Active; 'I' for Inactive)
REMARK    1  A    between atoms: C_6  and  C_1 
REMARK    2  A    between atoms: O_2  and  C_6 
REMARK    3  A    between atoms: C_3  and  O_2 
ROOT
ATOM      1  C   UNL d   1      56.448  -0.272  32.202  0.00  0.00     0.134 A 
ATOM      2  C   UNL d   1      56.168  -0.971  32.537  0.00  0.00     0.218 A 
ATOM      3  O   UNL d   1      56.431  -1.701  32.258  0.00  0.00    -0.284 OA
ATOM      4  C   UNL d   1      56.189   0.454  32.477  0.00  0.00     0.028 A 
ATOM      5  C   UNL d   1      55.626  -0.951  33.151  0.00  0.00     0.044 A 
ATOM      6  C   UNL d   1      55.359  -0.217  33.435  0.00  0.00     0.003 A 
ATOM      7  C   UNL d   1      55.639   0.483  33.100  0.00  0.00     0.002 A 
ENDROOT
BRANCH   1   8
ATOM      8  O   UNL d   1      56.994  -0.296  31.584  0.00  0.00    -0.316 OA
BRANCH   8   9
ATOM      9  C   UNL d   1      57.270   0.414  31.250  0.00  0.00     0.246 C 
BRANCH   9  10
ATOM     10  C   UNL d   1      57.801   0.388  30.623  0.00  0.00     0.217 C 
ATOM     11  O   UNL d   1      58.608   0.430  30.749  0.00  0.00    -0.645 OA
ATOM     12  O   UNL d   1      57.556   0.319  29.842  0.00  0.00    -0.645 OA
ENDBRANCH   9  10
ENDBRANCH   8   9
ENDBRANCH   1   8
TORSDOF 3
ENDMDL
MODEL 2
REMARK VINA RESULT:      -4.8      1.862      3.111
REMARK  3 active torsions:
REMARK  status: ('A' for Active; 'I' for Inactive)
REMARK    1  A    between atoms: C_6  and  C_1 
REMARK    2  A    between atoms: O_2  and  C_6 
REMARK    3  A    between atoms: C_3  and  O_2 
ROOT
ATOM      1  C   UNL d   1      56.053  -0.243  32.795  0.00  0.00     0.134 A 
ATOM      2  C   UNL d   1      56.219  -0.985  32.474  0.00  0.00     0.218 A 
ATOM      3  O   UNL d   1      55.889  -1.665  32.805  0.00  0.00    -0.284 OA
ATOM      4  C   UNL d   1      56.379   0.433  32.470  0.00  0.00     0.028 A 
ATOM      5  C   UNL d   1      56.713  -1.056  31.825  0.00  0.00     0.044 A 
ATOM      6  C   UNL d   1      57.048  -0.373  31.489  0.00  0.00     0.003 A 
ATOM      7  C   UNL d   1      56.882   0.368  31.810  0.00  0.00     0.002 A 
ENDROOT
BRANCH   1   8
ATOM      8  O   UNL d   1      55.555  -0.175  33.449  0.00  0.00    -0.316 OA
BRANCH   8   9
ATOM      9  C   UNL d   1      55.345   0.579  33.729  0.00  0.00     0.246 C 
BRANCH   9  10
ATOM     10  C   UNL d   1      54.848   0.646  34.381  0.00  0.00     0.217 C 
ATOM     11  O   UNL d   1      55.148   0.680  35.141  0.00  0.00    -0.645 OA
ATOM     12  O   UNL d   1      54.030   0.681  34.309  0.00  0.00    -0.645 OA
ENDBRANCH   9  10
ENDBRANCH   8   9
ENDBRANCH   1   8
TORSDOF 3
ENDMDL
MODEL 3
REMARK VINA RESULT:      -4.0      8.408      9.330
REMARK  3 active torsions:
REMARK  status: ('A' for Active; 'I' for Inactive)
REMARK    1  A    between atoms: C_6  and  C_1 
REMARK    2  A    between atoms: O_2  and  C_6 
REMARK    3  A    between atoms: C_3  and  O_2 
ROOT
ATOM      1  C   UNL d   1      59.866  -8.190  35.571  0.00  0.00     0.134 A 
ATOM      2  C   UNL d   1      59.901  -8.703  34.926  0.00  0.00     0.218 A 
ATOM      3  O   UNL d   1      60.261  -8.464  34.224  0.00  0.00    -0.284 OA
ATOM      4  C   UNL d   1      59.510  -8.424  36.270  0.00  0.00     0.028 A 
ATOM      5  C   UNL d   1      59.581  -9.455  34.975  0.00  0.00     0.044 A 
ATOM      6  C   UNL d   1      59.218  -9.699  35.682  0.00  0.00     0.003 A 
ATOM      7  C   UNL d   1      59.182  -9.186  36.327  0.00  0.00     0.002 A 
ENDROOT
BRANCH   1   8
ATOM      8  O   UNL d   1      60.190  -7.433  35.519  0.00  0.00    -0.316 OA
BRANCH   8   9
ATOM      9  C   UNL d   1      60.072  -6.891  36.138  0.00  0.00     0.246 C 
BRANCH   9  10
ATOM     10  C   UNL d   1      60.375  -6.129  36.074  0.00  0.00     0.217 C 
ATOM     11  O   UNL d   1      61.133  -5.953  36.325  0.00  0.00    -0.645 OA
ATOM     12  O   UNL d   1      59.941  -5.507  35.758  0.00  0.00    -0.645 OA
ENDBRANCH   9  10
ENDBRANCH   8   9
ENDBRANCH   1   8
TORSDOF 3
ENDMDL
MODEL 4
REMARK VINA RESULT:      -3.8      1.229      1.678
REMARK  3 active torsions:
REMARK  status: ('A' for Active; 'I' for Inactive)
REMARK    1  A    between atoms: C_6  and  C_1 
REMARK    2  A    between atoms: O_2  and  C_6 
REMARK    3  A    between atoms: C_3  and  O_2 
ROOT
ATOM      1  C   UNL d   1      56.345   0.068  33.208  0.00  0.00     0.134 A 
ATOM      2  C   UNL d   1      56.629   0.415  33.900  0.00  0.00     0.218 A 
ATOM      3  O   UNL d   1      57.436   0.556  33.994  0.00  0.00    -0.284 OA
ATOM      4  C   UNL d   1      55.545  -0.074  33.111  0.00  0.00     0.028 A 
ATOM      5  C   UNL d   1      56.115   0.624  34.502  0.00  0.00     0.044 A 
ATOM      6  C   UNL d   1      55.300   0.483  34.410  0.00  0.00     0.003 A 
ATOM      7  C   UNL d   1      55.017   0.136  33.718  0.00  0.00     0.002 A 
ENDROOT
BRANCH   1   8
ATOM      8  O   UNL d   1      56.866  -0.142  32.604  0.00  0.00    -0.316 OA
BRANCH   8   9
ATOM      9  C   UNL d   1      56.567  -0.427  31.882  0.00  0.00     0.246 C 
BRANCH   9  10
ATOM     10  C   UNL d   1      57.088  -0.681  31.299  0.00  0.00     0.217 C 
ATOM     11  O   UNL d   1      57.265  -1.474  31.206  0.00  0.00    -0.645 OA
ATOM     12  O   UNL d   1      57.457  -0.161  30.781  0.00  0.00    -0.645 OA
ENDBRANCH   9  10
ENDBRANCH   8   9
ENDBRANCH   1   8
TORSDOF 3
ENDMDL
MODEL 5
REMARK VINA RESULT:      -3.7      1.220      3.061
REMARK  3 active torsions:
REMARK  status: ('A' for Active; 'I' for Inactive)
REMARK    1  A    between atoms: C_6  and  C_1 
REMARK    2  A    between atoms: O_2  and  C_6 
REMARK    3  A    between atoms: C_3  and  O_2 
ROOT
ATOM      1  C   UNL d   1      57.360  -0.562  31.083  0.00  0.00     0.134 A 
ATOM      2  C   UNL d   1      57.762  -0.934  30.466  0.00  0.00     0.218 A 
ATOM      3  O   UNL d   1      57.669  -1.743  30.336  0.00  0.00    -0.284 OA
ATOM      4  C   UNL d   1      57.450   0.241  31.215  0.00  0.00     0.028 A 
ATOM      5  C   UNL d   1      58.258  -0.506  29.976  0.00  0.00     0.044 A 
ATOM      6  C   UNL d   1      58.355   0.310  30.104  0.00  0.00     0.003 A 
ATOM      7  C   UNL d   1      57.953   0.682  30.721  0.00  0.00     0.002 A 
ENDROOT
BRANCH   1   8
ATOM      8  O   UNL d   1      56.861  -0.996  31.576  0.00  0.00    -0.316 OA
BRANCH   8   9
ATOM      9  C   UNL d   1      56.556  -0.646  32.265  0.00  0.00     0.246 C 
BRANCH   9  10
ATOM     10  C   UNL d   1      56.021  -1.063  32.729  0.00  0.00     0.217 C 
ATOM     11  O   UNL d   1      55.321  -0.720  32.980  0.00  0.00    -0.645 OA
ATOM     12  O   UNL d   1      56.152  -1.838  32.966  0.00  0.00    -0.645 OA
ENDBRANCH   9  10
ENDBRANCH   8   9
ENDBRANCH   1   8
TORSDOF 3
ENDMDL
MODEL 6
REMARK VINA RESULT:      -2.5      3.472      4.835
REMARK  3 active torsions:
REMARK  status: ('A' for Active; 'I' for Inactive)
REMARK    1  A    between atoms: C_6  and  C_1 
REMARK    2  A    between atoms: O_2  and  C_6 
REMARK    3  A    between atoms: C_3  and  O_2 
ROOT
ATOM      1  C   UNL d   1      59.341  -2.349  29.044  0.00  0.00     0.134 A 
ATOM      2  C   UNL d   1      59.163  -3.149  28.952  0.00  0.00     0.218 A 
ATOM      3  O   UNL d   1      58.379  -3.404  28.957  0.00  0.00    -0.284 OA
ATOM      4  C   UNL d   1      60.119  -2.092  29.039  0.00  0.00     0.028 A 
ATOM      5  C   UNL d   1      59.761  -3.699  28.854  0.00  0.00     0.044 A 
ATOM      6  C   UNL d   1      60.553  -3.446  28.848  0.00  0.00     0.003 A 
ATOM      7  C   UNL d   1      60.731  -2.646  28.940  0.00  0.00     0.002 A 
ENDROOT
BRANCH   1   8
ATOM      8  O   UNL d   1      58.737  -1.797  29.143  0.00  0.00    -0.316 OA
BRANCH   8   9
ATOM      9  C   UNL d   1      58.926  -1.002  29.296  0.00  0.00     0.246 C 
BRANCH   9  10
ATOM     10  C   UNL d   1      58.323  -0.448  29.370  0.00  0.00     0.217 C 
ATOM     11  O   UNL d   1      57.938  -0.333  30.082  0.00  0.00    -0.645 OA
ATOM     12  O   UNL d   1      58.073   0.018  28.740  0.00  0.00    -0.645 OA
ENDBRANCH   9  10
ENDBRANCH   8   9
ENDBRANCH   1   8
TORSDOF 3
ENDMDL
MODEL 7
REMARK VINA RESULT:      -2.5      2.919      4.183
REMARK  3 active torsions:
REMARK  status: ('A' for Active; 'I' for Inactive)
REMARK    1  A    between atoms: C_6  and  C_1 
REMARK    2  A    between atoms: O_2  and  C_6 
REMARK    3  A    between atoms: C_3  and  O_2 
ROOT
ATOM      1  C   UNL d   1      58.636  -0.955  29.376  0.00  0.00     0.134 A 
ATOM      2  C   UNL d   1      58.191  -0.481  29.884  0.00  0.00     0.218 A 
ATOM      3  O   UNL d   1      57.751  -0.822  30.492  0.00  0.00    -0.284 OA
ATOM      4  C   UNL d   1      59.075  -0.620  28.772  0.00  0.00     0.028 A 
ATOM      5  C   UNL d   1      58.181   0.332  29.793  0.00  0.00     0.044 A 
ATOM      6  C   UNL d   1      58.625   0.680  29.181  0.00  0.00     0.003 A 
ATOM      7  C   UNL d   1      59.070   0.206  28.673  0.00  0.00     0.002 A 
ENDROOT
BRANCH   1   8
ATOM      8  O   UNL d   1      58.644  -1.774  29.472  0.00  0.00    -0.316 OA
BRANCH   8   9
ATOM      9  C   UNL d   1      59.030  -2.250  28.910  0.00  0.00     0.246 C 
BRANCH   9  10
ATOM     10  C   UNL d   1      59.076  -3.062  29.030  0.00  0.00     0.217 C 
ATOM     11  O   UNL d   1      59.765  -3.413  29.298  0.00  0.00    -0.645 OA
ATOM     12  O   UNL d   1      58.442  -3.565  28.889  0.00  0.00    -0.645 OA
ENDBRANCH   9  10
ENDBRANCH   8   9
ENDBRANCH   1   8
TORSDOF 3
ENDMDL
MODEL 8
REMARK VINA RESULT:      -1.9      9.836     10.174
REMARK  3 active torsions:
REMARK  status: ('A' for Active; 'I' for Inactive)
REMARK    1  A    between atoms: C_6  and  C_1 
REMARK    2  A    between atoms: O_2  and  C_6 
REMARK    3  A    between atoms: C_3  and  O_2 
ROOT
ATOM      1  C   UNL d   1      59.580  -9.586  33.636  0.00  0.00     0.134 A 
ATOM      2  C   UNL d   1      59.645  -9.620  34.458  0.00  0.00     0.218 A 
ATOM      3  O   UNL d   1      58.983  -9.790  34.920  0.00  0.00    -0.284 OA
ATOM      4  C   UNL d   1      60.235  -9.418  33.174  0.00  0.00     0.028 A 
ATOM      5  C   UNL d   1      60.364  -9.486  34.825  0.00  0.00     0.044 A 
ATOM      6  C   UNL d   1      61.033  -9.315  34.362  0.00  0.00     0.003 A 
ATOM      7  C   UNL d   1      60.969  -9.280  33.540  0.00  0.00     0.002 A 
ENDROOT
BRANCH   1   8
ATOM      8  O   UNL d   1      58.854  -9.721  33.269  0.00  0.00    -0.316 OA
BRANCH   8   9
ATOM      9  C   UNL d   1      58.806  -9.725  32.439  0.00  0.00     0.246 C 
BRANCH   9  10
ATOM     10  C   UNL d   1      58.071  -9.783  32.076  0.00  0.00     0.217 C 
ATOM     11  O   UNL d   1      57.382  -9.818  32.516  0.00  0.00    -0.645 OA
ATOM     12  O   UNL d   1      57.984  -9.810  31.259  0.00  0.00    -0.645 OA
ENDBRANCH   9  10
ENDBRANCH   8   9
ENDBRANCH   1   8
TORSDOF 3
ENDMDL
