MODEL 1
REMARK VINA RESULT:     -10.1      0.000      0.000
REMARK  5 active torsions:
REMARK  status: ('A' for Active; 'I' for Inactive)
REMARK       I    between atoms: C_8  and  N_1 
REMARK    1  A    between atoms: C_10  and  C_3 
REMARK    2  A    between atoms: C_4  and  S_14 
REMARK    3  A    between atoms: C_15  and  C_6 
REMARK    4  A    between atoms: C_16  and  C_8 
REMARK    5  A    between atoms: S_14  and  C_16 
ROOT
ATOM      1  N   UNL d   1      53.007  32.381  53.535  0.00  0.00    -0.195 N 
ATOM      2  N   UNL d   1      52.688  31.673  53.324  0.00  0.00    -0.162 NA
ATOM      3  C   UNL d   1      53.182  31.068  53.604  0.00  0.00     0.109 A 
ATOM      4  C   UNL d   1      53.711  32.231  53.953  0.00  0.00     0.088 A 
ATOM      5  C   UNL d   1      53.797  31.426  53.983  0.00  0.00     0.041 A 
ATOM      6  C   UNL d   1      52.778  33.148  53.418  0.00  0.00     0.275 C 
ATOM      7  O   UNL d   1      53.234  33.783  53.709  0.00  0.00    -0.266 OA
ENDROOT
BRANCH   4   8
ATOM      8  C   UNL d   1      54.232  32.761  54.280  0.00  0.00     0.018 A 
ATOM      9  C   UNL d   1      54.133  33.012  55.058  0.00  0.00     0.004 A 
ATOM     10  C   UNL d   1      54.672  33.557  55.387  0.00  0.00     0.030 A 
ATOM     11  C   UNL d   1      55.297  33.842  54.939  0.00  0.00     0.140 A 
ATOM     12  C   UNL d   1      55.393  33.589  54.161  0.00  0.00     0.030 A 
ATOM     13  F   UNL d   1      55.843  34.386  55.252  0.00  0.00    -0.204 F 
ATOM     14  C   UNL d   1      54.861  33.046  53.825  0.00  0.00     0.004 A 
ENDBRANCH   4   8
BRANCH   6  15
ATOM     15  C   UNL d   1      52.075  33.314  53.000  0.00  0.00     0.128 C 
BRANCH  15  16
ATOM     16  S   UNL d   1      51.809  34.098  52.920  0.00  0.00    -0.069 SA
BRANCH  16  17
ATOM     17  C   UNL d   1      51.061  34.258  52.592  0.00  0.00     0.140 A 
ATOM     18  N   UNL d   1      50.864  34.146  51.804  0.00  0.00    -0.232 NA
ATOM     19  C   UNL d   1      50.077  34.370  51.711  0.00  0.00     0.088 A 
ATOM     20  C   UNL d   1      49.583  34.377  51.043  0.00  0.00     0.020 A 
ATOM     21  C   UNL d   1      49.791  34.619  52.435  0.00  0.00     0.049 A 
ATOM     22  C   UNL d   1      48.801  34.635  51.110  0.00  0.00     0.002 A 
ATOM     23  C   UNL d   1      48.518  34.887  51.854  0.00  0.00     0.001 A 
ATOM     24  C   UNL d   1      49.017  34.876  52.508  0.00  0.00     0.008 A 
ATOM     25  S   UNL d   1      50.402  34.551  52.991  0.00  0.00    -0.060 SA
ENDBRANCH  16  17
ENDBRANCH  15  16
ENDBRANCH   6  15
BRANCH   3  26
ATOM     26  C   UNL d   1      53.043  30.260  53.499  0.00  0.00     0.049 A 
ATOM     27  S   UNL d   1      52.671  29.805  52.936  0.00  0.00    -0.085 SA
ATOM     28  C   UNL d   1      52.734  29.018  53.173  0.00  0.00     0.035 A 
ATOM     29  C   UNL d   1      53.139  28.982  53.871  0.00  0.00     0.007 A 
ATOM     30  C   UNL d   1      53.340  29.759  54.087  0.00  0.00     0.009 A 
ENDBRANCH   3  26
TORSDOF 5
ENDMDL
MODEL 2
REMARK VINA RESULT:      -7.4      1.676      3.186
REMARK  5 active torsions:
REMARK  status: ('A' for Active; 'I' for Inactive)
REMARK       I    between atoms: C_8  and  N_1 
REMARK    1  A    between atoms: C_10  and  C_3 
REMARK    2  A    between atoms: C_4  and  S_14 
REMARK    3  A    between atoms: C_15  and  C_6 
REMARK    4  A    between atoms: C_16  and  C_8 
REMARK    5  A    between atoms: S_14  and  C_16 
ROOT
ATOM      1  N   UNL d   1      52.849  32.664  53.664  0.00  0.00    -0.195 N 
ATOM      2  N   UNL d   1      53.255  33.251  54.035  0.00  0.00    -0.162 NA
ATOM      3  C   UNL d   1      53.955  32.932  54.347  0.00  0.00     0.109 A 
ATOM      4  C   UNL d   1      53.290  31.962  53.737  0.00  0.00     0.088 A 
ATOM      5  C   UNL d   1      53.958  32.148  54.156  0.00  0.00     0.041 A 
ATOM      6  C   UNL d   1      52.145  32.644  53.266  0.00  0.00     0.275 C 
ATOM      7  O   UNL d   1      51.859  31.936  52.932  0.00  0.00    -0.266 OA
ENDROOT
BRANCH   4   8
ATOM      8  C   UNL d   1      53.115  31.220  53.457  0.00  0.00     0.018 A 
ATOM      9  C   UNL d   1      53.311  31.013  52.685  0.00  0.00     0.004 A 
ATOM     10  C   UNL d   1      53.129  30.249  52.405  0.00  0.00     0.030 A 
ATOM     11  C   UNL d   1      52.756  29.707  52.894  0.00  0.00     0.140 A 
ATOM     12  C   UNL d   1      52.562  29.917  53.667  0.00  0.00     0.030 A 
ATOM     13  F   UNL d   1      52.567  28.941  52.630  0.00  0.00    -0.204 F 
ATOM     14  C   UNL d   1      52.739  30.676  53.955  0.00  0.00     0.004 A 
ENDBRANCH   4   8
BRANCH   6  15
ATOM     15  C   UNL d   1      51.692  33.341  53.185  0.00  0.00     0.128 C 
BRANCH  15  16
ATOM     16  S   UNL d   1      51.307  33.510  52.468  0.00  0.00    -0.069 SA
BRANCH  16  17
ATOM     17  C   UNL d   1      50.623  33.984  52.458  0.00  0.00     0.140 A 
ATOM     18  N   UNL d   1      50.356  34.429  53.093  0.00  0.00    -0.232 NA
ATOM     19  C   UNL d   1      49.667  34.813  52.853  0.00  0.00     0.088 A 
ATOM     20  C   UNL d   1      49.159  35.332  53.256  0.00  0.00     0.020 A 
ATOM     21  C   UNL d   1      49.511  34.606  52.077  0.00  0.00     0.049 A 
ATOM     22  C   UNL d   1      48.495  35.641  52.873  0.00  0.00     0.002 A 
ATOM     23  C   UNL d   1      48.344  35.424  52.082  0.00  0.00     0.001 A 
ATOM     24  C   UNL d   1      48.854  34.909  51.693  0.00  0.00     0.008 A 
ATOM     25  S   UNL d   1      50.106  34.087  51.824  0.00  0.00    -0.060 SA
ENDBRANCH  16  17
ENDBRANCH  15  16
ENDBRANCH   6  15
BRANCH   3  26
ATOM     26  C   UNL d   1      54.521  33.360  54.769  0.00  0.00     0.049 A 
ATOM     27  S   UNL d   1      54.603  33.611  55.539  0.00  0.00    -0.085 SA
ATOM     28  C   UNL d   1      55.315  34.022  55.592  0.00  0.00     0.035 A 
ATOM     29  C   UNL d   1      55.672  34.029  54.866  0.00  0.00     0.007 A 
ATOM     30  C   UNL d   1      55.182  33.615  54.339  0.00  0.00     0.009 A 
ENDBRANCH   3  26
TORSDOF 5
ENDMDL
