MODEL 1
REMARK VINA RESULT:      -9.1      0.000      0.000
REMARK  7 active torsions:
REMARK  status: ('A' for Active; 'I' for Inactive)
REMARK    1  A    between atoms: C_16  and  N_3 
REMARK    2  A    between atoms: C_15  and  N_8 
REMARK    3  A    between atoms: C_12  and  C_10 
REMARK    4  A    between atoms: C_11  and  N_14 
REMARK    5  A    between atoms: O_22  and  C_12 
REMARK    6  A    between atoms: C_13  and  C_15 
REMARK       I    between atoms: N_14  and  C_13 
REMARK    7  A    between atoms: C_28  and  O_22 
ROOT
ATOM      1  C   UNL d   1      52.319  32.972  53.341  0.00  0.00     0.191 A 
ATOM      2  C   UNL d   1      52.560  33.768  53.295  0.00  0.00     0.196 A 
ATOM      3  N   UNL d   1      53.005  32.505  53.358  0.00  0.00    -0.193 N 
ATOM      4  N   UNL d   1      53.649  33.008  53.322  0.00  0.00    -0.058 NA
ATOM      5  N   UNL d   1      53.389  33.774  53.284  0.00  0.00    -0.122 NA
ATOM      6  N   UNL d   1      51.523  32.790  53.362  0.00  0.00    -0.204 NA
ATOM      7  C   UNL d   1      51.998  34.359  53.270  0.00  0.00     0.289 A 
ATOM      8  N   UNL d   1      51.194  34.181  53.290  0.00  0.00    -0.249 N 
ATOM      9  C   UNL d   1      50.953  33.385  53.337  0.00  0.00     0.187 A 
ATOM     10  O   UNL d   1      52.239  35.155  53.224  0.00  0.00    -0.265 OA
ENDROOT
BRANCH   8  11
ATOM     11  C   UNL d   1      50.616  34.778  53.266  0.00  0.00     0.147 C 
BRANCH  11  12
ATOM     12  C   UNL d   1      50.013  34.757  52.694  0.00  0.00     0.297 C 
ATOM     13  N   UNL d   1      49.337  35.210  52.805  0.00  0.00    -0.207 NA
ATOM     14  O   UNL d   1      50.097  34.282  52.024  0.00  0.00    -0.264 OA
BRANCH  13  15
ATOM     15  C   UNL d   1      48.732  35.194  52.240  0.00  0.00     0.090 A 
ATOM     16  C   UNL d   1      48.040  35.600  52.380  0.00  0.00     0.081 A 
ATOM     17  C   UNL d   1      47.436  35.583  51.815  0.00  0.00     0.007 A 
ATOM     18  C   UNL d   1      47.537  35.157  51.116  0.00  0.00     0.000 A 
ATOM     19  C   UNL d   1      48.228  34.751  50.977  0.00  0.00     0.002 A 
ATOM     20  C   UNL d   1      48.825  34.770  51.539  0.00  0.00     0.019 A 
BRANCH  16  21
ATOM     21  C   UNL d   1      47.939  36.026  53.079  0.00  0.00     0.302 C 
ATOM     22  O   UNL d   1      48.388  36.709  53.214  0.00  0.00    -0.259 OA
BRANCH  21  23
ATOM     23  O   UNL d   1      47.390  35.770  53.642  0.00  0.00    -0.271 OA
BRANCH  23  24
ATOM     24  C   UNL d   1      47.187  36.259  54.279  0.00  0.00     0.126 C 
ATOM     25  C   UNL d   1      46.557  36.059  54.764  0.00  0.00     0.029 C 
ENDBRANCH  23  24
ENDBRANCH  21  23
ENDBRANCH  16  21
ENDBRANCH  13  15
ENDBRANCH  11  12
ENDBRANCH   8  11
BRANCH   3  26
ATOM     26  C   UNL d   1      53.072  31.702  53.400  0.00  0.00     0.086 A 
ATOM     27  C   UNL d   1      52.878  31.226  52.737  0.00  0.00     0.019 A 
ATOM     28  C   UNL d   1      52.948  30.420  52.787  0.00  0.00     0.002 A 
ATOM     29  C   UNL d   1      53.212  30.056  53.499  0.00  0.00     0.000 A 
ATOM     30  C   UNL d   1      53.398  30.525  54.136  0.00  0.00     0.002 A 
ATOM     31  C   UNL d   1      53.286  29.214  53.554  0.00  0.00     0.000 C 
ATOM     32  C   UNL d   1      53.331  31.343  54.098  0.00  0.00     0.019 A 
ENDBRANCH   3  26
TORSDOF 7
ENDMDL
MODEL 2
REMARK VINA RESULT:      -8.3      1.341      6.108
REMARK  7 active torsions:
REMARK  status: ('A' for Active; 'I' for Inactive)
REMARK    1  A    between atoms: C_16  and  N_3 
REMARK    2  A    between atoms: C_15  and  N_8 
REMARK    3  A    between atoms: C_12  and  C_10 
REMARK    4  A    between atoms: C_11  and  N_14 
REMARK    5  A    between atoms: O_22  and  C_12 
REMARK    6  A    between atoms: C_13  and  C_15 
REMARK       I    between atoms: N_14  and  C_13 
REMARK    7  A    between atoms: C_28  and  O_22 
ROOT
ATOM      1  C   UNL d   1      49.092  35.061  52.749  0.00  0.00     0.191 A 
ATOM      2  C   UNL d   1      49.334  34.853  51.980  0.00  0.00     0.196 A 
ATOM      3  N   UNL d   1      48.363  35.451  52.683  0.00  0.00    -0.193 N 
ATOM      4  N   UNL d   1      48.166  35.479  51.889  0.00  0.00    -0.058 NA
ATOM      5  N   UNL d   1      48.749  35.119  51.456  0.00  0.00    -0.122 NA
ATOM      6  N   UNL d   1      49.562  34.868  53.388  0.00  0.00    -0.204 NA
ATOM      7  C   UNL d   1      50.040  34.458  51.872  0.00  0.00     0.289 A 
ATOM      8  N   UNL d   1      50.518  34.261  52.513  0.00  0.00    -0.249 N 
ATOM      9  C   UNL d   1      50.276  34.469  53.282  0.00  0.00     0.187 A 
ATOM     10  O   UNL d   1      50.283  34.250  51.102  0.00  0.00    -0.265 OA
ENDROOT
BRANCH   8  11
ATOM     11  C   UNL d   1      51.238  33.859  52.411  0.00  0.00     0.147 C 
BRANCH  11  12
ATOM     12  C   UNL d   1      51.843  33.925  52.978  0.00  0.00     0.297 C 
ATOM     13  N   UNL d   1      52.287  33.263  53.173  0.00  0.00    -0.207 NA
ATOM     14  O   UNL d   1      51.989  34.653  53.339  0.00  0.00    -0.264 OA
BRANCH  13  15
ATOM     15  C   UNL d   1      52.890  33.322  53.737  0.00  0.00     0.090 A 
ATOM     16  C   UNL d   1      53.421  32.710  53.824  0.00  0.00     0.081 A 
ATOM     17  C   UNL d   1      54.023  32.770  54.388  0.00  0.00     0.007 A 
ATOM     18  C   UNL d   1      54.083  33.446  54.857  0.00  0.00     0.000 A 
ATOM     19  C   UNL d   1      53.553  34.056  54.770  0.00  0.00     0.002 A 
ATOM     20  C   UNL d   1      52.957  33.995  54.210  0.00  0.00     0.019 A 
BRANCH  16  21
ATOM     21  C   UNL d   1      53.360  32.034  53.355  0.00  0.00     0.302 C 
ATOM     22  O   UNL d   1      53.584  32.064  52.559  0.00  0.00    -0.259 OA
BRANCH  21  23
ATOM     23  O   UNL d   1      53.077  31.330  53.683  0.00  0.00    -0.271 OA
BRANCH  23  24
ATOM     24  C   UNL d   1      53.218  30.607  53.304  0.00  0.00     0.126 C 
ATOM     25  C   UNL d   1      52.905  29.915  53.612  0.00  0.00     0.029 C 
ENDBRANCH  23  24
ENDBRANCH  21  23
ENDBRANCH  16  21
ENDBRANCH  13  15
ENDBRANCH  11  12
ENDBRANCH   8  11
BRANCH   3  26
ATOM     26  C   UNL d   1      47.898  35.761  53.265  0.00  0.00     0.086 A 
ATOM     27  C   UNL d   1      48.177  36.400  53.732  0.00  0.00     0.019 A 
ATOM     28  C   UNL d   1      47.705  36.707  54.316  0.00  0.00     0.002 A 
ATOM     29  C   UNL d   1      46.937  36.390  54.456  0.00  0.00     0.000 A 
ATOM     30  C   UNL d   1      46.675  35.772  53.999  0.00  0.00     0.002 A 
ATOM     31  C   UNL d   1      46.441  36.709  55.065  0.00  0.00     0.000 C 
ATOM     32  C   UNL d   1      47.144  35.452  53.404  0.00  0.00     0.019 A 
ENDBRANCH   3  26
TORSDOF 7
ENDMDL
MODEL 3
REMARK VINA RESULT:      -7.5      1.534      5.966
REMARK  7 active torsions:
REMARK  status: ('A' for Active; 'I' for Inactive)
REMARK    1  A    between atoms: C_16  and  N_3 
REMARK    2  A    between atoms: C_15  and  N_8 
REMARK    3  A    between atoms: C_12  and  C_10 
REMARK    4  A    between atoms: C_11  and  N_14 
REMARK    5  A    between atoms: O_22  and  C_12 
REMARK    6  A    between atoms: C_13  and  C_15 
REMARK       I    between atoms: N_14  and  C_13 
REMARK    7  A    between atoms: C_28  and  O_22 
ROOT
ATOM      1  C   UNL d   1      49.555  34.980  52.763  0.00  0.00     0.191 A 
ATOM      2  C   UNL d   1      49.783  34.703  52.011  0.00  0.00     0.196 A 
ATOM      3  N   UNL d   1      48.792  35.299  52.690  0.00  0.00    -0.193 N 
ATOM      4  N   UNL d   1      48.562  35.218  51.909  0.00  0.00    -0.058 NA
ATOM      5  N   UNL d   1      49.155  34.858  51.491  0.00  0.00    -0.122 NA
ATOM      6  N   UNL d   1      50.066  34.902  53.395  0.00  0.00    -0.204 NA
ATOM      7  C   UNL d   1      50.515  34.357  51.913  0.00  0.00     0.289 A 
ATOM      8  N   UNL d   1      51.035  34.277  52.547  0.00  0.00    -0.249 N 
ATOM      9  C   UNL d   1      50.807  34.553  53.299  0.00  0.00     0.187 A 
ATOM     10  O   UNL d   1      50.743  34.081  51.160  0.00  0.00    -0.265 OA
ENDROOT
BRANCH   8  11
ATOM     11  C   UNL d   1      51.782  33.926  52.454  0.00  0.00     0.147 C 
BRANCH  11  12
ATOM     12  C   UNL d   1      51.922  33.153  52.729  0.00  0.00     0.297 C 
ATOM     13  N   UNL d   1      52.695  32.889  52.811  0.00  0.00    -0.207 NA
ATOM     14  O   UNL d   1      51.286  32.662  52.917  0.00  0.00    -0.264 OA
BRANCH  13  15
ATOM     15  C   UNL d   1      52.841  32.122  53.084  0.00  0.00     0.090 A 
ATOM     16  C   UNL d   1      53.516  31.969  53.514  0.00  0.00     0.081 A 
ATOM     17  C   UNL d   1      53.663  31.202  53.787  0.00  0.00     0.007 A 
ATOM     18  C   UNL d   1      53.126  30.597  53.623  0.00  0.00     0.000 A 
ATOM     19  C   UNL d   1      52.452  30.750  53.194  0.00  0.00     0.002 A 
ATOM     20  C   UNL d   1      52.310  31.511  52.925  0.00  0.00     0.019 A 
BRANCH  16  21
ATOM     21  C   UNL d   1      54.053  32.574  53.678  0.00  0.00     0.302 C 
ATOM     22  O   UNL d   1      54.521  32.886  53.071  0.00  0.00    -0.259 OA
BRANCH  21  23
ATOM     23  O   UNL d   1      54.121  32.867  54.449  0.00  0.00    -0.271 OA
BRANCH  23  24
ATOM     24  C   UNL d   1      54.769  33.336  54.661  0.00  0.00     0.126 C 
ATOM     25  C   UNL d   1      54.823  33.640  55.421  0.00  0.00     0.029 C 
ENDBRANCH  23  24
ENDBRANCH  21  23
ENDBRANCH  16  21
ENDBRANCH  13  15
ENDBRANCH  11  12
ENDBRANCH   8  11
BRANCH   3  26
ATOM     26  C   UNL d   1      48.327  35.637  53.257  0.00  0.00     0.086 A 
ATOM     27  C   UNL d   1      47.633  35.246  53.521  0.00  0.00     0.019 A 
ATOM     28  C   UNL d   1      47.171  35.591  54.090  0.00  0.00     0.002 A 
ATOM     29  C   UNL d   1      47.380  36.338  54.418  0.00  0.00     0.000 A 
ATOM     30  C   UNL d   1      48.053  36.709  54.155  0.00  0.00     0.002 A 
ATOM     31  C   UNL d   1      46.898  36.701  55.013  0.00  0.00     0.000 C 
ATOM     32  C   UNL d   1      48.531  36.370  53.579  0.00  0.00     0.019 A 
ENDBRANCH   3  26
TORSDOF 7
ENDMDL
MODEL 4
REMARK VINA RESULT:      -7.0      1.397      5.923
REMARK  7 active torsions:
REMARK  status: ('A' for Active; 'I' for Inactive)
REMARK    1  A    between atoms: C_16  and  N_3 
REMARK    2  A    between atoms: C_15  and  N_8 
REMARK    3  A    between atoms: C_12  and  C_10 
REMARK    4  A    between atoms: C_11  and  N_14 
REMARK    5  A    between atoms: O_22  and  C_12 
REMARK    6  A    between atoms: C_13  and  C_15 
REMARK       I    between atoms: N_14  and  C_13 
REMARK    7  A    between atoms: C_28  and  O_22 
ROOT
ATOM      1  C   UNL d   1      49.711  34.840  52.459  0.00  0.00     0.191 A 
ATOM      2  C   UNL d   1      50.196  34.979  53.122  0.00  0.00     0.196 A 
ATOM      3  N   UNL d   1      48.989  35.225  52.595  0.00  0.00    -0.193 N 
ATOM      4  N   UNL d   1      49.034  35.591  53.325  0.00  0.00    -0.058 NA
ATOM      5  N   UNL d   1      49.761  35.447  53.652  0.00  0.00    -0.122 NA
ATOM      6  N   UNL d   1      49.994  34.390  51.839  0.00  0.00    -0.204 NA
ATOM      7  C   UNL d   1      50.949  34.665  53.146  0.00  0.00     0.289 A 
ATOM      8  N   UNL d   1      51.238  34.210  52.523  0.00  0.00    -0.249 N 
ATOM      9  C   UNL d   1      50.753  34.071  51.860  0.00  0.00     0.187 A 
ATOM     10  O   UNL d   1      51.433  34.804  53.809  0.00  0.00    -0.265 OA
ENDROOT
BRANCH   8  11
ATOM     11  C   UNL d   1      52.003  33.887  52.540  0.00  0.00     0.147 C 
BRANCH  11  12
ATOM     12  C   UNL d   1      52.117  33.083  52.718  0.00  0.00     0.297 C 
ATOM     13  N   UNL d   1      52.864  32.821  52.938  0.00  0.00    -0.207 NA
ATOM     14  O   UNL d   1      51.483  32.558  52.671  0.00  0.00    -0.264 OA
BRANCH  13  15
ATOM     15  C   UNL d   1      52.984  32.022  53.117  0.00  0.00     0.090 A 
ATOM     16  C   UNL d   1      53.629  31.802  53.563  0.00  0.00     0.081 A 
ATOM     17  C   UNL d   1      53.749  31.003  53.742  0.00  0.00     0.007 A 
ATOM     18  C   UNL d   1      53.217  30.435  53.467  0.00  0.00     0.000 A 
ATOM     19  C   UNL d   1      52.574  30.655  53.021  0.00  0.00     0.002 A 
ATOM     20  C   UNL d   1      52.457  31.448  52.846  0.00  0.00     0.019 A 
BRANCH  16  21
ATOM     21  C   UNL d   1      54.160  32.370  53.838  0.00  0.00     0.302 C 
ATOM     22  O   UNL d   1      54.737  32.674  53.329  0.00  0.00    -0.259 OA
BRANCH  21  23
ATOM     23  O   UNL d   1      54.115  32.632  54.621  0.00  0.00    -0.271 OA
BRANCH  23  24
ATOM     24  C   UNL d   1      54.712  33.111  54.936  0.00  0.00     0.126 C 
ATOM     25  C   UNL d   1      54.633  33.422  55.690  0.00  0.00     0.029 C 
ENDBRANCH  23  24
ENDBRANCH  21  23
ENDBRANCH  16  21
ENDBRANCH  13  15
ENDBRANCH  11  12
ENDBRANCH   8  11
BRANCH   3  26
ATOM     26  C   UNL d   1      48.335  35.259  52.121  0.00  0.00     0.086 A 
ATOM     27  C   UNL d   1      48.336  34.881  51.373  0.00  0.00     0.019 A 
ATOM     28  C   UNL d   1      47.676  34.919  50.903  0.00  0.00     0.002 A 
ATOM     29  C   UNL d   1      46.991  35.336  51.160  0.00  0.00     0.000 A 
ATOM     30  C   UNL d   1      46.999  35.699  51.887  0.00  0.00     0.002 A 
ATOM     31  C   UNL d   1      46.300  35.378  50.672  0.00  0.00     0.000 C 
ATOM     32  C   UNL d   1      47.662  35.667  52.373  0.00  0.00     0.019 A 
ENDBRANCH   3  26
TORSDOF 7
ENDMDL
MODEL 5
REMARK VINA RESULT:      -6.7      2.112      3.823
REMARK  7 active torsions:
REMARK  status: ('A' for Active; 'I' for Inactive)
REMARK    1  A    between atoms: C_16  and  N_3 
REMARK    2  A    between atoms: C_15  and  N_8 
REMARK    3  A    between atoms: C_12  and  C_10 
REMARK    4  A    between atoms: C_11  and  N_14 
REMARK    5  A    between atoms: O_22  and  C_12 
REMARK    6  A    between atoms: C_13  and  C_15 
REMARK       I    between atoms: N_14  and  C_13 
REMARK    7  A    between atoms: C_28  and  O_22 
ROOT
ATOM      1  C   UNL d   1      49.609  34.837  52.483  0.00  0.00     0.191 A 
ATOM      2  C   UNL d   1      49.057  34.930  51.866  0.00  0.00     0.196 A 
ATOM      3  N   UNL d   1      50.206  34.331  52.207  0.00  0.00    -0.193 N 
ATOM      4  N   UNL d   1      50.020  34.121  51.438  0.00  0.00    -0.058 NA
ATOM      5  N   UNL d   1      49.326  34.480  51.223  0.00  0.00    -0.122 NA
ATOM      6  N   UNL d   1      49.490  35.219  53.194  0.00  0.00    -0.204 NA
ATOM      7  C   UNL d   1      48.402  35.403  51.978  0.00  0.00     0.289 A 
ATOM      8  N   UNL d   1      48.277  35.791  52.694  0.00  0.00    -0.249 N 
ATOM      9  C   UNL d   1      48.829  35.698  53.311  0.00  0.00     0.187 A 
ATOM     10  O   UNL d   1      47.850  35.497  51.361  0.00  0.00    -0.265 OA
ENDROOT
BRANCH   8  11
ATOM     11  C   UNL d   1      47.612  36.275  52.816  0.00  0.00     0.147 C 
BRANCH  11  12
ATOM     12  C   UNL d   1      47.037  36.067  53.379  0.00  0.00     0.297 C 
ATOM     13  N   UNL d   1      46.250  36.008  53.149  0.00  0.00    -0.207 NA
ATOM     14  O   UNL d   1      47.259  35.921  54.160  0.00  0.00    -0.264 OA
BRANCH  13  15
ATOM     15  C   UNL d   1      45.673  35.801  53.704  0.00  0.00     0.090 A 
ATOM     16  C   UNL d   1      44.892  35.762  53.476  0.00  0.00     0.081 A 
ATOM     17  C   UNL d   1      44.314  35.555  54.031  0.00  0.00     0.007 A 
ATOM     18  C   UNL d   1      44.531  35.390  54.809  0.00  0.00     0.000 A 
ATOM     19  C   UNL d   1      45.311  35.430  55.037  0.00  0.00     0.002 A 
ATOM     20  C   UNL d   1      45.881  35.635  54.484  0.00  0.00     0.019 A 
BRANCH  16  21
ATOM     21  C   UNL d   1      44.675  35.927  52.697  0.00  0.00     0.302 C 
ATOM     22  O   UNL d   1      44.536  36.709  52.465  0.00  0.00    -0.259 OA
BRANCH  21  23
ATOM     23  O   UNL d   1      44.596  35.310  52.152  0.00  0.00    -0.271 OA
BRANCH  23  24
ATOM     24  C   UNL d   1      44.314  35.461  51.388  0.00  0.00     0.126 C 
ATOM     25  C   UNL d   1      44.316  34.865  50.825  0.00  0.00     0.029 C 
ENDBRANCH  23  24
ENDBRANCH  21  23
ENDBRANCH  16  21
ENDBRANCH  13  15
ENDBRANCH  11  12
ENDBRANCH   8  11
BRANCH   3  26
ATOM     26  C   UNL d   1      50.866  34.067  52.591  0.00  0.00     0.086 A 
ATOM     27  C   UNL d   1      51.500  34.593  52.748  0.00  0.00     0.019 A 
ATOM     28  C   UNL d   1      52.160  34.322  53.134  0.00  0.00     0.002 A 
ATOM     29  C   UNL d   1      52.213  33.517  53.377  0.00  0.00     0.000 A 
ATOM     30  C   UNL d   1      51.594  33.015  53.220  0.00  0.00     0.002 A 
ATOM     31  C   UNL d   1      52.901  33.230  53.781  0.00  0.00     0.000 C 
ATOM     32  C   UNL d   1      50.919  33.278  52.830  0.00  0.00     0.019 A 
ENDBRANCH   3  26
TORSDOF 7
ENDMDL
