MODEL 1
REMARK VINA RESULT:      -5.6      0.000      0.000
REMARK  1 active torsions:
REMARK  status: ('A' for Active; 'I' for Inactive)
REMARK    1  A    between atoms: C_6  and  C_1 
ROOT
ATOM      1  C   UNL d   1      57.385   0.025  31.386  0.00  0.00     0.162 A 
ATOM      2  N   UNL d   1      58.016   0.504  31.341  0.00  0.00    -0.225 NA
ATOM      3  N   UNL d   1      57.394  -0.466  30.717  0.00  0.00    -0.225 NA
ATOM      4  C   UNL d   1      58.441   0.342  30.660  0.00  0.00     0.101 A 
ATOM      5  C   UNL d   1      58.049  -0.269  30.267  0.00  0.00     0.101 A 
ATOM      6  C   UNL d   1      59.109   0.669  30.372  0.00  0.00     0.021 A 
ATOM      7  C   UNL d   1      58.331  -0.544  29.592  0.00  0.00     0.021 A 
ATOM      8  C   UNL d   1      59.406   0.373  29.650  0.00  0.00     0.002 A 
ATOM      9  C   UNL d   1      59.014  -0.239  29.257  0.00  0.00     0.002 A 
ENDROOT
BRANCH   1  10
ATOM     10  C   UNL d   1      56.826  -0.033  31.916  0.00  0.00     0.036 A 
ATOM     11  C   UNL d   1      56.611  -0.777  32.200  0.00  0.00     0.005 A 
ATOM     12  C   UNL d   1      56.003  -0.836  32.777  0.00  0.00     0.021 A 
ATOM     13  C   UNL d   1      55.636  -0.120  33.042  0.00  0.00     0.103 A 
ATOM     14  C   UNL d   1      55.853   0.593  32.759  0.00  0.00     0.021 A 
ATOM     15  N   UNL d   1      55.025  -0.122  33.615  0.00  0.00    -0.148 N 
ATOM     16  C   UNL d   1      56.461   0.652  32.183  0.00  0.00     0.005 A 
ENDBRANCH   1  10
TORSDOF 1
ENDMDL
MODEL 2
REMARK VINA RESULT:      -5.6      0.943      3.721
REMARK  1 active torsions:
REMARK  status: ('A' for Active; 'I' for Inactive)
REMARK    1  A    between atoms: C_6  and  C_1 
ROOT
ATOM      1  C   UNL d   1      57.288  -0.135  31.175  0.00  0.00     0.162 A 
ATOM      2  N   UNL d   1      57.013   0.425  31.666  0.00  0.00    -0.225 NA
ATOM      3  N   UNL d   1      56.987  -0.864  31.433  0.00  0.00    -0.225 NA
ATOM      4  C   UNL d   1      56.538   0.085  32.240  0.00  0.00     0.101 A 
ATOM      5  C   UNL d   1      56.522  -0.728  32.093  0.00  0.00     0.101 A 
ATOM      6  C   UNL d   1      56.140   0.411  32.849  0.00  0.00     0.021 A 
ATOM      7  C   UNL d   1      56.108  -1.201  32.557  0.00  0.00     0.021 A 
ATOM      8  C   UNL d   1      55.699  -0.098  33.342  0.00  0.00     0.002 A 
ATOM      9  C   UNL d   1      55.683  -0.911  33.195  0.00  0.00     0.002 A 
ENDROOT
BRANCH   1  10
ATOM     10  C   UNL d   1      57.749  -0.089  30.558  0.00  0.00     0.036 A 
ATOM     11  C   UNL d   1      57.856   0.637  30.182  0.00  0.00     0.005 A 
ATOM     12  C   UNL d   1      58.359   0.682  29.511  0.00  0.00     0.021 A 
ATOM     13  C   UNL d   1      58.737  -0.030  29.249  0.00  0.00     0.103 A 
ATOM     14  C   UNL d   1      58.625  -0.726  29.620  0.00  0.00     0.021 A 
ATOM     15  N   UNL d   1      59.248  -0.040  28.585  0.00  0.00    -0.148 N 
ATOM     16  C   UNL d   1      58.122  -0.771  30.292  0.00  0.00     0.005 A 
ENDBRANCH   1  10
TORSDOF 1
ENDMDL
MODEL 3
REMARK VINA RESULT:      -5.1      0.982      1.544
REMARK  1 active torsions:
REMARK  status: ('A' for Active; 'I' for Inactive)
REMARK    1  A    between atoms: C_6  and  C_1 
ROOT
ATOM      1  C   UNL d   1      56.723   0.060  32.289  0.00  0.00     0.162 A 
ATOM      2  N   UNL d   1      56.953  -0.620  31.950  0.00  0.00    -0.225 NA
ATOM      3  N   UNL d   1      56.991   0.682  31.811  0.00  0.00    -0.225 NA
ATOM      4  C   UNL d   1      57.366  -0.462  31.260  0.00  0.00     0.101 A 
ATOM      5  C   UNL d   1      57.390   0.359  31.173  0.00  0.00     0.101 A 
ATOM      6  C   UNL d   1      57.705  -0.953  30.731  0.00  0.00     0.021 A 
ATOM      7  C   UNL d   1      57.752   0.676  30.557  0.00  0.00     0.021 A 
ATOM      8  C   UNL d   1      58.090  -0.610  30.075  0.00  0.00     0.002 A 
ATOM      9  C   UNL d   1      58.114   0.211  29.988  0.00  0.00     0.002 A 
ENDROOT
BRANCH   1  10
ATOM     10  C   UNL d   1      56.326   0.197  32.936  0.00  0.00     0.036 A 
ATOM     11  C   UNL d   1      55.522   0.012  32.967  0.00  0.00     0.005 A 
ATOM     12  C   UNL d   1      55.094   0.163  33.674  0.00  0.00     0.021 A 
ATOM     13  C   UNL d   1      55.512   0.501  34.329  0.00  0.00     0.103 A 
ATOM     14  C   UNL d   1      56.289   0.675  34.286  0.00  0.00     0.021 A 
ATOM     15  N   UNL d   1      55.132   0.671  35.056  0.00  0.00    -0.148 N 
ATOM     16  C   UNL d   1      56.717   0.524  33.580  0.00  0.00     0.005 A 
ENDBRANCH   1  10
TORSDOF 1
ENDMDL
MODEL 4
REMARK VINA RESULT:      -5.1      1.231      3.988
REMARK  1 active torsions:
REMARK  status: ('A' for Active; 'I' for Inactive)
REMARK    1  A    between atoms: C_6  and  C_1 
ROOT
ATOM      1  C   UNL d   1      56.541   0.193  32.646  0.00  0.00     0.162 A 
ATOM      2  N   UNL d   1      56.785   0.274  33.397  0.00  0.00    -0.225 NA
ATOM      3  N   UNL d   1      55.717   0.287  32.637  0.00  0.00    -0.225 NA
ATOM      4  C   UNL d   1      56.143   0.419  33.884  0.00  0.00     0.101 A 
ATOM      5  C   UNL d   1      55.470   0.427  33.405  0.00  0.00     0.101 A 
ATOM      6  C   UNL d   1      56.101   0.538  34.672  0.00  0.00     0.021 A 
ATOM      7  C   UNL d   1      54.766   0.555  33.721  0.00  0.00     0.021 A 
ATOM      8  C   UNL d   1      55.348   0.674  35.004  0.00  0.00     0.002 A 
ATOM      9  C   UNL d   1      54.675   0.682  34.525  0.00  0.00     0.002 A 
ENDROOT
BRANCH   1  10
ATOM     10  C   UNL d   1      56.934   0.053  31.996  0.00  0.00     0.036 A 
ATOM     11  C   UNL d   1      57.273   0.681  31.582  0.00  0.00     0.005 A 
ATOM     12  C   UNL d   1      57.699   0.524  30.875  0.00  0.00     0.021 A 
ATOM     13  C   UNL d   1      57.760  -0.281  30.618  0.00  0.00     0.103 A 
ATOM     14  C   UNL d   1      57.428  -0.879  31.027  0.00  0.00     0.021 A 
ATOM     15  N   UNL d   1      58.174  -0.492  29.920  0.00  0.00    -0.148 N 
ATOM     16  C   UNL d   1      57.002  -0.722  31.734  0.00  0.00     0.005 A 
ENDBRANCH   1  10
TORSDOF 1
ENDMDL
MODEL 5
REMARK VINA RESULT:      -3.0      2.662      4.690
REMARK  1 active torsions:
REMARK  status: ('A' for Active; 'I' for Inactive)
REMARK    1  A    between atoms: C_6  and  C_1 
ROOT
ATOM      1  C   UNL d   1      59.207  -1.757  28.948  0.00  0.00     0.162 A 
ATOM      2  N   UNL d   1      59.098  -1.143  28.456  0.00  0.00    -0.225 NA
ATOM      3  N   UNL d   1      58.883  -1.550  29.683  0.00  0.00    -0.225 NA
ATOM      4  C   UNL d   1      58.711  -0.537  28.848  0.00  0.00     0.101 A 
ATOM      5  C   UNL d   1      58.576  -0.793  29.622  0.00  0.00     0.101 A 
ATOM      6  C   UNL d   1      58.480   0.184  28.596  0.00  0.00     0.021 A 
ATOM      7  C   UNL d   1      58.212  -0.325  30.131  0.00  0.00     0.021 A 
ATOM      8  C   UNL d   1      58.092   0.680  29.144  0.00  0.00     0.002 A 
ATOM      9  C   UNL d   1      57.957   0.423  29.917  0.00  0.00     0.002 A 
ENDROOT
BRANCH   1  10
ATOM     10  C   UNL d   1      59.539  -2.445  28.837  0.00  0.00     0.036 A 
ATOM     11  C   UNL d   1      59.083  -3.079  28.574  0.00  0.00     0.005 A 
ATOM     12  C   UNL d   1      59.449  -3.826  28.455  0.00  0.00     0.021 A 
ATOM     13  C   UNL d   1      60.278  -3.892  28.614  0.00  0.00     0.103 A 
ATOM     14  C   UNL d   1      60.708  -3.271  28.868  0.00  0.00     0.021 A 
ATOM     15  N   UNL d   1      60.692  -4.614  28.512  0.00  0.00    -0.148 N 
ATOM     16  C   UNL d   1      60.342  -2.525  28.987  0.00  0.00     0.005 A 
ENDBRANCH   1  10
TORSDOF 1
ENDMDL
MODEL 6
REMARK VINA RESULT:      -2.7      1.834      2.668
REMARK  1 active torsions:
REMARK  status: ('A' for Active; 'I' for Inactive)
REMARK    1  A    between atoms: C_6  and  C_1 
ROOT
ATOM      1  C   UNL d   1      58.430  -1.349  29.960  0.00  0.00     0.162 A 
ATOM      2  N   UNL d   1      59.162  -1.283  29.662  0.00  0.00    -0.225 NA
ATOM      3  N   UNL d   1      58.128  -2.085  29.725  0.00  0.00    -0.225 NA
ATOM      4  C   UNL d   1      59.352  -1.956  29.236  0.00  0.00     0.101 A 
ATOM      5  C   UNL d   1      58.700  -2.462  29.276  0.00  0.00     0.101 A 
ATOM      6  C   UNL d   1      60.014  -2.152  28.837  0.00  0.00     0.021 A 
ATOM      7  C   UNL d   1      58.721  -3.156  28.916  0.00  0.00     0.021 A 
ATOM      8  C   UNL d   1      60.032  -2.894  28.455  0.00  0.00     0.002 A 
ATOM      9  C   UNL d   1      59.380  -3.399  28.495  0.00  0.00     0.002 A 
ENDROOT
BRANCH   1  10
ATOM     10  C   UNL d   1      58.011  -0.867  30.394  0.00  0.00     0.036 A 
ATOM     11  C   UNL d   1      58.150  -0.055  30.350  0.00  0.00     0.005 A 
ATOM     12  C   UNL d   1      57.692   0.466  30.823  0.00  0.00     0.021 A 
ATOM     13  C   UNL d   1      57.101   0.129  31.329  0.00  0.00     0.103 A 
ATOM     14  C   UNL d   1      56.976  -0.658  31.362  0.00  0.00     0.021 A 
ATOM     15  N   UNL d   1      56.617   0.604  31.821  0.00  0.00    -0.148 N 
ATOM     16  C   UNL d   1      57.434  -1.179  30.889  0.00  0.00     0.005 A 
ENDBRANCH   1  10
TORSDOF 1
ENDMDL
