MODEL 1
REMARK VINA RESULT:     -10.4      0.000      0.000
REMARK  3 active torsions:
REMARK  status: ('A' for Active; 'I' for Inactive)
REMARK    1  A    between atoms: N_7  and  C_2 
REMARK    2  A    between atoms: C_10  and  N_7 
REMARK    3  A    between atoms: C_12  and  C_10 
ROOT
ATOM      1  C   UNL d   1      54.035  33.280  54.803  0.00  0.00     0.184 A 
ATOM      2  C   UNL d   1      53.395  33.109  54.353  0.00  0.00     0.108 A 
ATOM      3  C   UNL d   1      54.259  34.084  54.931  0.00  0.00     0.321 A 
ATOM      4  O   UNL d   1      53.833  34.682  54.601  0.00  0.00    -0.272 OA
ATOM      5  C   UNL d   1      52.953  33.719  54.011  0.00  0.00     0.042 A 
ATOM      6  C   UNL d   1      53.174  34.512  54.136  0.00  0.00     0.105 A 
ATOM      7  O   UNL d   1      54.931  34.270  55.404  0.00  0.00    -0.257 OA
ATOM      8  N   UNL d   1      54.478  32.642  55.147  0.00  0.00    -0.141 N 
ATOM      9  C   UNL d   1      52.302  33.539  53.552  0.00  0.00     0.004 A 
ATOM     10  C   UNL d   1      52.739  35.113  53.801  0.00  0.00     0.025 A 
ATOM     11  C   UNL d   1      51.857  34.137  53.209  0.00  0.00     0.000 A 
ATOM     12  C   UNL d   1      52.081  34.942  53.337  0.00  0.00     0.002 A 
ENDROOT
BRANCH   2  13
ATOM     13  N   UNL d   1      53.177  32.322  54.228  0.00  0.00    -0.242 NA
BRANCH  13  14
ATOM     14  C   UNL d   1      53.671  31.851  53.787  0.00  0.00     0.099 C 
BRANCH  14  15
ATOM     15  C   UNL d   1      53.415  31.068  53.599  0.00  0.00     0.019 A 
ATOM     16  C   UNL d   1      53.071  30.929  52.882  0.00  0.00     0.002 A 
ATOM     17  C   UNL d   1      52.819  30.164  52.698  0.00  0.00     0.000 A 
ATOM     18  C   UNL d   1      52.918  29.557  53.236  0.00  0.00     0.000 A 
ATOM     19  C   UNL d   1      53.273  29.709  53.970  0.00  0.00     0.000 A 
ATOM     20  C   UNL d   1      53.523  30.476  54.151  0.00  0.00     0.002 A 
ENDBRANCH  14  15
ENDBRANCH  13  14
ENDBRANCH   2  13
TORSDOF 3
ENDMDL
MODEL 2
REMARK VINA RESULT:     -10.2      1.304      3.458
REMARK  3 active torsions:
REMARK  status: ('A' for Active; 'I' for Inactive)
REMARK    1  A    between atoms: N_7  and  C_2 
REMARK    2  A    between atoms: C_10  and  N_7 
REMARK    3  A    between atoms: C_12  and  C_10 
ROOT
ATOM      1  C   UNL d   1      53.643  33.085  53.815  0.00  0.00     0.184 A 
ATOM      2  C   UNL d   1      53.126  32.669  53.367  0.00  0.00     0.108 A 
ATOM      3  C   UNL d   1      54.218  32.680  54.283  0.00  0.00     0.321 A 
ATOM      4  O   UNL d   1      54.250  31.876  54.281  0.00  0.00    -0.272 OA
ATOM      5  C   UNL d   1      53.155  31.842  53.360  0.00  0.00     0.042 A 
ATOM      6  C   UNL d   1      53.721  31.443  53.820  0.00  0.00     0.105 A 
ATOM      7  O   UNL d   1      54.764  33.112  54.757  0.00  0.00    -0.257 OA
ATOM      8  N   UNL d   1      53.600  33.933  53.812  0.00  0.00    -0.141 N 
ATOM      9  C   UNL d   1      52.625  31.422  52.900  0.00  0.00     0.004 A 
ATOM     10  C   UNL d   1      53.750  30.629  53.814  0.00  0.00     0.025 A 
ATOM     11  C   UNL d   1      52.646  30.603  52.887  0.00  0.00     0.000 A 
ATOM     12  C   UNL d   1      53.221  30.197  53.354  0.00  0.00     0.002 A 
ENDROOT
BRANCH   2  13
ATOM     13  N   UNL d   1      52.564  33.066  52.910  0.00  0.00    -0.242 NA
BRANCH  13  14
ATOM     14  C   UNL d   1      52.062  33.585  53.284  0.00  0.00     0.099 C 
BRANCH  14  15
ATOM     15  C   UNL d   1      51.396  33.877  52.853  0.00  0.00     0.019 A 
ATOM     16  C   UNL d   1      51.496  34.111  52.087  0.00  0.00     0.002 A 
ATOM     17  C   UNL d   1      50.845  34.397  51.666  0.00  0.00     0.000 A 
ATOM     18  C   UNL d   1      50.111  34.441  52.021  0.00  0.00     0.000 A 
ATOM     19  C   UNL d   1      50.018  34.198  52.809  0.00  0.00     0.000 A 
ATOM     20  C   UNL d   1      50.671  33.913  53.228  0.00  0.00     0.002 A 
ENDBRANCH  14  15
ENDBRANCH  13  14
ENDBRANCH   2  13
TORSDOF 3
ENDMDL
MODEL 3
REMARK VINA RESULT:     -10.0      1.583      3.383
REMARK  3 active torsions:
REMARK  status: ('A' for Active; 'I' for Inactive)
REMARK    1  A    between atoms: N_7  and  C_2 
REMARK    2  A    between atoms: C_10  and  N_7 
REMARK    3  A    between atoms: C_12  and  C_10 
ROOT
ATOM      1  C   UNL d   1      53.143  31.956  53.343  0.00  0.00     0.184 A 
ATOM      2  C   UNL d   1      53.077  32.739  53.498  0.00  0.00     0.108 A 
ATOM      3  C   UNL d   1      53.696  31.485  53.775  0.00  0.00     0.321 A 
ATOM      4  O   UNL d   1      54.160  31.819  54.341  0.00  0.00    -0.272 OA
ATOM      5  C   UNL d   1      53.551  33.088  54.079  0.00  0.00     0.042 A 
ATOM      6  C   UNL d   1      54.096  32.625  54.504  0.00  0.00     0.105 A 
ATOM      7  O   UNL d   1      53.770  30.661  53.617  0.00  0.00    -0.257 OA
ATOM      8  N   UNL d   1      52.650  31.612  52.744  0.00  0.00    -0.141 N 
ATOM      9  C   UNL d   1      53.480  33.887  54.233  0.00  0.00     0.004 A 
ATOM     10  C   UNL d   1      54.563  32.968  55.076  0.00  0.00     0.025 A 
ATOM     11  C   UNL d   1      53.945  34.243  54.807  0.00  0.00     0.000 A 
ATOM     12  C   UNL d   1      54.499  33.773  55.239  0.00  0.00     0.002 A 
ENDROOT
BRANCH   2  13
ATOM     13  N   UNL d   1      52.536  33.199  53.076  0.00  0.00    -0.242 NA
BRANCH  13  14
ATOM     14  C   UNL d   1      51.743  33.081  53.214  0.00  0.00     0.099 C 
BRANCH  14  15
ATOM     15  C   UNL d   1      51.192  33.605  52.844  0.00  0.00     0.019 A 
ATOM     16  C   UNL d   1      51.340  33.866  52.095  0.00  0.00     0.002 A 
ATOM     17  C   UNL d   1      50.802  34.378  51.734  0.00  0.00     0.000 A 
ATOM     18  C   UNL d   1      50.128  34.616  52.131  0.00  0.00     0.000 A 
ATOM     19  C   UNL d   1      49.985  34.342  52.901  0.00  0.00     0.000 A 
ATOM     20  C   UNL d   1      50.525  33.830  53.260  0.00  0.00     0.002 A 
ENDBRANCH  14  15
ENDBRANCH  13  14
ENDBRANCH   2  13
TORSDOF 3
ENDMDL
MODEL 4
REMARK VINA RESULT:      -9.4      0.903      1.931
REMARK  3 active torsions:
REMARK  status: ('A' for Active; 'I' for Inactive)
REMARK    1  A    between atoms: N_7  and  C_2 
REMARK    2  A    between atoms: C_10  and  N_7 
REMARK    3  A    between atoms: C_12  and  C_10 
ROOT
ATOM      1  C   UNL d   1      52.521  33.709  53.596  0.00  0.00     0.184 A 
ATOM      2  C   UNL d   1      52.994  33.205  54.001  0.00  0.00     0.108 A 
ATOM      3  C   UNL d   1      52.653  34.542  53.643  0.00  0.00     0.321 A 
ATOM      4  O   UNL d   1      53.252  34.834  54.095  0.00  0.00    -0.272 OA
ATOM      5  C   UNL d   1      53.611  33.500  54.467  0.00  0.00     0.042 A 
ATOM      6  C   UNL d   1      53.741  34.320  54.514  0.00  0.00     0.105 A 
ATOM      7  O   UNL d   1      52.159  35.077  53.219  0.00  0.00    -0.257 OA
ATOM      8  N   UNL d   1      51.892  33.392  53.122  0.00  0.00    -0.141 N 
ATOM      9  C   UNL d   1      54.090  32.981  54.878  0.00  0.00     0.004 A 
ATOM     10  C   UNL d   1      54.348  34.610  54.972  0.00  0.00     0.025 A 
ATOM     11  C   UNL d   1      54.705  33.263  55.343  0.00  0.00     0.000 A 
ATOM     12  C   UNL d   1      54.837  34.096  55.391  0.00  0.00     0.002 A 
ENDROOT
BRANCH   2  13
ATOM     13  N   UNL d   1      52.865  32.391  53.954  0.00  0.00    -0.242 NA
BRANCH  13  14
ATOM     14  C   UNL d   1      53.044  32.013  53.256  0.00  0.00     0.099 C 
BRANCH  14  15
ATOM     15  C   UNL d   1      53.014  31.169  53.241  0.00  0.00     0.019 A 
ATOM     16  C   UNL d   1      52.296  30.801  53.221  0.00  0.00     0.002 A 
ATOM     17  C   UNL d   1      52.266  29.976  53.206  0.00  0.00     0.000 A 
ATOM     18  C   UNL d   1      52.956  29.538  53.210  0.00  0.00     0.000 A 
ATOM     19  C   UNL d   1      53.690  29.925  53.230  0.00  0.00     0.000 A 
ATOM     20  C   UNL d   1      53.717  30.751  53.246  0.00  0.00     0.002 A 
ENDBRANCH  14  15
ENDBRANCH  13  14
ENDBRANCH   2  13
TORSDOF 3
ENDMDL
