MODEL 1
REMARK VINA RESULT:      -5.0      0.000      0.000
REMARK  2 active torsions:
REMARK  status: ('A' for Active; 'I' for Inactive)
REMARK    1  A    between atoms: N_7  and  C_1 
REMARK       I    between atoms: C_8  and  N_7 
REMARK    2  A    between atoms: C_10  and  C_8 
ROOT
ATOM      1  C   UNL d   1      58.655  -0.578  29.499  0.00  0.00     0.159 A 
ATOM      2  N   UNL d   1      58.962  -1.948  29.178  0.00  0.00    -0.257 N 
ATOM      3  C   UNL d   1      59.772  -1.771  29.227  0.00  0.00     0.150 A 
ATOM      4  C   UNL d   1      58.411  -1.342  29.317  0.00  0.00     0.285 A 
ATOM      5  N   UNL d   1      60.034  -0.999  29.411  0.00  0.00    -0.226 NA
ATOM      6  C   UNL d   1      59.474  -0.403  29.547  0.00  0.00     0.105 A 
ATOM      7  C   UNL d   1      60.332  -2.354  29.093  0.00  0.00     0.035 A 
ATOM      8  C   UNL d   1      58.714  -2.698  28.999  0.00  0.00     0.085 A 
ATOM      9  O   UNL d   1      57.601  -1.520  29.268  0.00  0.00    -0.265 OA
ATOM     10  C   UNL d   1      59.273  -3.295  28.863  0.00  0.00     0.019 A 
ATOM     11  C   UNL d   1      60.072  -3.134  28.907  0.00  0.00     0.004 A 
ATOM     12  C   UNL d   1      59.715   0.354  29.728  0.00  0.00     0.022 C 
ATOM     13  C   UNL d   1      61.133  -2.199  29.136  0.00  0.00     0.003 C 
ENDROOT
BRANCH   1  14
ATOM     14  N   UNL d   1      58.097   0.019  29.636  0.00  0.00    -0.202 NA
ATOM     15  C   UNL d   1      57.760   0.097  30.389  0.00  0.00     0.279 C 
ATOM     16  O   UNL d   1      57.463   0.662  29.876  0.00  0.00    -0.265 OA
BRANCH  15  17
ATOM     17  C   UNL d   1      57.501   0.071  31.174  0.00  0.00     0.060 A 
ATOM     18  C   UNL d   1      56.930  -0.479  31.391  0.00  0.00     0.031 A 
ATOM     19  C   UNL d   1      56.670  -0.504  32.177  0.00  0.00     0.119 A 
ATOM     20  O   UNL d   1      56.114  -0.984  32.558  0.00  0.00    -0.300 OA
ATOM     21  C   UNL d   1      56.979   0.013  32.735  0.00  0.00     0.119 A 
ATOM     22  C   UNL d   1      56.080  -0.761  33.359  0.00  0.00     0.304 A 
ATOM     23  O   UNL d   1      56.628  -0.132  33.460  0.00  0.00    -0.300 OA
ATOM     24  C   UNL d   1      57.558   0.568  32.509  0.00  0.00     0.026 A 
ATOM     25  C   UNL d   1      57.818   0.596  31.727  0.00  0.00     0.007 A 
ENDBRANCH  15  17
ENDBRANCH   1  14
TORSDOF 2
ENDMDL
