MODEL 1
REMARK VINA RESULT:      -4.4      0.000      0.000
REMARK  2 active torsions:
REMARK  status: ('A' for Active; 'I' for Inactive)
REMARK    1  A    between atoms: C_2  and  C_1 
REMARK       I    between atoms: N_3  and  C_2 
REMARK    2  A    between atoms: C_6  and  N_3 
ROOT
ATOM      1  C   UNL d   1      56.612   0.028  32.082  0.00  0.00     0.303 C 
ATOM      2  N   UNL d   1      57.158   0.653  32.046  0.00  0.00    -0.206 NA
ATOM      3  O   UNL d   1      56.644  -0.576  31.525  0.00  0.00    -0.263 OA
ENDROOT
BRANCH   2   4
ATOM      4  C   UNL d   1      57.731   0.662  31.450  0.00  0.00     0.086 A 
ATOM      5  C   UNL d   1      57.497   0.662  30.653  0.00  0.00     0.031 A 
ATOM      6  C   UNL d   1      58.076   0.672  30.071  0.00  0.00     0.059 A 
ATOM      7 CL   UNL d   1      57.838   0.672  29.280  0.00  0.00    -0.082 Cl
ATOM      8  C   UNL d   1      58.866   0.682  30.274  0.00  0.00     0.011 A 
ATOM      9  C   UNL d   1      59.104   0.682  31.054  0.00  0.00     0.002 A 
ATOM     10  C   UNL d   1      58.532   0.672  31.651  0.00  0.00     0.018 A 
ATOM     11  C   UNL d   1      58.760   0.672  32.431  0.00  0.00     0.002 C 
ENDBRANCH   2   4
BRANCH   1  12
ATOM     12  C   UNL d   1      56.040   0.018  32.678  0.00  0.00     0.176 A 
ATOM     13  C   UNL d   1      55.725  -0.659  33.035  0.00  0.00     0.110 A 
ATOM     14  N   UNL d   1      55.173  -0.419  33.599  0.00  0.00    -0.233 NA
ATOM     15  C   UNL d   1      55.928  -1.433  32.857  0.00  0.00     0.023 C 
ATOM     16  C   UNL d   1      55.147   0.415  33.591  0.00  0.00     0.259 A 
ATOM     17  O   UNL d   1      55.686   0.676  33.019  0.00  0.00    -0.296 OA
ENDBRANCH   1  12
TORSDOF 2
ENDMDL
MODEL 2
REMARK VINA RESULT:      -4.4      1.943      3.545
REMARK  2 active torsions:
REMARK  status: ('A' for Active; 'I' for Inactive)
REMARK    1  A    between atoms: C_2  and  C_1 
REMARK       I    between atoms: N_3  and  C_2 
REMARK    2  A    between atoms: C_6  and  N_3 
ROOT
ATOM      1  C   UNL d   1      57.614  -0.601  30.648  0.00  0.00     0.303 C 
ATOM      2  N   UNL d   1      57.460  -0.020  31.221  0.00  0.00    -0.206 NA
ATOM      3  O   UNL d   1      57.389  -1.381  30.784  0.00  0.00    -0.263 OA
ENDROOT
BRANCH   2   4
ATOM      4  C   UNL d   1      57.081  -0.230  31.925  0.00  0.00     0.086 A 
ATOM      5  C   UNL d   1      56.474  -0.798  31.914  0.00  0.00     0.031 A 
ATOM      6  C   UNL d   1      56.106  -0.996  32.621  0.00  0.00     0.059 A 
ATOM      7 CL   UNL d   1      55.504  -1.561  32.605  0.00  0.00    -0.082 Cl
ATOM      8  C   UNL d   1      56.333  -0.641  33.320  0.00  0.00     0.011 A 
ATOM      9  C   UNL d   1      56.927  -0.083  33.338  0.00  0.00     0.002 A 
ATOM     10  C   UNL d   1      57.307   0.127  32.635  0.00  0.00     0.018 A 
ATOM     11  C   UNL d   1      57.901   0.682  32.645  0.00  0.00     0.002 C 
ENDBRANCH   2   4
BRANCH   1  12
ATOM     12  C   UNL d   1      57.994  -0.392  29.945  0.00  0.00     0.176 A 
ATOM     13  C   UNL d   1      58.509  -0.874  29.511  0.00  0.00     0.110 A 
ATOM     14  N   UNL d   1      58.761  -0.450  28.850  0.00  0.00    -0.233 NA
ATOM     15  C   UNL d   1      58.729  -1.638  29.708  0.00  0.00     0.023 C 
ATOM     16  C   UNL d   1      58.397   0.301  28.875  0.00  0.00     0.259 A 
ATOM     17  O   UNL d   1      57.925   0.328  29.555  0.00  0.00    -0.296 OA
ENDBRANCH   1  12
TORSDOF 2
ENDMDL
MODEL 3
REMARK VINA RESULT:      -3.6      1.691      2.153
REMARK  2 active torsions:
REMARK  status: ('A' for Active; 'I' for Inactive)
REMARK    1  A    between atoms: C_2  and  C_1 
REMARK       I    between atoms: N_3  and  C_2 
REMARK    2  A    between atoms: C_6  and  N_3 
ROOT
ATOM      1  C   UNL d   1      57.400  -0.592  31.080  0.00  0.00     0.303 C 
ATOM      2  N   UNL d   1      57.936  -0.179  30.599  0.00  0.00    -0.206 NA
ATOM      3  O   UNL d   1      57.186  -1.363  30.887  0.00  0.00    -0.263 OA
ENDROOT
BRANCH   2   4
ATOM      4  C   UNL d   1      58.251  -0.546  29.928  0.00  0.00     0.086 A 
ATOM      5  C   UNL d   1      58.446  -1.353  29.952  0.00  0.00     0.031 A 
ATOM      6  C   UNL d   1      58.758  -1.705  29.279  0.00  0.00     0.059 A 
ATOM      7 CL   UNL d   1      58.951  -2.507  29.308  0.00  0.00    -0.082 Cl
ATOM      8  C   UNL d   1      58.873  -1.268  28.599  0.00  0.00     0.011 A 
ATOM      9  C   UNL d   1      58.683  -0.475  28.568  0.00  0.00     0.002 A 
ATOM     10  C   UNL d   1      58.369  -0.107  29.238  0.00  0.00     0.018 A 
ATOM     11  C   UNL d   1      58.177   0.682  29.215  0.00  0.00     0.002 C 
ENDBRANCH   2   4
BRANCH   1  12
ATOM     12  C   UNL d   1      57.086  -0.226  31.750  0.00  0.00     0.176 A 
ATOM     13  C   UNL d   1      56.559  -0.570  32.288  0.00  0.00     0.110 A 
ATOM     14  N   UNL d   1      56.387  -0.014  32.872  0.00  0.00    -0.233 NA
ATOM     15  C   UNL d   1      56.262  -1.333  32.245  0.00  0.00     0.023 C 
ATOM     16  C   UNL d   1      56.812   0.682  32.693  0.00  0.00     0.259 A 
ATOM     17  O   UNL d   1      57.240   0.542  31.999  0.00  0.00    -0.296 OA
ENDBRANCH   1  12
TORSDOF 2
ENDMDL
MODEL 4
REMARK VINA RESULT:      -3.0      3.294      4.588
REMARK  2 active torsions:
REMARK  status: ('A' for Active; 'I' for Inactive)
REMARK    1  A    between atoms: C_2  and  C_1 
REMARK       I    between atoms: N_3  and  C_2 
REMARK    2  A    between atoms: C_6  and  N_3 
ROOT
ATOM      1  C   UNL d   1      58.986  -2.033  29.310  0.00  0.00     0.303 C 
ATOM      2  N   UNL d   1      59.268  -1.254  29.371  0.00  0.00    -0.206 NA
ATOM      3  O   UNL d   1      58.194  -2.195  29.462  0.00  0.00    -0.263 OA
ENDROOT
BRANCH   2   4
ATOM      4  C   UNL d   1      58.750  -0.647  29.586  0.00  0.00     0.086 A 
ATOM      5  C   UNL d   1      58.277  -0.727  30.264  0.00  0.00     0.031 A 
ATOM      6  C   UNL d   1      57.766  -0.117  30.466  0.00  0.00     0.059 A 
ATOM      7 CL   UNL d   1      57.299  -0.201  31.141  0.00  0.00    -0.082 Cl
ATOM      8  C   UNL d   1      57.726   0.557  30.006  0.00  0.00     0.011 A 
ATOM      9  C   UNL d   1      58.186   0.643  29.339  0.00  0.00     0.002 A 
ATOM     10  C   UNL d   1      58.705   0.037  29.123  0.00  0.00     0.018 A 
ATOM     11  C   UNL d   1      59.167   0.115  28.460  0.00  0.00     0.002 C 
ENDBRANCH   2   4
BRANCH   1  12
ATOM     12  C   UNL d   1      59.504  -2.639  29.095  0.00  0.00     0.176 A 
ATOM     13  C   UNL d   1      59.294  -3.341  28.709  0.00  0.00     0.110 A 
ATOM     14  N   UNL d   1      59.978  -3.790  28.602  0.00  0.00    -0.233 NA
ATOM     15  C   UNL d   1      58.537  -3.551  28.476  0.00  0.00     0.023 C 
ATOM     16  C   UNL d   1      60.616  -3.361  28.925  0.00  0.00     0.259 A 
ATOM     17  O   UNL d   1      60.315  -2.652  29.227  0.00  0.00    -0.296 OA
ENDBRANCH   1  12
TORSDOF 2
ENDMDL
MODEL 5
REMARK VINA RESULT:      -3.0      9.601     10.393
REMARK  2 active torsions:
REMARK  status: ('A' for Active; 'I' for Inactive)
REMARK    1  A    between atoms: C_2  and  C_1 
REMARK       I    between atoms: N_3  and  C_2 
REMARK    2  A    between atoms: C_6  and  N_3 
ROOT
ATOM      1  C   UNL d   1      59.562  -9.210  34.301  0.00  0.00     0.303 C 
ATOM      2  N   UNL d   1      59.773  -9.808  33.765  0.00  0.00    -0.206 NA
ATOM      3  O   UNL d   1      59.029  -8.625  34.074  0.00  0.00    -0.263 OA
ENDROOT
BRANCH   2   4
ATOM      4  C   UNL d   1      59.446  -9.811  33.006  0.00  0.00     0.086 A 
ATOM      5  C   UNL d   1      58.620  -9.813  32.912  0.00  0.00     0.031 A 
ATOM      6  C   UNL d   1      58.308  -9.816  32.152  0.00  0.00     0.059 A 
ATOM      7 CL   UNL d   1      57.488  -9.818  32.064  0.00  0.00    -0.082 Cl
ATOM      8  C   UNL d   1      58.802  -9.818  31.503  0.00  0.00     0.011 A 
ATOM      9  C   UNL d   1      59.614  -9.816  31.587  0.00  0.00     0.002 A 
ATOM     10  C   UNL d   1      59.942  -9.813  32.345  0.00  0.00     0.018 A 
ATOM     11  C   UNL d   1      60.749  -9.811  32.438  0.00  0.00     0.002 C 
ENDBRANCH   2   4
BRANCH   1  12
ATOM     12  C   UNL d   1      59.889  -9.206  35.060  0.00  0.00     0.176 A 
ATOM     13  C   UNL d   1      59.815  -8.597  35.616  0.00  0.00     0.110 A 
ATOM     14  N   UNL d   1      60.225  -8.819  36.297  0.00  0.00    -0.233 NA
ATOM     15  C   UNL d   1      59.404  -7.896  35.507  0.00  0.00     0.023 C 
ATOM     16  C   UNL d   1      60.556  -9.573  36.159  0.00  0.00     0.259 A 
ATOM     17  O   UNL d   1      60.343  -9.804  35.393  0.00  0.00    -0.296 OA
ENDBRANCH   1  12
TORSDOF 2
ENDMDL
MODEL 6
REMARK VINA RESULT:      -2.8      3.530      4.574
REMARK  2 active torsions:
REMARK  status: ('A' for Active; 'I' for Inactive)
REMARK    1  A    between atoms: C_2  and  C_1 
REMARK       I    between atoms: N_3  and  C_2 
REMARK    2  A    between atoms: C_6  and  N_3 
ROOT
ATOM      1  C   UNL d   1      58.647  -1.352  29.220  0.00  0.00     0.303 C 
ATOM      2  N   UNL d   1      59.168  -1.608  28.626  0.00  0.00    -0.206 NA
ATOM      3  O   UNL d   1      58.384  -1.883  29.790  0.00  0.00    -0.263 OA
ENDROOT
BRANCH   2   4
ATOM      4  C   UNL d   1      59.419  -2.395  28.613  0.00  0.00     0.086 A 
ATOM      5  C   UNL d   1      58.860  -3.006  28.540  0.00  0.00     0.031 A 
ATOM      6  C   UNL d   1      59.123  -3.784  28.528  0.00  0.00     0.059 A 
ATOM      7 CL   UNL d   1      58.564  -4.386  28.456  0.00  0.00    -0.082 Cl
ATOM      8  C   UNL d   1      59.920  -3.951  28.586  0.00  0.00     0.011 A 
ATOM      9  C   UNL d   1      60.475  -3.358  28.658  0.00  0.00     0.002 A 
ATOM     10  C   UNL d   1      60.225  -2.570  28.671  0.00  0.00     0.018 A 
ATOM     11  C   UNL d   1      60.771  -1.973  28.742  0.00  0.00     0.002 C 
ENDBRANCH   2   4
BRANCH   1  12
ATOM     12  C   UNL d   1      58.396  -0.565  29.234  0.00  0.00     0.176 A 
ATOM     13  C   UNL d   1      58.108  -0.161  29.896  0.00  0.00     0.110 A 
ATOM     14  N   UNL d   1      57.922   0.609  29.666  0.00  0.00    -0.233 NA
ATOM     15  C   UNL d   1      58.024  -0.473  30.649  0.00  0.00     0.023 C 
ATOM     16  C   UNL d   1      58.097   0.681  28.853  0.00  0.00     0.259 A 
ATOM     17  O   UNL d   1      58.389  -0.049  28.594  0.00  0.00    -0.296 OA
ENDBRANCH   1  12
TORSDOF 2
ENDMDL
