MODEL 1
REMARK VINA RESULT:      -9.0      0.000      0.000
REMARK  5 active torsions:
REMARK  status: ('A' for Active; 'I' for Inactive)
REMARK    1  A    between atoms: C_10  and  N_1 
REMARK    2  A    between atoms: C_7  and  C_2 
REMARK    3  A    between atoms: C_3  and  C_11 
REMARK    4  A    between atoms: O_14  and  C_10 
REMARK    5  A    between atoms: C_11  and  O_14 
ROOT
ATOM      1  C   UNL d   1      53.463  33.646  53.540  0.00  0.00     0.305 C 
ATOM      2  O   UNL d   1      53.979  33.799  52.909  0.00  0.00    -0.259 OA
ENDROOT
BRANCH   1   3
ATOM      3  C   UNL d   1      53.116  34.269  53.949  0.00  0.00     0.108 A 
ATOM      4  C   UNL d   1      52.391  34.627  53.770  0.00  0.00     0.118 A 
ATOM      5  N   UNL d   1      52.251  35.224  54.313  0.00  0.00    -0.126 NA
ATOM      6  O   UNL d   1      52.899  35.234  54.836  0.00  0.00    -0.211 OA
ATOM      7  C   UNL d   1      53.427  34.645  54.607  0.00  0.00     0.132 A 
ATOM      8  C   UNL d   1      54.136  34.471  54.975  0.00  0.00     0.029 C 
BRANCH   4   9
ATOM      9  C   UNL d   1      51.888  34.422  53.148  0.00  0.00     0.058 A 
ATOM     10  C   UNL d   1      51.227  33.956  53.288  0.00  0.00     0.061 A 
ATOM     11 CL   UNL d   1      50.742  33.518  53.864  0.00  0.00    -0.082 Cl
ATOM     12  C   UNL d   1      50.725  33.749  52.675  0.00  0.00     0.012 A 
ATOM     13  C   UNL d   1      50.888  34.012  51.913  0.00  0.00     0.003 A 
ATOM     14  C   UNL d   1      51.560  34.488  51.763  0.00  0.00     0.030 A 
ATOM     15  C   UNL d   1      52.052  34.686  52.382  0.00  0.00     0.142 A 
ATOM     16  F   UNL d   1      52.716  35.152  52.251  0.00  0.00    -0.204 F 
ENDBRANCH   4   9
ENDBRANCH   1   3
BRANCH   1  17
ATOM     17  O   UNL d   1      53.298  32.860  53.759  0.00  0.00    -0.252 OA
BRANCH  17  18
ATOM     18  C   UNL d   1      53.785  32.246  53.486  0.00  0.00     0.216 C 
BRANCH  18  19
ATOM     19  N   UNL d   1      53.555  31.459  53.599  0.00  0.00    -0.218 N 
ATOM     20  C   UNL d   1      53.642  31.024  54.288  0.00  0.00     0.269 A 
ATOM     21  C   UNL d   1      53.340  30.266  54.159  0.00  0.00     0.061 A 
ATOM     22  O   UNL d   1      53.978  31.299  54.997  0.00  0.00    -0.267 OA
ATOM     23  C   UNL d   1      53.279  29.600  54.645  0.00  0.00     0.005 A 
ATOM     24  C   UNL d   1      53.062  30.235  53.376  0.00  0.00     0.061 A 
ATOM     25  C   UNL d   1      52.944  28.909  54.353  0.00  0.00     0.000 A 
ATOM     26  C   UNL d   1      52.666  28.878  53.570  0.00  0.00     0.000 A 
ATOM     27  C   UNL d   1      52.726  29.539  53.085  0.00  0.00     0.005 A 
ATOM     28  C   UNL d   1      53.193  30.974  53.022  0.00  0.00     0.269 A 
ATOM     29  O   UNL d   1      53.004  31.191  52.253  0.00  0.00    -0.267 OA
ENDBRANCH  18  19
ENDBRANCH  17  18
ENDBRANCH   1  17
TORSDOF 5
ENDMDL
MODEL 2
REMARK VINA RESULT:      -7.9      1.812      4.457
REMARK  5 active torsions:
REMARK  status: ('A' for Active; 'I' for Inactive)
REMARK    1  A    between atoms: C_10  and  N_1 
REMARK    2  A    between atoms: C_7  and  C_2 
REMARK    3  A    between atoms: C_3  and  C_11 
REMARK    4  A    between atoms: O_14  and  C_10 
REMARK    5  A    between atoms: C_11  and  O_14 
ROOT
ATOM      1  C   UNL d   1      53.123  32.836  52.963  0.00  0.00     0.305 C 
ATOM      2  O   UNL d   1      53.680  33.178  52.453  0.00  0.00    -0.259 OA
ENDROOT
BRANCH   1   3
ATOM      3  C   UNL d   1      53.305  32.146  53.371  0.00  0.00     0.108 A 
ATOM      4  C   UNL d   1      53.815  32.082  54.020  0.00  0.00     0.118 A 
ATOM      5  N   UNL d   1      53.841  31.299  54.258  0.00  0.00    -0.126 NA
ATOM      6  O   UNL d   1      53.339  30.873  53.748  0.00  0.00    -0.211 OA
ATOM      7  C   UNL d   1      53.013  31.398  53.206  0.00  0.00     0.132 A 
ATOM      8  C   UNL d   1      52.490  31.203  52.608  0.00  0.00     0.029 C 
BRANCH   4   9
ATOM      9  C   UNL d   1      54.231  32.701  54.373  0.00  0.00     0.058 A 
ATOM     10  C   UNL d   1      54.930  32.973  54.039  0.00  0.00     0.061 A 
ATOM     11 CL   UNL d   1      55.518  32.903  53.400  0.00  0.00    -0.082 Cl
ATOM     12  C   UNL d   1      55.347  33.587  54.385  0.00  0.00     0.012 A 
ATOM     13  C   UNL d   1      55.060  33.933  55.073  0.00  0.00     0.003 A 
ATOM     14  C   UNL d   1      54.348  33.662  55.420  0.00  0.00     0.030 A 
ATOM     15  C   UNL d   1      53.943  33.049  55.065  0.00  0.00     0.142 A 
ATOM     16  F   UNL d   1      53.242  32.771  55.393  0.00  0.00    -0.204 F 
ENDBRANCH   4   9
ENDBRANCH   1   3
BRANCH   1  17
ATOM     17  O   UNL d   1      52.378  33.194  53.061  0.00  0.00    -0.252 OA
BRANCH  17  18
ATOM     18  C   UNL d   1      52.198  33.891  52.649  0.00  0.00     0.216 C 
BRANCH  18  19
ATOM     19  N   UNL d   1      51.417  34.164  52.624  0.00  0.00    -0.218 N 
ATOM     20  C   UNL d   1      50.999  34.488  53.249  0.00  0.00     0.269 A 
ATOM     21  C   UNL d   1      50.242  34.686  52.984  0.00  0.00     0.061 A 
ATOM     22  O   UNL d   1      51.286  34.600  54.022  0.00  0.00    -0.267 OA
ATOM     23  C   UNL d   1      49.590  35.025  53.360  0.00  0.00     0.005 A 
ATOM     24  C   UNL d   1      50.195  34.479  52.179  0.00  0.00     0.061 A 
ATOM     25  C   UNL d   1      48.896  35.157  52.941  0.00  0.00     0.000 A 
ATOM     26  C   UNL d   1      48.849  34.950  52.136  0.00  0.00     0.000 A 
ATOM     27  C   UNL d   1      49.497  34.613  51.759  0.00  0.00     0.005 A 
ATOM     28  C   UNL d   1      50.923  34.154  51.950  0.00  0.00     0.269 A 
ATOM     29  O   UNL d   1      51.123  33.875  51.204  0.00  0.00    -0.267 OA
ENDBRANCH  18  19
ENDBRANCH  17  18
ENDBRANCH   1  17
TORSDOF 5
ENDMDL
MODEL 3
REMARK VINA RESULT:      -7.0      1.532      4.126
REMARK  5 active torsions:
REMARK  status: ('A' for Active; 'I' for Inactive)
REMARK    1  A    between atoms: C_10  and  N_1 
REMARK    2  A    between atoms: C_7  and  C_2 
REMARK    3  A    between atoms: C_3  and  C_11 
REMARK    4  A    between atoms: O_14  and  C_10 
REMARK    5  A    between atoms: C_11  and  O_14 
ROOT
ATOM      1  C   UNL d   1      53.428  33.369  53.589  0.00  0.00     0.305 C 
ATOM      2  O   UNL d   1      53.986  33.571  53.010  0.00  0.00    -0.259 OA
ENDROOT
BRANCH   1   3
ATOM      3  C   UNL d   1      53.662  32.964  54.265  0.00  0.00     0.108 A 
ATOM      4  C   UNL d   1      53.706  32.142  54.351  0.00  0.00     0.118 A 
ATOM      5  N   UNL d   1      53.964  31.971  55.109  0.00  0.00    -0.126 NA
ATOM      6  O   UNL d   1      54.080  32.699  55.497  0.00  0.00    -0.211 OA
ATOM      7  C   UNL d   1      53.893  33.305  54.973  0.00  0.00     0.132 A 
ATOM      8  C   UNL d   1      53.933  34.106  55.136  0.00  0.00     0.029 C 
BRANCH   4   9
ATOM      9  C   UNL d   1      53.523  31.582  53.773  0.00  0.00     0.058 A 
ATOM     10  C   UNL d   1      52.768  31.265  53.730  0.00  0.00     0.061 A 
ATOM     11 CL   UNL d   1      51.959  31.238  54.054  0.00  0.00    -0.082 Cl
ATOM     12  C   UNL d   1      52.580  30.709  53.158  0.00  0.00     0.012 A 
ATOM     13  C   UNL d   1      53.156  30.470  52.623  0.00  0.00     0.003 A 
ATOM     14  C   UNL d   1      53.929  30.789  52.660  0.00  0.00     0.030 A 
ATOM     15  C   UNL d   1      54.102  31.341  53.235  0.00  0.00     0.142 A 
ATOM     16  F   UNL d   1      54.857  31.665  53.284  0.00  0.00    -0.204 F 
ENDBRANCH   4   9
ENDBRANCH   1   3
BRANCH   1  17
ATOM     17  O   UNL d   1      52.629  33.577  53.483  0.00  0.00    -0.252 OA
BRANCH  17  18
ATOM     18  C   UNL d   1      52.430  34.208  52.982  0.00  0.00     0.216 C 
BRANCH  18  19
ATOM     19  N   UNL d   1      51.641  34.327  52.763  0.00  0.00    -0.218 N 
ATOM     20  C   UNL d   1      51.293  34.085  52.062  0.00  0.00     0.269 A 
ATOM     21  C   UNL d   1      50.500  34.315  52.070  0.00  0.00     0.061 A 
ATOM     22  O   UNL d   1      51.673  33.677  51.445  0.00  0.00    -0.267 OA
ATOM     23  C   UNL d   1      49.887  34.224  51.524  0.00  0.00     0.005 A 
ATOM     24  C   UNL d   1      50.358  34.705  52.791  0.00  0.00     0.061 A 
ATOM     25  C   UNL d   1      49.139  34.519  51.693  0.00  0.00     0.000 A 
ATOM     26  C   UNL d   1      48.997  34.909  52.414  0.00  0.00     0.000 A 
ATOM     27  C   UNL d   1      49.605  35.001  52.959  0.00  0.00     0.005 A 
ATOM     28  C   UNL d   1      51.064  34.716  53.227  0.00  0.00     0.269 A 
ATOM     29  O   UNL d   1      51.178  35.044  53.970  0.00  0.00    -0.267 OA
ENDBRANCH  18  19
ENDBRANCH  17  18
ENDBRANCH   1  17
TORSDOF 5
ENDMDL
MODEL 4
REMARK VINA RESULT:      -6.4      1.366      2.344
REMARK  5 active torsions:
REMARK  status: ('A' for Active; 'I' for Inactive)
REMARK    1  A    between atoms: C_10  and  N_1 
REMARK    2  A    between atoms: C_7  and  C_2 
REMARK    3  A    between atoms: C_3  and  C_11 
REMARK    4  A    between atoms: O_14  and  C_10 
REMARK    5  A    between atoms: C_11  and  O_14 
ROOT
ATOM      1  C   UNL d   1      52.226  33.357  52.687  0.00  0.00     0.305 C 
ATOM      2  O   UNL d   1      52.692  33.514  52.020  0.00  0.00    -0.259 OA
ENDROOT
BRANCH   1   3
ATOM      3  C   UNL d   1      51.742  33.942  53.000  0.00  0.00     0.108 A 
ATOM      4  C   UNL d   1      51.941  34.469  53.608  0.00  0.00     0.118 A 
ATOM      5  N   UNL d   1      51.302  34.961  53.750  0.00  0.00    -0.126 NA
ATOM      6  O   UNL d   1      50.698  34.734  53.222  0.00  0.00    -0.211 OA
ATOM      7  C   UNL d   1      50.974  34.108  52.765  0.00  0.00     0.132 A 
ATOM      8  C   UNL d   1      50.553  33.723  52.179  0.00  0.00     0.029 C 
BRANCH   4   9
ATOM      9  C   UNL d   1      52.662  34.499  54.007  0.00  0.00     0.058 A 
ATOM     10  C   UNL d   1      53.282  34.946  53.708  0.00  0.00     0.061 A 
ATOM     11 CL   UNL d   1      53.574  35.475  53.080  0.00  0.00    -0.082 Cl
ATOM     12  C   UNL d   1      54.001  34.978  54.100  0.00  0.00     0.012 A 
ATOM     13  C   UNL d   1      54.098  34.558  54.799  0.00  0.00     0.003 A 
ATOM     14  C   UNL d   1      53.471  34.100  55.111  0.00  0.00     0.030 A 
ATOM     15  C   UNL d   1      52.761  34.076  54.711  0.00  0.00     0.142 A 
ATOM     16  F   UNL d   1      52.135  33.631  55.004  0.00  0.00    -0.204 F 
ENDBRANCH   4   9
ENDBRANCH   1   3
BRANCH   1  17
ATOM     17  O   UNL d   1      52.250  32.603  53.040  0.00  0.00    -0.252 OA
BRANCH  17  18
ATOM     18  C   UNL d   1      52.556  31.960  52.616  0.00  0.00     0.216 C 
BRANCH  18  19
ATOM     19  N   UNL d   1      52.757  31.262  53.014  0.00  0.00    -0.218 N 
ATOM     20  C   UNL d   1      52.234  30.685  53.269  0.00  0.00     0.269 A 
ATOM     21  C   UNL d   1      52.666  30.086  53.640  0.00  0.00     0.061 A 
ATOM     22  O   UNL d   1      51.408  30.698  53.172  0.00  0.00    -0.267 OA
ATOM     23  C   UNL d   1      52.441  29.377  53.999  0.00  0.00     0.005 A 
ATOM     24  C   UNL d   1      53.469  30.300  53.611  0.00  0.00     0.061 A 
ATOM     25  C   UNL d   1      53.011  28.884  54.327  0.00  0.00     0.000 A 
ATOM     26  C   UNL d   1      53.814  29.098  54.299  0.00  0.00     0.000 A 
ATOM     27  C   UNL d   1      54.040  29.803  53.942  0.00  0.00     0.005 A 
ATOM     28  C   UNL d   1      53.532  31.031  53.224  0.00  0.00     0.269 A 
ATOM     29  O   UNL d   1      54.222  31.449  53.073  0.00  0.00    -0.267 OA
ENDBRANCH  18  19
ENDBRANCH  17  18
ENDBRANCH   1  17
TORSDOF 5
ENDMDL
