MODEL 1
REMARK VINA RESULT:      -1.4      0.000      0.000
REMARK  8 active torsions:
REMARK  status: ('A' for Active; 'I' for Inactive)
REMARK    1  A    between atoms: C_8  and  N_1 
REMARK    2  A    between atoms: C_6  and  C_2 
REMARK    3  A    between atoms: S_7  and  C_4 
REMARK    4  A    between atoms: C_12  and  S_7 
REMARK    5  A    between atoms: C_9  and  C_12 
REMARK    6  A    between atoms: O_14  and  C_9 
REMARK    7  A    between atoms: O_16  and  C_13 
REMARK    8  A    between atoms: C_21  and  O_14 
ROOT
ATOM      1  N   UNL d   1      32.057  17.698 -23.678  0.00  0.00    -0.269 N 
ATOM      2  C   UNL d   1      31.344  17.679 -24.085  0.00  0.00     0.171 A 
ATOM      3  N   UNL d   1      31.106  18.473 -24.180  0.00  0.00    -0.128 NA
ATOM      4  C   UNL d   1      32.251  18.487 -23.528  0.00  0.00     0.201 A 
ATOM      5  N   UNL d   1      31.643  18.967 -23.850  0.00  0.00    -0.121 NA
ENDROOT
BRANCH   2   6
ATOM      6  C   UNL d   1      31.003  16.990 -24.314  0.00  0.00     0.038 A 
ATOM      7  C   UNL d   1      30.281  16.755 -23.992  0.00  0.00     0.027 A 
ATOM      8  C   UNL d   1      29.918  16.075 -24.202  0.00  0.00     0.094 A 
ATOM      9  C   UNL d   1      30.283  15.572 -24.775  0.00  0.00     0.024 A 
ATOM     10  C   UNL d   1      31.005  15.807 -25.097  0.00  0.00     0.002 A 
ATOM     11  C   UNL d   1      31.356  16.515 -24.861  0.00  0.00     0.003 A 
BRANCH   8  12
ATOM     12  O   UNL d   1      29.178  15.863 -23.853  0.00  0.00    -0.328 OA
ATOM     13  C   UNL d   1      28.921  16.265 -23.178  0.00  0.00     0.181 C 
ENDBRANCH   8  12
ENDBRANCH   2   6
BRANCH   1  14
ATOM     14  C   UNL d   1      32.410  16.966 -23.514  0.00  0.00     0.067 A 
ATOM     15  C   UNL d   1      32.889  16.621 -24.085  0.00  0.00     0.018 A 
ATOM     16  C   UNL d   1      33.240  15.887 -23.916  0.00  0.00     0.002 A 
ATOM     17  C   UNL d   1      33.118  15.502 -23.196  0.00  0.00     0.000 A 
ATOM     18  C   UNL d   1      32.632  15.856 -22.624  0.00  0.00     0.002 A 
ATOM     19  C   UNL d   1      32.282  16.590 -22.793  0.00  0.00     0.018 A 
ENDBRANCH   1  14
BRANCH   4  20
ATOM     20  S   UNL d   1      32.950  18.755 -23.116  0.00  0.00    -0.042 SA
BRANCH  20  21
ATOM     21  C   UNL d   1      33.087  19.554 -22.943  0.00  0.00     0.107 C 
BRANCH  21  22
ATOM     22  C   UNL d   1      33.159  19.815 -22.169  0.00  0.00     0.307 C 
ATOM     23  O   UNL d   1      33.220  19.282 -21.527  0.00  0.00    -0.258 OA
BRANCH  22  24
ATOM     24  O   UNL d   1      33.172  20.631 -22.022  0.00  0.00    -0.271 OA
BRANCH  24  25
ATOM     25  C   UNL d   1      33.079  20.933 -21.252  0.00  0.00     0.126 C 
ATOM     26  C   UNL d   1      32.609  21.600 -21.105  0.00  0.00     0.029 C 
ENDBRANCH  24  25
ENDBRANCH  22  24
ENDBRANCH  21  22
ENDBRANCH  20  21
ENDBRANCH   4  20
TORSDOF 8
ENDMDL
MODEL 2
REMARK VINA RESULT:       0.7      2.267      6.124
REMARK  8 active torsions:
REMARK  status: ('A' for Active; 'I' for Inactive)
REMARK    1  A    between atoms: C_8  and  N_1 
REMARK    2  A    between atoms: C_6  and  C_2 
REMARK    3  A    between atoms: S_7  and  C_4 
REMARK    4  A    between atoms: C_12  and  S_7 
REMARK    5  A    between atoms: C_9  and  C_12 
REMARK    6  A    between atoms: O_14  and  C_9 
REMARK    7  A    between atoms: O_16  and  C_13 
REMARK    8  A    between atoms: C_21  and  O_14 
ROOT
ATOM      1  N   UNL d   1      32.829  21.197 -21.675  0.00  0.00    -0.269 N 
ATOM      2  C   UNL d   1      32.793  21.294 -20.860  0.00  0.00     0.171 A 
ATOM      3  N   UNL d   1      33.008  20.561 -20.526  0.00  0.00    -0.128 NA
ATOM      4  C   UNL d   1      33.062  20.421 -21.835  0.00  0.00     0.201 A 
ATOM      5  N   UNL d   1      33.172  20.029 -21.101  0.00  0.00    -0.121 NA
ENDROOT
BRANCH   2   6
ATOM      6  C   UNL d   1      32.582  21.991 -20.523  0.00  0.00     0.038 A 
ATOM      7  C   UNL d   1      32.990  22.277 -19.866  0.00  0.00     0.027 A 
ATOM      8  C   UNL d   1      32.802  22.968 -19.511  0.00  0.00     0.094 A 
ATOM      9  C   UNL d   1      32.161  23.428 -19.815  0.00  0.00     0.024 A 
ATOM     10  C   UNL d   1      31.753  23.142 -20.472  0.00  0.00     0.002 A 
ATOM     11  C   UNL d   1      31.970  22.426 -20.818  0.00  0.00     0.003 A 
BRANCH   8  12
ATOM     12  O   UNL d   1      33.240  23.233 -18.838  0.00  0.00    -0.328 OA
ATOM     13  C   UNL d   1      33.188  22.809 -18.131  0.00  0.00     0.181 C 
ENDBRANCH   8  12
ENDBRANCH   2   6
BRANCH   1  14
ATOM     14  C   UNL d   1      32.636  21.859 -22.136  0.00  0.00     0.067 A 
ATOM     15  C   UNL d   1      33.238  22.359 -22.382  0.00  0.00     0.018 A 
ATOM     16  C   UNL d   1      33.039  23.020 -22.843  0.00  0.00     0.002 A 
ATOM     17  C   UNL d   1      32.259  23.183 -23.057  0.00  0.00     0.000 A 
ATOM     18  C   UNL d   1      31.655  22.674 -22.805  0.00  0.00     0.002 A 
ATOM     19  C   UNL d   1      31.854  22.012 -22.343  0.00  0.00     0.018 A 
ENDBRANCH   1  14
BRANCH   4  20
ATOM     20  S   UNL d   1      33.168  20.086 -22.613  0.00  0.00    -0.042 SA
BRANCH  20  21
ATOM     21  C   UNL d   1      33.022  19.288 -22.780  0.00  0.00     0.107 C 
BRANCH  21  22
ATOM     22  C   UNL d   1      32.953  19.021 -23.552  0.00  0.00     0.307 C 
ATOM     23  O   UNL d   1      33.218  19.475 -24.203  0.00  0.00    -0.258 OA
BRANCH  22  24
ATOM     24  O   UNL d   1      32.609  18.279 -23.688  0.00  0.00    -0.271 OA
BRANCH  24  25
ATOM     25  C   UNL d   1      32.230  18.103 -24.409  0.00  0.00     0.126 C 
ATOM     26  C   UNL d   1      31.625  17.538 -24.450  0.00  0.00     0.029 C 
ENDBRANCH  24  25
ENDBRANCH  22  24
ENDBRANCH  21  22
ENDBRANCH  20  21
ENDBRANCH   4  20
TORSDOF 8
ENDMDL
MODEL 3
REMARK VINA RESULT:       1.6      1.646      2.906
REMARK  8 active torsions:
REMARK  status: ('A' for Active; 'I' for Inactive)
REMARK    1  A    between atoms: C_8  and  N_1 
REMARK    2  A    between atoms: C_6  and  C_2 
REMARK    3  A    between atoms: S_7  and  C_4 
REMARK    4  A    between atoms: C_12  and  S_7 
REMARK    5  A    between atoms: C_9  and  C_12 
REMARK    6  A    between atoms: O_14  and  C_9 
REMARK    7  A    between atoms: O_16  and  C_13 
REMARK    8  A    between atoms: C_21  and  O_14 
ROOT
ATOM      1  N   UNL d   1      32.677  19.625 -22.663  0.00  0.00    -0.269 N 
ATOM      2  C   UNL d   1      32.683  18.838 -22.429  0.00  0.00     0.171 A 
ATOM      3  N   UNL d   1      32.781  18.840 -21.601  0.00  0.00    -0.128 NA
ATOM      4  C   UNL d   1      32.769  20.098 -21.992  0.00  0.00     0.201 A 
ATOM      5  N   UNL d   1      32.834  19.590 -21.327  0.00  0.00    -0.121 NA
ENDROOT
BRANCH   2   6
ATOM      6  C   UNL d   1      32.604  18.237 -22.954  0.00  0.00     0.038 A 
ATOM      7  C   UNL d   1      31.867  17.889 -23.083  0.00  0.00     0.027 A 
ATOM      8  C   UNL d   1      31.760  17.289 -23.600  0.00  0.00     0.094 A 
ATOM      9  C   UNL d   1      32.422  16.995 -24.035  0.00  0.00     0.024 A 
ATOM     10  C   UNL d   1      33.159  17.342 -23.906  0.00  0.00     0.002 A 
ATOM     11  C   UNL d   1      33.240  17.960 -23.366  0.00  0.00     0.003 A 
BRANCH   8  12
ATOM     12  O   UNL d   1      30.991  16.955 -23.709  0.00  0.00    -0.328 OA
ATOM     13  C   UNL d   1      30.730  16.369 -23.189  0.00  0.00     0.181 C 
ENDBRANCH   8  12
ENDBRANCH   2   6
BRANCH   1  14
ATOM     14  C   UNL d   1      32.584  19.769 -23.475  0.00  0.00     0.067 A 
ATOM     15  C   UNL d   1      33.241  19.710 -23.964  0.00  0.00     0.018 A 
ATOM     16  C   UNL d   1      33.143  19.855 -24.776  0.00  0.00     0.002 A 
ATOM     17  C   UNL d   1      32.410  20.056 -25.097  0.00  0.00     0.000 A 
ATOM     18  C   UNL d   1      31.751  20.114 -24.597  0.00  0.00     0.002 A 
ATOM     19  C   UNL d   1      31.849  19.969 -23.785  0.00  0.00     0.018 A 
ENDBRANCH   1  14
BRANCH   4  20
ATOM     20  S   UNL d   1      32.793  20.951 -21.987  0.00  0.00    -0.042 SA
BRANCH  20  21
ATOM     21  C   UNL d   1      33.236  21.383 -21.436  0.00  0.00     0.107 C 
BRANCH  21  22
ATOM     22  C   UNL d   1      33.126  22.190 -21.340  0.00  0.00     0.307 C 
ATOM     23  O   UNL d   1      33.132  22.716 -21.990  0.00  0.00    -0.258 OA
BRANCH  22  24
ATOM     24  O   UNL d   1      33.007  22.488 -20.576  0.00  0.00    -0.271 OA
BRANCH  24  25
ATOM     25  C   UNL d   1      32.256  22.463 -20.215  0.00  0.00     0.126 C 
ATOM     26  C   UNL d   1      31.998  23.073 -19.716  0.00  0.00     0.029 C 
ENDBRANCH  24  25
ENDBRANCH  22  24
ENDBRANCH  21  22
ENDBRANCH  20  21
ENDBRANCH   4  20
TORSDOF 8
ENDMDL
