MODEL 1
REMARK VINA RESULT:      -5.2      0.000      0.000
REMARK  4 active torsions:
REMARK  status: ('A' for Active; 'I' for Inactive)
REMARK    1  A    between atoms: C_3  and  C_1 
REMARK    2  A    between atoms: C_4  and  C_1 
REMARK    3  A    between atoms: C_2  and  C_3 
REMARK    4  A    between atoms: C_6  and  C_4 
ROOT
ATOM      1  C   UNL d   1      56.638  -0.745  32.168  0.00  0.00     0.196 C 
ATOM      2  O   UNL d   1      56.631  -1.570  32.109  0.00  0.00    -0.287 OA
ENDROOT
BRANCH   1   3
ATOM      3  C   UNL d   1      57.009  -0.294  31.584  0.00  0.00     0.044 C 
BRANCH   3   4
ATOM      4  C   UNL d   1      57.588  -0.446  31.020  0.00  0.00     0.028 C 
BRANCH   4   5
ATOM      5  C   UNL d   1      57.861  -0.049  30.350  0.00  0.00     0.100 A 
ATOM      6  O   UNL d   1      57.455   0.415  29.797  0.00  0.00    -0.305 OA
ATOM      7  C   UNL d   1      57.992   0.682  29.234  0.00  0.00     0.123 A 
ATOM      8  C   UNL d   1      58.744   0.380  29.438  0.00  0.00     0.029 A 
ATOM      9  C   UNL d   1      58.669  -0.070  30.124  0.00  0.00     0.027 A 
ENDBRANCH   4   5
ENDBRANCH   3   4
ENDBRANCH   1   3
BRANCH   1  10
ATOM     10  C   UNL d   1      56.271  -0.383  32.814  0.00  0.00     0.039 A 
ATOM     11  C   UNL d   1      56.681   0.153  33.289  0.00  0.00     0.006 A 
ATOM     12  C   UNL d   1      56.302   0.507  33.931  0.00  0.00     0.042 A 
ATOM     13  C   UNL d   1      55.513   0.325  34.098  0.00  0.00     0.196 A 
ATOM     14  C   UNL d   1      55.104  -0.217  33.617  0.00  0.00     0.042 A 
ATOM     15  O   UNL d   1      55.135   0.679  34.740  0.00  0.00    -0.287 OA
ATOM     16  C   UNL d   1      55.482  -0.565  32.982  0.00  0.00     0.006 A 
ENDBRANCH   1  10
TORSDOF 4
ENDMDL
MODEL 2
REMARK VINA RESULT:      -4.7      1.191      4.547
REMARK  4 active torsions:
REMARK  status: ('A' for Active; 'I' for Inactive)
REMARK    1  A    between atoms: C_3  and  C_1 
REMARK    2  A    between atoms: C_4  and  C_1 
REMARK    3  A    between atoms: C_2  and  C_3 
REMARK    4  A    between atoms: C_6  and  C_4 
ROOT
ATOM      1  C   UNL d   1      57.817   0.105  30.239  0.00  0.00     0.196 C 
ATOM      2  O   UNL d   1      57.372   0.682  29.848  0.00  0.00    -0.287 OA
ENDROOT
BRANCH   1   3
ATOM      3  C   UNL d   1      57.551  -0.201  30.958  0.00  0.00     0.044 C 
BRANCH   3   4
ATOM      4  C   UNL d   1      56.958   0.006  31.488  0.00  0.00     0.028 C 
BRANCH   4   5
ATOM      5  C   UNL d   1      56.522  -0.404  32.057  0.00  0.00     0.100 A 
ATOM      6  O   UNL d   1      56.412  -1.217  32.168  0.00  0.00    -0.305 OA
ATOM      7  C   UNL d   1      55.925  -1.328  32.822  0.00  0.00     0.123 A 
ATOM      8  C   UNL d   1      55.728  -0.575  33.123  0.00  0.00     0.029 A 
ATOM      9  C   UNL d   1      56.093  -0.002  32.656  0.00  0.00     0.027 A 
ENDBRANCH   4   5
ENDBRANCH   3   4
ENDBRANCH   1   3
BRANCH   1  10
ATOM     10  C   UNL d   1      58.525  -0.157  29.902  0.00  0.00     0.039 A 
ATOM     11  C   UNL d   1      58.547  -0.838  29.437  0.00  0.00     0.006 A 
ATOM     12  C   UNL d   1      59.260  -1.089  29.107  0.00  0.00     0.042 A 
ATOM     13  C   UNL d   1      59.952  -0.657  29.242  0.00  0.00     0.196 A 
ATOM     14  C   UNL d   1      59.926   0.030  29.711  0.00  0.00     0.042 A 
ATOM     15  O   UNL d   1      60.666  -0.907  28.911  0.00  0.00    -0.287 OA
ATOM     16  C   UNL d   1      59.217   0.275  30.036  0.00  0.00     0.006 A 
ENDBRANCH   1  10
TORSDOF 4
ENDMDL
MODEL 3
REMARK VINA RESULT:      -4.5      0.720      4.138
REMARK  4 active torsions:
REMARK  status: ('A' for Active; 'I' for Inactive)
REMARK    1  A    between atoms: C_3  and  C_1 
REMARK    2  A    between atoms: C_4  and  C_1 
REMARK    3  A    between atoms: C_2  and  C_3 
REMARK    4  A    between atoms: C_6  and  C_4 
ROOT
ATOM      1  C   UNL d   1      56.626  -0.735  32.196  0.00  0.00     0.196 C 
ATOM      2  O   UNL d   1      56.592  -1.556  32.289  0.00  0.00    -0.287 OA
ENDROOT
BRANCH   1   3
ATOM      3  C   UNL d   1      56.177  -0.248  32.688  0.00  0.00     0.044 C 
BRANCH   3   4
ATOM      4  C   UNL d   1      55.560  -0.374  33.218  0.00  0.00     0.028 C 
BRANCH   4   5
ATOM      5  C   UNL d   1      55.260   0.040  33.866  0.00  0.00     0.100 A 
ATOM      6  O   UNL d   1      55.629   0.289  34.564  0.00  0.00    -0.305 OA
ATOM      7  C   UNL d   1      55.076   0.682  35.028  0.00  0.00     0.123 A 
ATOM      8  C   UNL d   1      54.350   0.679  34.614  0.00  0.00     0.029 A 
ATOM      9  C   UNL d   1      54.458   0.286  33.898  0.00  0.00     0.027 A 
ENDBRANCH   4   5
ENDBRANCH   3   4
ENDBRANCH   1   3
BRANCH   1  10
ATOM     10  C   UNL d   1      57.111  -0.414  31.609  0.00  0.00     0.039 A 
ATOM     11  C   UNL d   1      57.372   0.367  31.655  0.00  0.00     0.006 A 
ATOM     12  C   UNL d   1      57.856   0.674  31.062  0.00  0.00     0.042 A 
ATOM     13  C   UNL d   1      58.079   0.200  30.422  0.00  0.00     0.196 A 
ATOM     14  C   UNL d   1      57.813  -0.588  30.380  0.00  0.00     0.042 A 
ATOM     15  O   UNL d   1      58.562   0.507  29.829  0.00  0.00    -0.287 OA
ATOM     16  C   UNL d   1      57.334  -0.888  30.969  0.00  0.00     0.006 A 
ENDBRANCH   1  10
TORSDOF 4
ENDMDL
MODEL 4
REMARK VINA RESULT:      -4.4      1.466      1.951
REMARK  4 active torsions:
REMARK  status: ('A' for Active; 'I' for Inactive)
REMARK    1  A    between atoms: C_3  and  C_1 
REMARK    2  A    between atoms: C_4  and  C_1 
REMARK    3  A    between atoms: C_2  and  C_3 
REMARK    4  A    between atoms: C_6  and  C_4 
ROOT
ATOM      1  C   UNL d   1      57.331  -0.147  30.970  0.00  0.00     0.196 C 
ATOM      2  O   UNL d   1      57.240   0.560  30.552  0.00  0.00    -0.287 OA
ENDROOT
BRANCH   1   3
ATOM      3  C   UNL d   1      57.793  -0.754  30.655  0.00  0.00     0.044 C 
BRANCH   3   4
ATOM      4  C   UNL d   1      58.258  -0.835  29.981  0.00  0.00     0.028 C 
BRANCH   4   5
ATOM      5  C   UNL d   1      58.613  -1.472  29.596  0.00  0.00     0.100 A 
ATOM      6  O   UNL d   1      58.433  -2.280  29.612  0.00  0.00    -0.305 OA
ATOM      7  C   UNL d   1      58.963  -2.677  29.125  0.00  0.00     0.123 A 
ATOM      8  C   UNL d   1      59.482  -2.110  28.799  0.00  0.00     0.029 A 
ATOM      9  C   UNL d   1      59.271  -1.367  29.086  0.00  0.00     0.027 A 
ENDBRANCH   4   5
ENDBRANCH   3   4
ENDBRANCH   1   3
BRANCH   1  10
ATOM     10  C   UNL d   1      56.956  -0.236  31.702  0.00  0.00     0.039 A 
ATOM     11  C   UNL d   1      56.982   0.364  32.267  0.00  0.00     0.006 A 
ATOM     12  C   UNL d   1      56.604   0.262  32.993  0.00  0.00     0.042 A 
ATOM     13  C   UNL d   1      56.199  -0.441  33.153  0.00  0.00     0.196 A 
ATOM     14  C   UNL d   1      56.175  -1.045  32.580  0.00  0.00     0.042 A 
ATOM     15  O   UNL d   1      55.820  -0.544  33.879  0.00  0.00    -0.287 OA
ATOM     16  C   UNL d   1      56.551  -0.939  31.862  0.00  0.00     0.006 A 
ENDBRANCH   1  10
TORSDOF 4
ENDMDL
