MODEL 1
REMARK VINA RESULT:      -4.6      0.000      0.000
REMARK  1 active torsions:
REMARK  status: ('A' for Active; 'I' for Inactive)
REMARK       I    between atoms: N_4  and  C_1 
REMARK    1  A    between atoms: C_9  and  N_4 
ROOT
ATOM      1  C   UNL d   1      56.450  -0.891  32.285  0.00  0.00     0.121 A 
ATOM      2  C   UNL d   1      56.884  -0.724  31.605  0.00  0.00     0.046 A 
ATOM      3  C   UNL d   1      56.129  -0.274  32.727  0.00  0.00     0.119 A 
ATOM      4  O   UNL d   1      56.246  -1.597  32.654  0.00  0.00    -0.299 OA
ATOM      5  O   UNL d   1      55.727  -0.604  33.372  0.00  0.00    -0.300 OA
ATOM      6  C   UNL d   1      56.999   0.065  31.366  0.00  0.00     0.102 A 
ATOM      7  C   UNL d   1      55.798  -1.415  33.327  0.00  0.00     0.304 A 
ATOM      8  C   UNL d   1      56.243   0.508  32.490  0.00  0.00     0.028 A 
ATOM      9  C   UNL d   1      56.679   0.682  31.808  0.00  0.00     0.022 A 
ENDROOT
BRANCH   6  10
ATOM     10  N   UNL d   1      57.441   0.231  30.675  0.00  0.00    -0.056 NA
ATOM     11  C   UNL d   1      58.219   0.517  30.734  0.00  0.00     0.787 C 
ATOM     12  N   UNL d   1      58.651   0.679  30.053  0.00  0.00     0.064 N 
ATOM     13  N   UNL d   1      58.560   0.637  31.474  0.00  0.00     0.064 N 
ENDBRANCH   6  10
TORSDOF 1
ENDMDL
MODEL 2
REMARK VINA RESULT:      -4.0      1.442      1.952
REMARK  1 active torsions:
REMARK  status: ('A' for Active; 'I' for Inactive)
REMARK       I    between atoms: N_4  and  C_1 
REMARK    1  A    between atoms: C_9  and  N_4 
ROOT
ATOM      1  C   UNL d   1      55.425   0.661  33.421  0.00  0.00     0.121 A 
ATOM      2  C   UNL d   1      55.780   0.649  32.679  0.00  0.00     0.046 A 
ATOM      3  C   UNL d   1      55.894   0.671  34.099  0.00  0.00     0.119 A 
ATOM      4  O   UNL d   1      54.638   0.665  33.660  0.00  0.00    -0.299 OA
ATOM      5  O   UNL d   1      55.392   0.682  34.757  0.00  0.00    -0.300 OA
ATOM      6  C   UNL d   1      56.610   0.647  32.612  0.00  0.00     0.102 A 
ATOM      7  C   UNL d   1      54.622   0.678  34.489  0.00  0.00     0.304 A 
ATOM      8  C   UNL d   1      56.717   0.670  34.033  0.00  0.00     0.028 A 
ATOM      9  C   UNL d   1      57.079   0.658  33.288  0.00  0.00     0.022 A 
ENDROOT
BRANCH   6  10
ATOM     10  N   UNL d   1      56.968   0.635  31.856  0.00  0.00    -0.056 NA
ATOM     11  C   UNL d   1      57.129  -0.088  31.480  0.00  0.00     0.787 C 
ATOM     12  N   UNL d   1      57.481  -0.098  30.736  0.00  0.00     0.064 N 
ATOM     13  N   UNL d   1      56.937  -0.799  31.852  0.00  0.00     0.064 N 
ENDBRANCH   6  10
TORSDOF 1
ENDMDL
MODEL 3
REMARK VINA RESULT:      -3.8      8.532      9.354
REMARK  1 active torsions:
REMARK  status: ('A' for Active; 'I' for Inactive)
REMARK       I    between atoms: N_4  and  C_1 
REMARK    1  A    between atoms: C_9  and  N_4 
ROOT
ATOM      1  C   UNL d   1      59.990  -6.778  35.986  0.00  0.00     0.121 A 
ATOM      2  C   UNL d   1      59.501  -7.415  35.805  0.00  0.00     0.046 A 
ATOM      3  C   UNL d   1      60.781  -6.909  36.174  0.00  0.00     0.119 A 
ATOM      4  O   UNL d   1      59.853  -5.967  36.024  0.00  0.00    -0.299 OA
ATOM      5  O   UNL d   1      61.132  -6.175  36.329  0.00  0.00    -0.300 OA
ATOM      6  C   UNL d   1      59.805  -8.190  35.812  0.00  0.00     0.102 A 
ATOM      7  C   UNL d   1      60.564  -5.597  36.237  0.00  0.00     0.304 A 
ATOM      8  C   UNL d   1      61.082  -7.677  36.182  0.00  0.00     0.028 A 
ATOM      9  C   UNL d   1      60.595  -8.322  36.001  0.00  0.00     0.022 A 
ENDROOT
BRANCH   6  10
ATOM     10  N   UNL d   1      59.306  -8.836  35.628  0.00  0.00    -0.056 NA
ATOM     11  C   UNL d   1      59.331  -9.183  34.874  0.00  0.00     0.787 C 
ATOM     12  N   UNL d   1      58.839  -9.818  34.695  0.00  0.00     0.064 N 
ATOM     13  N   UNL d   1      59.849  -8.892  34.302  0.00  0.00     0.064 N 
ENDBRANCH   6  10
TORSDOF 1
ENDMDL
MODEL 4
REMARK VINA RESULT:      -3.7      0.821      1.065
REMARK  1 active torsions:
REMARK  status: ('A' for Active; 'I' for Inactive)
REMARK       I    between atoms: N_4  and  C_1 
REMARK    1  A    between atoms: C_9  and  N_4 
ROOT
ATOM      1  C   UNL d   1      57.028  -0.769  31.570  0.00  0.00     0.121 A 
ATOM      2  C   UNL d   1      57.568  -0.755  30.949  0.00  0.00     0.046 A 
ATOM      3  C   UNL d   1      56.694  -0.064  31.838  0.00  0.00     0.119 A 
ATOM      4  O   UNL d   1      56.719  -1.382  32.024  0.00  0.00    -0.299 OA
ATOM      5  O   UNL d   1      56.178  -0.247  32.460  0.00  0.00    -0.300 OA
ATOM      6  C   UNL d   1      57.777  -0.032  30.592  0.00  0.00     0.102 A 
ATOM      7  C   UNL d   1      56.192  -1.054  32.574  0.00  0.00     0.304 A 
ATOM      8  C   UNL d   1      56.901   0.652  31.485  0.00  0.00     0.028 A 
ATOM      9  C   UNL d   1      57.444   0.672  30.860  0.00  0.00     0.022 A 
ENDROOT
BRANCH   6  10
ATOM     10  N   UNL d   1      58.326  -0.022  29.962  0.00  0.00    -0.056 NA
ATOM     11  C   UNL d   1      59.074   0.324  30.063  0.00  0.00     0.787 C 
ATOM     12  N   UNL d   1      59.613   0.332  29.441  0.00  0.00     0.064 N 
ATOM     13  N   UNL d   1      59.280   0.658  30.788  0.00  0.00     0.064 N 
ENDBRANCH   6  10
TORSDOF 1
ENDMDL
MODEL 5
REMARK VINA RESULT:      -2.6      9.227      9.755
REMARK  1 active torsions:
REMARK  status: ('A' for Active; 'I' for Inactive)
REMARK       I    between atoms: N_4  and  C_1 
REMARK    1  A    between atoms: C_9  and  N_4 
ROOT
ATOM      1  C   UNL d   1      59.691  -8.200  35.082  0.00  0.00     0.121 A 
ATOM      2  C   UNL d   1      59.517  -8.454  34.318  0.00  0.00     0.046 A 
ATOM      3  C   UNL d   1      60.049  -8.717  35.614  0.00  0.00     0.119 A 
ATOM      4  O   UNL d   1      59.577  -7.482  35.467  0.00  0.00    -0.299 OA
ATOM      5  O   UNL d   1      60.155  -8.314  36.330  0.00  0.00    -0.300 OA
ATOM      6  C   UNL d   1      59.703  -9.231  34.084  0.00  0.00     0.102 A 
ATOM      7  C   UNL d   1      59.866  -7.557  36.241  0.00  0.00     0.304 A 
ATOM      8  C   UNL d   1      60.233  -9.487  35.382  0.00  0.00     0.028 A 
ATOM      9  C   UNL d   1      60.061  -9.748  34.615  0.00  0.00     0.022 A 
ENDROOT
BRANCH   6  10
ATOM     10  N   UNL d   1      59.526  -9.486  33.307  0.00  0.00    -0.056 NA
ATOM     11  C   UNL d   1      60.131  -9.563  32.743  0.00  0.00     0.787 C 
ATOM     12  N   UNL d   1      59.953  -9.814  31.979  0.00  0.00     0.064 N 
ATOM     13  N   UNL d   1      60.910  -9.387  32.946  0.00  0.00     0.064 N 
ENDBRANCH   6  10
TORSDOF 1
ENDMDL
MODEL 6
REMARK VINA RESULT:      -2.4      2.356      3.664
REMARK  1 active torsions:
REMARK  status: ('A' for Active; 'I' for Inactive)
REMARK       I    between atoms: N_4  and  C_1 
REMARK    1  A    between atoms: C_9  and  N_4 
ROOT
ATOM      1  C   UNL d   1      59.298   0.511  30.334  0.00  0.00     0.121 A 
ATOM      2  C   UNL d   1      58.728   0.594  30.922  0.00  0.00     0.046 A 
ATOM      3  C   UNL d   1      59.066   0.433  29.547  0.00  0.00     0.119 A 
ATOM      4  O   UNL d   1      60.120   0.488  30.357  0.00  0.00    -0.299 OA
ATOM      5  O   UNL d   1      59.750   0.360  29.085  0.00  0.00    -0.300 OA
ATOM      6  C   UNL d   1      57.920   0.598  30.723  0.00  0.00     0.102 A 
ATOM      7  C   UNL d   1      60.396   0.394  29.581  0.00  0.00     0.304 A 
ATOM      8  C   UNL d   1      58.265   0.436  29.350  0.00  0.00     0.028 A 
ATOM      9  C   UNL d   1      57.687   0.519  29.937  0.00  0.00     0.022 A 
ENDROOT
BRANCH   6  10
ATOM     10  N   UNL d   1      57.343   0.682  31.323  0.00  0.00    -0.056 NA
ATOM     11  C   UNL d   1      56.977   0.011  31.650  0.00  0.00     0.787 C 
ATOM     12  N   UNL d   1      56.410   0.096  32.240  0.00  0.00     0.064 N 
ATOM     13  N   UNL d   1      57.182  -0.742  31.384  0.00  0.00     0.064 N 
ENDBRANCH   6  10
TORSDOF 1
ENDMDL
MODEL 7
REMARK VINA RESULT:      -2.3      3.404      4.360
REMARK  1 active torsions:
REMARK  status: ('A' for Active; 'I' for Inactive)
REMARK       I    between atoms: N_4  and  C_1 
REMARK    1  A    between atoms: C_9  and  N_4 
ROOT
ATOM      1  C   UNL d   1      58.527  -0.895  29.494  0.00  0.00     0.121 A 
ATOM      2  C   UNL d   1      58.611  -1.671  29.234  0.00  0.00     0.046 A 
ATOM      3  C   UNL d   1      59.059  -0.319  29.241  0.00  0.00     0.119 A 
ATOM      4  O   UNL d   1      57.982  -0.533  29.993  0.00  0.00    -0.299 OA
ATOM      5  O   UNL d   1      58.840   0.401  29.587  0.00  0.00    -0.300 OA
ATOM      6  C   UNL d   1      59.232  -1.875  28.717  0.00  0.00     0.102 A 
ATOM      7  C   UNL d   1      58.180   0.271  30.049  0.00  0.00     0.304 A 
ATOM      8  C   UNL d   1      59.674  -0.520  28.729  0.00  0.00     0.028 A 
ATOM      9  C   UNL d   1      59.763  -1.299  28.464  0.00  0.00     0.022 A 
ENDROOT
BRANCH   6  10
ATOM     10  N   UNL d   1      59.314  -2.664  28.455  0.00  0.00    -0.056 NA
ATOM     11  C   UNL d   1      59.866  -3.170  28.816  0.00  0.00     0.787 C 
ATOM     12  N   UNL d   1      59.945  -3.947  28.556  0.00  0.00     0.064 N 
ATOM     13  N   UNL d   1      60.335  -2.895  29.435  0.00  0.00     0.064 N 
ENDBRANCH   6  10
TORSDOF 1
ENDMDL
MODEL 8
REMARK VINA RESULT:      -1.8      2.378      3.241
REMARK  1 active torsions:
REMARK  status: ('A' for Active; 'I' for Inactive)
REMARK       I    between atoms: N_4  and  C_1 
REMARK    1  A    between atoms: C_9  and  N_4 
ROOT
ATOM      1  C   UNL d   1      56.879   0.024  32.277  0.00  0.00     0.121 A 
ATOM      2  C   UNL d   1      56.623   0.274  33.019  0.00  0.00     0.046 A 
ATOM      3  C   UNL d   1      56.641  -0.710  31.988  0.00  0.00     0.119 A 
ATOM      4  O   UNL d   1      57.360   0.374  31.709  0.00  0.00    -0.299 OA
ATOM      5  O   UNL d   1      56.980  -0.811  31.239  0.00  0.00    -0.300 OA
ATOM      6  C   UNL d   1      56.127  -0.214  33.476  0.00  0.00     0.102 A 
ATOM      7  C   UNL d   1      57.420  -0.147  31.067  0.00  0.00     0.304 A 
ATOM      8  C   UNL d   1      56.149  -1.193  32.441  0.00  0.00     0.028 A 
ATOM      9  C   UNL d   1      55.889  -0.947  33.188  0.00  0.00     0.022 A 
ENDROOT
BRANCH   6  10
ATOM     10  N   UNL d   1      55.869   0.043  34.229  0.00  0.00    -0.056 NA
ATOM     11  C   UNL d   1      55.138   0.431  34.312  0.00  0.00     0.787 C 
ATOM     12  N   UNL d   1      54.887   0.682  35.055  0.00  0.00     0.064 N 
ATOM     13  N   UNL d   1      54.664   0.564  33.652  0.00  0.00     0.064 N 
ENDBRANCH   6  10
TORSDOF 1
ENDMDL
