MODEL 1
REMARK VINA RESULT:      -2.9      0.000      0.000
REMARK  3 active torsions:
REMARK  status: ('A' for Active; 'I' for Inactive)
REMARK    1  A    between atoms: C_6  and  N_1 
REMARK    2  A    between atoms: C_9  and  C_6 
REMARK    3  A    between atoms: C_10  and  C_9 
ROOT
ATOM      1  C   UNL d   1      32.516  21.669 -21.043  0.00  0.00     0.086 C 
ENDROOT
BRANCH   1   2
ATOM      2  N   UNL d   1      32.492  22.394 -20.696  0.00  0.00    -0.240 N 
ATOM      3  C   UNL d   1      32.837  22.595 -19.951  0.00  0.00     0.267 A 
ATOM      4  C   UNL d   1      32.678  23.408 -19.806  0.00  0.00     0.066 A 
ATOM      5  O   UNL d   1      33.241  22.091 -19.476  0.00  0.00    -0.267 OA
ATOM      6  C   UNL d   1      32.235  23.702 -20.465  0.00  0.00     0.066 A 
ATOM      7  C   UNL d   1      32.122  23.083 -21.009  0.00  0.00     0.267 A 
ATOM      8  O   UNL d   1      31.731  23.131 -21.705  0.00  0.00    -0.267 OA
ENDBRANCH   1   2
BRANCH   1   9
ATOM      9  C   UNL d   1      33.145  21.478 -21.542  0.00  0.00     0.019 C 
BRANCH   9  10
ATOM     10  C   UNL d   1      33.171  20.742 -21.901  0.00  0.00     0.002 A 
ATOM     11  C   UNL d   1      33.214  20.689 -22.717  0.00  0.00     0.000 A 
ATOM     12  C   UNL d   1      33.241  19.955 -23.080  0.00  0.00     0.000 A 
ATOM     13  C   UNL d   1      33.225  19.271 -22.618  0.00  0.00     0.000 A 
ATOM     14  C   UNL d   1      33.182  19.329 -21.796  0.00  0.00     0.000 A 
ATOM     15  C   UNL d   1      33.155  20.070 -21.446  0.00  0.00     0.000 A 
ENDBRANCH   9  10
ENDBRANCH   1   9
TORSDOF 3
ENDMDL
MODEL 2
REMARK VINA RESULT:      -2.8      0.225      1.227
REMARK  3 active torsions:
REMARK  status: ('A' for Active; 'I' for Inactive)
REMARK    1  A    between atoms: C_6  and  N_1 
REMARK    2  A    between atoms: C_9  and  C_6 
REMARK    3  A    between atoms: C_10  and  C_9 
ROOT
ATOM      1  C   UNL d   1      32.534  21.567 -21.235  0.00  0.00     0.086 C 
ENDROOT
BRANCH   1   2
ATOM      2  N   UNL d   1      32.506  22.290 -20.883  0.00  0.00    -0.240 N 
ATOM      3  C   UNL d   1      32.139  22.979 -21.205  0.00  0.00     0.267 A 
ATOM      4  C   UNL d   1      32.243  23.606 -20.653  0.00  0.00     0.066 A 
ATOM      5  O   UNL d   1      31.762  23.018 -21.912  0.00  0.00    -0.267 OA
ATOM      6  C   UNL d   1      32.674  23.295 -19.994  0.00  0.00     0.066 A 
ATOM      7  C   UNL d   1      32.835  22.491 -20.135  0.00  0.00     0.267 A 
ATOM      8  O   UNL d   1      33.231  21.996 -19.647  0.00  0.00    -0.267 OA
ENDBRANCH   1   2
BRANCH   1   9
ATOM      9  C   UNL d   1      33.211  21.343 -21.649  0.00  0.00     0.019 C 
BRANCH   9  10
ATOM     10  C   UNL d   1      33.221  20.635 -22.062  0.00  0.00     0.002 A 
ATOM     11  C   UNL d   1      33.231  20.643 -22.881  0.00  0.00     0.000 A 
ATOM     12  C   UNL d   1      33.241  19.938 -23.299  0.00  0.00     0.000 A 
ATOM     13  C   UNL d   1      33.240  19.222 -22.888  0.00  0.00     0.000 A 
ATOM     14  C   UNL d   1      33.229  19.218 -22.063  0.00  0.00     0.000 A 
ATOM     15  C   UNL d   1      33.219  19.931 -21.659  0.00  0.00     0.000 A 
ENDBRANCH   9  10
ENDBRANCH   1   9
TORSDOF 3
ENDMDL
MODEL 3
REMARK VINA RESULT:      -2.7      5.098      6.503
REMARK  3 active torsions:
REMARK  status: ('A' for Active; 'I' for Inactive)
REMARK    1  A    between atoms: C_6  and  N_1 
REMARK    2  A    between atoms: C_9  and  C_6 
REMARK    3  A    between atoms: C_10  and  C_9 
ROOT
ATOM      1  C   UNL d   1      31.265  16.526 -23.603  0.00  0.00     0.086 C 
ENDROOT
BRANCH   1   2
ATOM      2  N   UNL d   1      32.008  16.716 -23.847  0.00  0.00    -0.240 N 
ATOM      3  C   UNL d   1      32.389  17.460 -23.729  0.00  0.00     0.267 A 
ATOM      4  C   UNL d   1      33.156  17.413 -24.073  0.00  0.00     0.066 A 
ATOM      5  O   UNL d   1      32.068  18.093 -23.355  0.00  0.00    -0.267 OA
ATOM      6  C   UNL d   1      33.239  16.636 -24.401  0.00  0.00     0.066 A 
ATOM      7  C   UNL d   1      32.539  16.211 -24.263  0.00  0.00     0.267 A 
ATOM      8  O   UNL d   1      32.392  15.456 -24.485  0.00  0.00    -0.267 OA
ENDBRANCH   1   2
BRANCH   1   9
ATOM      9  C   UNL d   1      30.658  16.464 -24.159  0.00  0.00     0.019 C 
BRANCH   9  10
ATOM     10  C   UNL d   1      29.884  16.373 -23.908  0.00  0.00     0.002 A 
ATOM     11  C   UNL d   1      29.301  16.867 -24.203  0.00  0.00     0.000 A 
ATOM     12  C   UNL d   1      28.524  16.780 -23.955  0.00  0.00     0.000 A 
ATOM     13  C   UNL d   1      28.336  16.191 -23.407  0.00  0.00     0.000 A 
ATOM     14  C   UNL d   1      28.926  15.696 -23.112  0.00  0.00     0.000 A 
ATOM     15  C   UNL d   1      29.698  15.795 -23.369  0.00  0.00     0.000 A 
ENDBRANCH   9  10
ENDBRANCH   1   9
TORSDOF 3
ENDMDL
MODEL 4
REMARK VINA RESULT:      -2.7      5.223      6.312
REMARK  3 active torsions:
REMARK  status: ('A' for Active; 'I' for Inactive)
REMARK    1  A    between atoms: C_6  and  N_1 
REMARK    2  A    between atoms: C_9  and  C_6 
REMARK    3  A    between atoms: C_10  and  C_9 
ROOT
ATOM      1  C   UNL d   1      30.589  16.574 -24.186  0.00  0.00     0.086 C 
ENDROOT
BRANCH   1   2
ATOM      2  N   UNL d   1      29.856  16.375 -23.920  0.00  0.00    -0.240 N 
ATOM      3  C   UNL d   1      29.691  15.843 -23.286  0.00  0.00     0.267 A 
ATOM      4  C   UNL d   1      28.855  15.799 -23.199  0.00  0.00     0.066 A 
ATOM      5  O   UNL d   1      30.240  15.454 -22.850  0.00  0.00    -0.267 OA
ATOM      6  C   UNL d   1      28.512  16.307 -23.784  0.00  0.00     0.066 A 
ATOM      7  C   UNL d   1      29.123  16.659 -24.224  0.00  0.00     0.267 A 
ATOM      8  O   UNL d   1      29.034  17.175 -24.829  0.00  0.00    -0.267 OA
ENDBRANCH   1   2
BRANCH   1   9
ATOM      9  C   UNL d   1      30.887  17.327 -24.029  0.00  0.00     0.019 C 
BRANCH   9  10
ATOM     10  C   UNL d   1      31.672  17.497 -24.191  0.00  0.00     0.002 A 
ATOM     11  C   UNL d   1      31.982  17.322 -24.929  0.00  0.00     0.000 A 
ATOM     12  C   UNL d   1      32.767  17.489 -25.095  0.00  0.00     0.000 A 
ATOM     13  C   UNL d   1      33.241  17.835 -24.514  0.00  0.00     0.000 A 
ATOM     14  C   UNL d   1      32.925  18.009 -23.772  0.00  0.00     0.000 A 
ATOM     15  C   UNL d   1      32.138  17.836 -23.620  0.00  0.00     0.000 A 
ENDBRANCH   9  10
ENDBRANCH   1   9
TORSDOF 3
ENDMDL
MODEL 5
REMARK VINA RESULT:      -2.3      3.261      4.601
REMARK  3 active torsions:
REMARK  status: ('A' for Active; 'I' for Inactive)
REMARK    1  A    between atoms: C_6  and  N_1 
REMARK    2  A    between atoms: C_9  and  C_6 
REMARK    3  A    between atoms: C_10  and  C_9 
ROOT
ATOM      1  C   UNL d   1      32.828  18.046 -23.677  0.00  0.00     0.086 C 
ENDROOT
BRANCH   1   2
ATOM      2  N   UNL d   1      32.986  18.825 -23.549  0.00  0.00    -0.240 N 
ATOM      3  C   UNL d   1      33.085  19.190 -22.794  0.00  0.00     0.267 A 
ATOM      4  C   UNL d   1      33.241  20.007 -22.922  0.00  0.00     0.066 A 
ATOM      5  O   UNL d   1      33.035  18.814 -22.087  0.00  0.00    -0.267 OA
ATOM      6  C   UNL d   1      33.237  20.137 -23.759  0.00  0.00     0.066 A 
ATOM      7  C   UNL d   1      33.082  19.416 -24.142  0.00  0.00     0.267 A 
ATOM      8  O   UNL d   1      33.032  19.302 -24.932  0.00  0.00    -0.267 OA
ENDBRANCH   1   2
BRANCH   1   9
ATOM      9  C   UNL d   1      32.071  17.756 -23.529  0.00  0.00     0.019 C 
BRANCH   9  10
ATOM     10  C   UNL d   1      31.876  16.992 -23.752  0.00  0.00     0.002 A 
ATOM     11  C   UNL d   1      32.418  16.387 -23.646  0.00  0.00     0.000 A 
ATOM     12  C   UNL d   1      32.228  15.621 -23.868  0.00  0.00     0.000 A 
ATOM     13  C   UNL d   1      31.488  15.466 -24.198  0.00  0.00     0.000 A 
ATOM     14  C   UNL d   1      30.945  16.078 -24.303  0.00  0.00     0.000 A 
ATOM     15  C   UNL d   1      31.149  16.839 -24.077  0.00  0.00     0.000 A 
ENDBRANCH   9  10
ENDBRANCH   1   9
TORSDOF 3
ENDMDL
MODEL 6
REMARK VINA RESULT:      -2.1      1.518      2.230
REMARK  3 active torsions:
REMARK  status: ('A' for Active; 'I' for Inactive)
REMARK    1  A    between atoms: C_6  and  N_1 
REMARK    2  A    between atoms: C_9  and  C_6 
REMARK    3  A    between atoms: C_10  and  C_9 
ROOT
ATOM      1  C   UNL d   1      32.676  19.985 -22.247  0.00  0.00     0.086 C 
ENDROOT
BRANCH   1   2
ATOM      2  N   UNL d   1      32.891  20.662 -21.868  0.00  0.00    -0.240 N 
ATOM      3  C   UNL d   1      33.027  20.739 -21.038  0.00  0.00     0.267 A 
ATOM      4  C   UNL d   1      33.240  21.539 -20.887  0.00  0.00     0.066 A 
ATOM      5  O   UNL d   1      32.960  20.149 -20.499  0.00  0.00    -0.267 OA
ATOM      6  C   UNL d   1      33.235  21.948 -21.629  0.00  0.00     0.066 A 
ATOM      7  C   UNL d   1      33.022  21.413 -22.228  0.00  0.00     0.267 A 
ATOM      8  O   UNL d   1      32.952  21.578 -23.007  0.00  0.00    -0.267 OA
ENDBRANCH   1   2
BRANCH   1   9
ATOM      9  C   UNL d   1      33.241  19.558 -22.669  0.00  0.00     0.019 C 
BRANCH   9  10
ATOM     10  C   UNL d   1      33.024  18.874 -23.063  0.00  0.00     0.002 A 
ATOM     11  C   UNL d   1      32.597  18.924 -23.761  0.00  0.00     0.000 A 
ATOM     12  C   UNL d   1      32.377  18.242 -24.159  0.00  0.00     0.000 A 
ATOM     13  C   UNL d   1      32.589  17.506 -23.851  0.00  0.00     0.000 A 
ATOM     14  C   UNL d   1      33.019  17.459 -23.149  0.00  0.00     0.000 A 
ATOM     15  C   UNL d   1      33.232  18.150 -22.762  0.00  0.00     0.000 A 
ENDBRANCH   9  10
ENDBRANCH   1   9
TORSDOF 3
ENDMDL
MODEL 7
REMARK VINA RESULT:      -2.0      2.864      4.661
REMARK  3 active torsions:
REMARK  status: ('A' for Active; 'I' for Inactive)
REMARK    1  A    between atoms: C_6  and  N_1 
REMARK    2  A    between atoms: C_9  and  C_6 
REMARK    3  A    between atoms: C_10  and  C_9 
ROOT
ATOM      1  C   UNL d   1      32.505  18.832 -23.257  0.00  0.00     0.086 C 
ENDROOT
BRANCH   1   2
ATOM      2  N   UNL d   1      32.570  18.301 -23.858  0.00  0.00    -0.240 N 
ATOM      3  C   UNL d   1      32.514  17.462 -23.781  0.00  0.00     0.267 A 
ATOM      4  C   UNL d   1      32.614  17.126 -24.546  0.00  0.00     0.066 A 
ATOM      5  O   UNL d   1      32.388  17.066 -23.095  0.00  0.00    -0.267 OA
ATOM      6  C   UNL d   1      32.731  17.766 -25.090  0.00  0.00     0.066 A 
ATOM      7  C   UNL d   1      32.704  18.482 -24.670  0.00  0.00     0.267 A 
ATOM      8  O   UNL d   1      32.789  19.215 -24.979  0.00  0.00    -0.267 OA
ENDBRANCH   1   2
BRANCH   1   9
ATOM      9  C   UNL d   1      33.188  19.143 -22.915  0.00  0.00     0.019 C 
BRANCH   9  10
ATOM     10  C   UNL d   1      33.128  19.731 -22.347  0.00  0.00     0.002 A 
ATOM     11  C   UNL d   1      33.241  19.545 -21.557  0.00  0.00     0.000 A 
ATOM     12  C   UNL d   1      33.182  20.129 -20.986  0.00  0.00     0.000 A 
ATOM     13  C   UNL d   1      33.009  20.904 -21.212  0.00  0.00     0.000 A 
ATOM     14  C   UNL d   1      32.896  21.087 -22.009  0.00  0.00     0.000 A 
ATOM     15  C   UNL d   1      32.958  20.492 -22.569  0.00  0.00     0.000 A 
ENDBRANCH   9  10
ENDBRANCH   1   9
TORSDOF 3
ENDMDL
MODEL 8
REMARK VINA RESULT:      -1.9      1.913      2.530
REMARK  3 active torsions:
REMARK  status: ('A' for Active; 'I' for Inactive)
REMARK    1  A    between atoms: C_6  and  N_1 
REMARK    2  A    between atoms: C_9  and  C_6 
REMARK    3  A    between atoms: C_10  and  C_9 
ROOT
ATOM      1  C   UNL d   1      32.534  22.543 -22.007  0.00  0.00     0.086 C 
ENDROOT
BRANCH   1   2
ATOM      2  N   UNL d   1      32.579  22.396 -21.217  0.00  0.00    -0.240 N 
ATOM      3  C   UNL d   1      32.301  21.699 -20.829  0.00  0.00     0.267 A 
ATOM      4  C   UNL d   1      32.461  21.782 -20.007  0.00  0.00     0.066 A 
ATOM      5  O   UNL d   1      31.949  21.076 -21.190  0.00  0.00    -0.267 OA
ATOM      6  C   UNL d   1      32.838  22.532 -19.896  0.00  0.00     0.066 A 
ATOM      7  C   UNL d   1      32.910  22.907 -20.634  0.00  0.00     0.267 A 
ATOM      8  O   UNL d   1      33.236  23.625 -20.770  0.00  0.00    -0.267 OA
ENDBRANCH   1   2
BRANCH   1   9
ATOM      9  C   UNL d   1      33.228  22.625 -22.445  0.00  0.00     0.019 C 
BRANCH   9  10
ATOM     10  C   UNL d   1      33.188  22.729 -23.256  0.00  0.00     0.002 A 
ATOM     11  C   UNL d   1      33.241  22.080 -23.753  0.00  0.00     0.000 A 
ATOM     12  C   UNL d   1      33.201  22.180 -24.566  0.00  0.00     0.000 A 
ATOM     13  C   UNL d   1      33.107  22.938 -24.878  0.00  0.00     0.000 A 
ATOM     14  C   UNL d   1      33.053  23.590 -24.374  0.00  0.00     0.000 A 
ATOM     15  C   UNL d   1      33.095  23.474 -23.564  0.00  0.00     0.000 A 
ENDBRANCH   9  10
ENDBRANCH   1   9
TORSDOF 3
ENDMDL
