MODEL 1
REMARK VINA RESULT:      38.7      0.000      0.000
REMARK  5 active torsions:
REMARK  status: ('A' for Active; 'I' for Inactive)
REMARK    1  A    between atoms: N_7  and  C_1 
REMARK    2  A    between atoms: S_6  and  C_2 
REMARK    3  A    between atoms: C_3  and  S_6 
REMARK    4  A    between atoms: C_13  and  N_5 
REMARK    5  A    between atoms: C_18  and  C_13 
ROOT
ATOM      1  C   UNL d   1      45.100 -15.971  44.016  0.00  0.00     0.232 A 
ATOM      2  C   UNL d   1      45.829 -16.061  43.654  0.00  0.00     0.139 A 
ATOM      3  N   UNL d   1      44.774 -16.720  44.148  0.00  0.00    -0.204 NA
ATOM      4  N   UNL d   1      45.965 -16.868  43.557  0.00  0.00    -0.282 N 
ATOM      5  C   UNL d   1      45.317 -17.280  43.860  0.00  0.00     0.150 A 
ATOM      6  C   UNL d   1      45.220 -18.094  43.877  0.00  0.00     0.041 C 
ENDROOT
BRANCH   2   7
ATOM      7  S   UNL d   1      46.337 -15.455  43.427  0.00  0.00    -0.029 SA
BRANCH   7   8
ATOM      8  C   UNL d   1      46.120 -14.668  43.542  0.00  0.00     0.181 A 
ATOM      9  N   UNL d   1      45.761 -14.175  42.980  0.00  0.00    -0.221 NA
ATOM     10  C   UNL d   1      45.643 -13.441  43.324  0.00  0.00     0.100 A 
ATOM     11  C   UNL d   1      45.314 -12.736  43.045  0.00  0.00     0.021 A 
ATOM     12  C   UNL d   1      45.925 -13.468  44.099  0.00  0.00     0.084 A 
ATOM     13  C   UNL d   1      45.268 -12.081  43.522  0.00  0.00     0.002 A 
ATOM     14  C   UNL d   1      45.553 -12.116  44.297  0.00  0.00     0.002 A 
ATOM     15  C   UNL d   1      45.882 -12.805  44.593  0.00  0.00     0.019 A 
ATOM     16  N   UNL d   1      46.221 -14.231  44.232  0.00  0.00    -0.282 N 
ATOM     17  C   UNL d   1      46.558 -14.502  44.935  0.00  0.00     0.101 C 
ENDBRANCH   7   8
ENDBRANCH   2   7
BRANCH   1  18
ATOM     18  N   UNL d   1      44.384 -15.753  44.377  0.00  0.00    -0.093 N 
ATOM     19  O   UNL d   1      43.995 -16.285  44.874  0.00  0.00    -0.530 OA
ATOM     20  O   UNL d   1      44.058 -15.008  44.242  0.00  0.00    -0.530 OA
ENDBRANCH   1  18
BRANCH   4  21
ATOM     21  C   UNL d   1      46.637 -17.209  43.213  0.00  0.00     0.082 C 
BRANCH  21  22
ATOM     22  C   UNL d   1      46.582 -17.957  42.872  0.00  0.00     0.018 A 
ATOM     23  C   UNL d   1      46.645 -18.640  43.338  0.00  0.00     0.002 A 
ATOM     24  C   UNL d   1      46.590 -19.381  42.998  0.00  0.00     0.000 A 
ATOM     25  C   UNL d   1      46.469 -19.446  42.179  0.00  0.00     0.000 A 
ATOM     26  C   UNL d   1      46.405 -18.774  41.715  0.00  0.00     0.000 A 
ATOM     27  C   UNL d   1      46.462 -18.027  42.061  0.00  0.00     0.002 A 
ENDBRANCH  21  22
ENDBRANCH   4  21
TORSDOF 5
ENDMDL
