MODEL 1
REMARK VINA RESULT:      -7.6      0.000      0.000
REMARK  3 active torsions:
REMARK  status: ('A' for Active; 'I' for Inactive)
REMARK    1  A    between atoms: C_6  and  C_3 
REMARK    2  A    between atoms: C_9  and  C_6 
REMARK    3  A    between atoms: C_10  and  C_9 
ROOT
ATOM      1  N   UNL d   1      52.259  32.349  52.688  0.00  0.00    -0.225 NA
ATOM      2  N   UNL d   1      53.379  32.588  53.398  0.00  0.00    -0.225 NA
ATOM      3  C   UNL d   1      52.958  31.991  53.005  0.00  0.00     0.163 A 
ATOM      4  C   UNL d   1      52.265  33.129  52.886  0.00  0.00     0.101 A 
ATOM      5  C   UNL d   1      52.971  33.280  53.334  0.00  0.00     0.101 A 
ATOM      6  C   UNL d   1      51.773  33.781  52.763  0.00  0.00     0.021 A 
ATOM      7  C   UNL d   1      53.127  34.040  53.613  0.00  0.00     0.021 A 
ATOM      8  C   UNL d   1      51.920  34.481  53.022  0.00  0.00     0.002 A 
ATOM      9  C   UNL d   1      52.605  34.628  53.457  0.00  0.00     0.002 A 
ENDROOT
BRANCH   3  10
ATOM     10  C   UNL d   1      53.173  31.199  52.933  0.00  0.00     0.039 C 
BRANCH  10  11
ATOM     11  C   UNL d   1      53.142  30.700  53.590  0.00  0.00     0.003 C 
BRANCH  11  12
ATOM     12  C   UNL d   1      53.300  29.895  53.506  0.00  0.00     0.000 C 
ATOM     13  C   UNL d   1      53.291  29.401  54.171  0.00  0.00     0.000 C 
ENDBRANCH  11  12
ENDBRANCH  10  11
ENDBRANCH   3  10
TORSDOF 3
ENDMDL
MODEL 2
REMARK VINA RESULT:      -7.4      1.650      3.354
REMARK  3 active torsions:
REMARK  status: ('A' for Active; 'I' for Inactive)
REMARK    1  A    between atoms: C_6  and  C_3 
REMARK    2  A    between atoms: C_9  and  C_6 
REMARK    3  A    between atoms: C_10  and  C_9 
ROOT
ATOM      1  N   UNL d   1      52.967  34.467  53.980  0.00  0.00    -0.225 NA
ATOM      2  N   UNL d   1      52.907  33.284  53.337  0.00  0.00    -0.225 NA
ATOM      3  C   UNL d   1      52.585  34.048  53.351  0.00  0.00     0.163 A 
ATOM      4  C   UNL d   1      53.497  33.969  54.327  0.00  0.00     0.101 A 
ATOM      5  C   UNL d   1      53.459  33.223  53.922  0.00  0.00     0.101 A 
ATOM      6  C   UNL d   1      54.038  34.011  54.949  0.00  0.00     0.021 A 
ATOM      7  C   UNL d   1      53.944  32.600  54.158  0.00  0.00     0.021 A 
ATOM      8  C   UNL d   1      54.485  33.434  55.166  0.00  0.00     0.002 A 
ATOM      9  C   UNL d   1      54.448  32.710  54.773  0.00  0.00     0.002 A 
ENDROOT
BRANCH   3  10
ATOM     10  C   UNL d   1      52.004  34.350  52.850  0.00  0.00     0.039 C 
BRANCH  10  11
ATOM     11  C   UNL d   1      51.210  34.163  52.980  0.00  0.00     0.003 C 
BRANCH  11  12
ATOM     12  C   UNL d   1      50.638  34.383  52.427  0.00  0.00     0.000 C 
ATOM     13  C   UNL d   1      49.845  34.445  52.657  0.00  0.00     0.000 C 
ENDBRANCH  11  12
ENDBRANCH  10  11
ENDBRANCH   3  10
TORSDOF 3
ENDMDL
MODEL 3
REMARK VINA RESULT:      -7.3      0.759      3.372
REMARK  3 active torsions:
REMARK  status: ('A' for Active; 'I' for Inactive)
REMARK    1  A    between atoms: C_6  and  C_3 
REMARK    2  A    between atoms: C_9  and  C_6 
REMARK    3  A    between atoms: C_10  and  C_9 
ROOT
ATOM      1  N   UNL d   1      52.710  32.229  52.797  0.00  0.00    -0.225 NA
ATOM      2  N   UNL d   1      53.730  32.241  53.678  0.00  0.00    -0.225 NA
ATOM      3  C   UNL d   1      53.249  32.732  53.213  0.00  0.00     0.163 A 
ATOM      4  C   UNL d   1      52.865  31.467  53.007  0.00  0.00     0.101 A 
ATOM      5  C   UNL d   1      53.509  31.475  53.562  0.00  0.00     0.101 A 
ATOM      6  C   UNL d   1      52.563  30.722  52.819  0.00  0.00     0.021 A 
ATOM      7  C   UNL d   1      53.790  30.766  53.875  0.00  0.00     0.021 A 
ATOM      8  C   UNL d   1      52.825  30.069  53.110  0.00  0.00     0.002 A 
ATOM      9  C   UNL d   1      53.449  30.076  53.649  0.00  0.00     0.002 A 
ENDROOT
BRANCH   3  10
ATOM     10  C   UNL d   1      53.284  33.554  53.162  0.00  0.00     0.039 C 
BRANCH  10  11
ATOM     11  C   UNL d   1      52.900  34.020  53.726  0.00  0.00     0.003 C 
BRANCH  11  12
ATOM     12  C   UNL d   1      52.829  34.833  53.610  0.00  0.00     0.000 C 
ATOM     13  C   UNL d   1      52.905  35.350  54.253  0.00  0.00     0.000 C 
ENDBRANCH  11  12
ENDBRANCH  10  11
ENDBRANCH   3  10
TORSDOF 3
ENDMDL
MODEL 4
REMARK VINA RESULT:      -6.9      1.852      2.409
REMARK  3 active torsions:
REMARK  status: ('A' for Active; 'I' for Inactive)
REMARK    1  A    between atoms: C_6  and  C_3 
REMARK    2  A    between atoms: C_9  and  C_6 
REMARK    3  A    between atoms: C_10  and  C_9 
ROOT
ATOM      1  N   UNL d   1      52.300  33.004  53.812  0.00  0.00    -0.225 NA
ATOM      2  N   UNL d   1      52.866  33.937  53.021  0.00  0.00    -0.225 NA
ATOM      3  C   UNL d   1      53.038  33.349  53.580  0.00  0.00     0.163 A 
ATOM      4  C   UNL d   1      51.712  33.374  53.406  0.00  0.00     0.101 A 
ATOM      5  C   UNL d   1      52.068  33.963  52.907  0.00  0.00     0.101 A 
ATOM      6  C   UNL d   1      50.889  33.320  53.363  0.00  0.00     0.021 A 
ATOM      7  C   UNL d   1      51.596  34.434  52.423  0.00  0.00     0.021 A 
ATOM      8  C   UNL d   1      50.455  33.756  52.914  0.00  0.00     0.002 A 
ATOM      9  C   UNL d   1      50.801  34.327  52.430  0.00  0.00     0.002 A 
ENDROOT
BRANCH   3  10
ATOM     10  C   UNL d   1      53.783  33.135  53.860  0.00  0.00     0.039 C 
BRANCH  10  11
ATOM     11  C   UNL d   1      54.093  33.502  54.532  0.00  0.00     0.003 C 
BRANCH  11  12
ATOM     12  C   UNL d   1      54.874  33.362  54.755  0.00  0.00     0.000 C 
ATOM     13  C   UNL d   1      55.196  33.764  55.404  0.00  0.00     0.000 C 
ENDBRANCH  11  12
ENDBRANCH  10  11
ENDBRANCH   3  10
TORSDOF 3
ENDMDL
