MODEL 1
REMARK VINA RESULT:      28.4      0.000      0.000
REMARK  2 active torsions:
REMARK  status: ('A' for Active; 'I' for Inactive)
REMARK       I    between atoms: N_2  and  C_1 
REMARK    1  A    between atoms: C_5  and  C_1 
REMARK    2  A    between atoms: C_7  and  N_2 
ROOT
ATOM      1  C   UNL d   1      13.234  13.223  -3.809  0.00  0.00     0.125 A 
ATOM      2  C   UNL d   1      13.464  13.210  -3.017  0.00  0.00     0.059 A 
ATOM      3  C   UNL d   1      13.088  12.521  -4.217  0.00  0.00     0.123 A 
ATOM      4  C   UNL d   1      13.548  12.488  -2.631  0.00  0.00     0.137 A 
ATOM      5  O   UNL d   1      13.150  13.951  -4.197  0.00  0.00    -0.301 OA
ATOM      6  O   UNL d   1      12.858  12.531  -5.011  0.00  0.00    -0.301 OA
ATOM      7  C   UNL d   1      13.173  11.797  -3.826  0.00  0.00     0.029 A 
ATOM      8  C   UNL d   1      13.402  11.780  -3.036  0.00  0.00     0.034 A 
ATOM      9  C   UNL d   1      12.921  13.969  -4.988  0.00  0.00     0.149 A 
ATOM     10  C   UNL d   1      12.775  13.261  -5.394  0.00  0.00     0.149 A 
ENDROOT
BRANCH   4  11
ATOM     11  N   UNL d   1      13.779  12.466  -1.833  0.00  0.00    -0.365 NA
ATOM     12  C   UNL d   1      14.008  12.448  -1.051  0.00  0.00     0.328 C 
ATOM     13  O   UNL d   1      13.629  11.948  -0.527  0.00  0.00    -0.251 OA
BRANCH  12  14
ATOM     14  C   UNL d   1      14.616  12.930  -0.796  0.00  0.00     0.070 A 
ATOM     15  C   UNL d   1      15.399  12.700  -0.895  0.00  0.00     0.006 A 
ATOM     16  C   UNL d   1      16.010  13.190  -0.636  0.00  0.00     0.000 A 
ATOM     17  C   UNL d   1      15.843  13.916  -0.275  0.00  0.00     0.000 A 
ATOM     18  C   UNL d   1      15.062  14.149  -0.174  0.00  0.00     0.000 A 
ATOM     19  C   UNL d   1      16.454  14.406  -0.015  0.00  0.00     0.000 C 
ATOM     20  C   UNL d   1      14.447  13.655  -0.435  0.00  0.00     0.006 A 
ENDBRANCH  12  14
ENDBRANCH   4  11
TORSDOF 2
ENDMDL
