MODEL 1
REMARK VINA RESULT:      -2.6      0.000      0.000
REMARK  6 active torsions:
REMARK  status: ('A' for Active; 'I' for Inactive)
REMARK    1  A    between atoms: N_2  and  S_1 
REMARK    2  A    between atoms: C_3  and  S_1 
REMARK    3  A    between atoms: O_13  and  C_8 
REMARK    4  A    between atoms: C_14  and  O_13 
REMARK    5  A    between atoms: C_15  and  C_14 
REMARK    6  A    between atoms: C_16  and  C_15 
ROOT
ATOM      1  C   UNL d   1      32.902  18.782 -23.127  0.00  0.00     0.104 A 
ATOM      2  C   UNL d   1      33.032  18.841 -22.314  0.00  0.00     0.015 A 
ATOM      3  C   UNL d   1      32.882  19.423 -23.589  0.00  0.00     0.015 A 
ATOM      4  C   UNL d   1      33.126  20.247 -22.432  0.00  0.00     0.100 A 
ATOM      5  C   UNL d   1      33.142  19.562 -21.973  0.00  0.00     0.025 A 
ATOM      6  C   UNL d   1      32.996  20.188 -23.246  0.00  0.00     0.025 A 
ENDROOT
BRANCH   1   7
ATOM      7  S   UNL d   1      32.790  18.027 -23.466  0.00  0.00     0.271 S 
ATOM      8  O   UNL d   1      32.347  18.383 -24.066  0.00  0.00    -0.200 OA
ATOM      9  O   UNL d   1      33.240  17.677 -22.852  0.00  0.00    -0.200 OA
BRANCH   7  10
ATOM     10  N   UNL d   1      32.677  17.261 -23.808  0.00  0.00    -0.229 N 
ATOM     11  C   UNL d   1      31.966  16.923 -23.527  0.00  0.00     0.092 A 
ATOM     12  C   UNL d   1      31.651  16.187 -23.721  0.00  0.00     0.020 A 
ATOM     13  C   UNL d   1      31.958  15.635 -24.222  0.00  0.00     0.002 A 
ATOM     14  C   UNL d   1      32.632  15.626 -24.668  0.00  0.00     0.002 A 
ATOM     15  C   UNL d   1      33.196  16.231 -24.708  0.00  0.00     0.020 A 
ATOM     16  C   UNL d   1      33.225  16.949 -24.336  0.00  0.00     0.092 A 
ENDBRANCH   7  10
ENDBRANCH   1   7
BRANCH   4  17
ATOM     17  O   UNL d   1      33.239  20.979 -22.072  0.00  0.00    -0.305 OA
BRANCH  17  18
ATOM     18  C   UNL d   1      32.724  21.228 -21.501  0.00  0.00     0.123 C 
BRANCH  18  19
ATOM     19  C   UNL d   1      32.768  22.011 -21.211  0.00  0.00     0.027 C 
BRANCH  19  20
ATOM     20  C   UNL d   1      32.208  22.293 -20.675  0.00  0.00     0.002 C 
ATOM     21  C   UNL d   1      32.431  22.741 -20.007  0.00  0.00     0.000 C 
ENDBRANCH  19  20
ENDBRANCH  18  19
ENDBRANCH  17  18
ENDBRANCH   4  17
TORSDOF 6
ENDMDL
MODEL 2
REMARK VINA RESULT:      -2.6      1.606      5.340
REMARK  6 active torsions:
REMARK  status: ('A' for Active; 'I' for Inactive)
REMARK    1  A    between atoms: N_2  and  S_1 
REMARK    2  A    between atoms: C_3  and  S_1 
REMARK    3  A    between atoms: O_13  and  C_8 
REMARK    4  A    between atoms: C_14  and  O_13 
REMARK    5  A    between atoms: C_15  and  C_14 
REMARK    6  A    between atoms: C_16  and  C_15 
ROOT
ATOM      1  C   UNL d   1      33.017  20.471 -21.940  0.00  0.00     0.104 A 
ATOM      2  C   UNL d   1      32.952  20.530 -22.762  0.00  0.00     0.015 A 
ATOM      3  C   UNL d   1      33.152  19.777 -21.586  0.00  0.00     0.015 A 
ATOM      4  C   UNL d   1      33.167  19.136 -22.877  0.00  0.00     0.100 A 
ATOM      5  C   UNL d   1      33.026  19.872 -23.221  0.00  0.00     0.025 A 
ATOM      6  C   UNL d   1      33.232  19.078 -22.055  0.00  0.00     0.025 A 
ENDROOT
BRANCH   1   7
ATOM      7  S   UNL d   1      32.938  21.161 -21.477  0.00  0.00     0.271 S 
ATOM      8  O   UNL d   1      33.072  21.610 -22.157  0.00  0.00    -0.200 OA
ATOM      9  O   UNL d   1      32.804  20.695 -20.794  0.00  0.00    -0.200 OA
BRANCH   7  10
ATOM     10  N   UNL d   1      32.858  21.860 -21.006  0.00  0.00    -0.229 N 
ATOM     11  C   UNL d   1      32.361  22.410 -21.392  0.00  0.00     0.092 A 
ATOM     12  C   UNL d   1      32.140  23.158 -21.125  0.00  0.00     0.020 A 
ATOM     13  C   UNL d   1      32.353  23.519 -20.436  0.00  0.00     0.002 A 
ATOM     14  C   UNL d   1      32.823  23.280 -19.824  0.00  0.00     0.002 A 
ATOM     15  C   UNL d   1      33.217  22.554 -19.770  0.00  0.00     0.020 A 
ATOM     16  C   UNL d   1      33.239  21.927 -20.281  0.00  0.00     0.092 A 
ENDBRANCH   7  10
ENDBRANCH   1   7
BRANCH   4  17
ATOM     17  O   UNL d   1      33.241  18.472 -23.356  0.00  0.00    -0.305 OA
BRANCH  17  18
ATOM     18  C   UNL d   1      32.742  17.845 -23.251  0.00  0.00     0.123 C 
BRANCH  18  19
ATOM     19  C   UNL d   1      32.794  17.177 -23.752  0.00  0.00     0.027 C 
BRANCH  19  20
ATOM     20  C   UNL d   1      32.253  16.559 -23.688  0.00  0.00     0.002 C 
ATOM     21  C   UNL d   1      32.503  15.768 -23.596  0.00  0.00     0.000 C 
ENDBRANCH  19  20
ENDBRANCH  18  19
ENDBRANCH  17  18
ENDBRANCH   4  17
TORSDOF 6
ENDMDL
MODEL 3
REMARK VINA RESULT:      -1.8      1.333      2.025
REMARK  6 active torsions:
REMARK  status: ('A' for Active; 'I' for Inactive)
REMARK    1  A    between atoms: N_2  and  S_1 
REMARK    2  A    between atoms: C_3  and  S_1 
REMARK    3  A    between atoms: O_13  and  C_8 
REMARK    4  A    between atoms: C_14  and  O_13 
REMARK    5  A    between atoms: C_15  and  C_14 
REMARK    6  A    between atoms: C_16  and  C_15 
ROOT
ATOM      1  C   UNL d   1      33.190  20.358 -22.160  0.00  0.00     0.104 A 
ATOM      2  C   UNL d   1      33.174  20.360 -21.334  0.00  0.00     0.015 A 
ATOM      3  C   UNL d   1      33.219  21.032 -22.572  0.00  0.00     0.015 A 
ATOM      4  C   UNL d   1      33.216  21.774 -21.337  0.00  0.00     0.100 A 
ATOM      5  C   UNL d   1      33.186  21.057 -20.930  0.00  0.00     0.025 A 
ATOM      6  C   UNL d   1      33.233  21.772 -22.163  0.00  0.00     0.025 A 
ENDROOT
BRANCH   1   7
ATOM      7  S   UNL d   1      33.177  19.628 -22.564  0.00  0.00     0.271 S 
ATOM      8  O   UNL d   1      33.115  20.044 -23.275  0.00  0.00    -0.200 OA
ATOM      9  O   UNL d   1      33.241  19.217 -21.836  0.00  0.00    -0.200 OA
BRANCH   7  10
ATOM     10  N   UNL d   1      33.164  18.887 -22.972  0.00  0.00    -0.229 N 
ATOM     11  C   UNL d   1      33.082  19.014 -23.794  0.00  0.00     0.092 A 
ATOM     12  C   UNL d   1      33.045  18.443 -24.388  0.00  0.00     0.020 A 
ATOM     13  C   UNL d   1      33.080  17.642 -24.305  0.00  0.00     0.002 A 
ATOM     14  C   UNL d   1      33.158  17.169 -23.654  0.00  0.00     0.002 A 
ATOM     15  C   UNL d   1      33.223  17.429 -22.870  0.00  0.00     0.020 A 
ATOM     16  C   UNL d   1      33.227  18.177 -22.562  0.00  0.00     0.092 A 
ENDBRANCH   7  10
ENDBRANCH   1   7
BRANCH   4  17
ATOM     17  O   UNL d   1      33.228  22.479 -20.914  0.00  0.00    -0.305 OA
BRANCH  17  18
ATOM     18  C   UNL d   1      32.992  22.487 -20.140  0.00  0.00     0.123 C 
BRANCH  18  19
ATOM     19  C   UNL d   1      32.987  23.204 -19.710  0.00  0.00     0.027 C 
BRANCH  19  20
ATOM     20  C   UNL d   1      33.036  23.201 -18.886  0.00  0.00     0.002 C 
ATOM     21  C   UNL d   1      32.490  23.621 -18.416  0.00  0.00     0.000 C 
ENDBRANCH  19  20
ENDBRANCH  18  19
ENDBRANCH  17  18
ENDBRANCH   4  17
TORSDOF 6
ENDMDL
MODEL 4
REMARK VINA RESULT:      -0.8      2.515      6.091
REMARK  6 active torsions:
REMARK  status: ('A' for Active; 'I' for Inactive)
REMARK    1  A    between atoms: N_2  and  S_1 
REMARK    2  A    between atoms: C_3  and  S_1 
REMARK    3  A    between atoms: O_13  and  C_8 
REMARK    4  A    between atoms: C_14  and  O_13 
REMARK    5  A    between atoms: C_15  and  C_14 
REMARK    6  A    between atoms: C_16  and  C_15 
ROOT
ATOM      1  C   UNL d   1      32.971  21.717 -20.465  0.00  0.00     0.104 A 
ATOM      2  C   UNL d   1      32.958  20.891 -20.458  0.00  0.00     0.015 A 
ATOM      3  C   UNL d   1      33.069  22.121 -21.137  0.00  0.00     0.015 A 
ATOM      4  C   UNL d   1      33.150  20.876 -21.859  0.00  0.00     0.100 A 
ATOM      5  C   UNL d   1      33.046  20.479 -21.144  0.00  0.00     0.025 A 
ATOM      6  C   UNL d   1      33.163  21.702 -21.867  0.00  0.00     0.025 A 
ENDROOT
BRANCH   1   7
ATOM      7  S   UNL d   1      32.879  22.130 -19.745  0.00  0.00     0.271 S 
ATOM      8  O   UNL d   1      32.820  22.831 -20.178  0.00  0.00    -0.200 OA
ATOM      9  O   UNL d   1      32.940  21.412 -19.318  0.00  0.00    -0.200 OA
BRANCH   7  10
ATOM     10  N   UNL d   1      32.785  22.547 -19.016  0.00  0.00    -0.229 N 
ATOM     11  C   UNL d   1      33.191  22.149 -18.403  0.00  0.00     0.092 A 
ATOM     12  C   UNL d   1      33.241  22.368 -17.610  0.00  0.00     0.020 A 
ATOM     13  C   UNL d   1      32.910  23.012 -17.254  0.00  0.00     0.002 A 
ATOM     14  C   UNL d   1      32.452  23.612 -17.542  0.00  0.00     0.002 A 
ATOM     15  C   UNL d   1      32.205  23.701 -18.328  0.00  0.00     0.020 A 
ATOM     16  C   UNL d   1      32.345  23.241 -18.979  0.00  0.00     0.092 A 
ENDBRANCH   7  10
ENDBRANCH   1   7
BRANCH   4  17
ATOM     17  O   UNL d   1      33.239  20.445 -22.554  0.00  0.00    -0.305 OA
BRANCH  17  18
ATOM     18  C   UNL d   1      33.041  19.661 -22.566  0.00  0.00     0.123 C 
BRANCH  18  19
ATOM     19  C   UNL d   1      32.791  19.302 -23.279  0.00  0.00     0.027 C 
BRANCH  19  20
ATOM     20  C   UNL d   1      32.497  18.532 -23.281  0.00  0.00     0.002 C 
ATOM     21  C   UNL d   1      32.741  17.974 -23.852  0.00  0.00     0.000 C 
ENDBRANCH  19  20
ENDBRANCH  18  19
ENDBRANCH  17  18
ENDBRANCH   4  17
TORSDOF 6
ENDMDL
