MODEL 1
REMARK VINA RESULT:     110.2      0.000      0.000
REMARK  6 active torsions:
REMARK  status: ('A' for Active; 'I' for Inactive)
REMARK    1  A    between atoms: C_19  and  N_1 
REMARK    2  A    between atoms: S_12  and  C_2 
REMARK       I    between atoms: N_7  and  C_10 
REMARK    3  A    between atoms: C_10  and  C_23 
REMARK    4  A    between atoms: C_23  and  S_12 
REMARK    5  A    between atoms: O_26  and  C_17 
REMARK    6  A    between atoms: O_27  and  C_18 
ROOT
ATOM      1  S   UNL d   1      59.996  49.377  51.085  0.00  0.00    -0.044 SA
ENDROOT
BRANCH   1   2
ATOM      2  C   UNL d   1      59.224  49.453  50.816  0.00  0.00     0.183 A 
ATOM      3  N   UNL d   1      58.601  49.528  51.358  0.00  0.00    -0.254 N 
ATOM      4  C   UNL d   1      57.824  49.605  51.090  0.00  0.00     0.271 A 
ATOM      5  C   UNL d   1      57.666  49.606  50.278  0.00  0.00     0.115 A 
ATOM      6  O   UNL d   1      57.203  49.680  51.639  0.00  0.00    -0.266 OA
ATOM      7  C   UNL d   1      58.292  49.529  49.737  0.00  0.00     0.192 A 
ATOM      8  C   UNL d   1      56.963  49.671  49.848  0.00  0.00     0.130 A 
ATOM      9  N   UNL d   1      57.968  49.549  48.978  0.00  0.00    -0.128 NA
ATOM     10  N   UNL d   1      59.065  49.453  50.005  0.00  0.00    -0.201 NA
ATOM     11  N   UNL d   1      57.160  49.635  49.047  0.00  0.00    -0.145 NA
BRANCH   3  12
ATOM     12  C   UNL d   1      58.758  49.527  52.166  0.00  0.00     0.069 A 
ATOM     13  C   UNL d   1      59.523  49.377  52.435  0.00  0.00     0.018 A 
ATOM     14  C   UNL d   1      59.683  49.376  53.251  0.00  0.00     0.002 A 
ATOM     15  C   UNL d   1      59.075  49.526  53.789  0.00  0.00     0.000 A 
ATOM     16  C   UNL d   1      58.314  49.675  53.519  0.00  0.00     0.002 A 
ATOM     17  C   UNL d   1      58.155  49.676  52.702  0.00  0.00     0.018 A 
ENDBRANCH   3  12
ENDBRANCH   1   2
BRANCH   1  18
ATOM     18  C   UNL d   1      60.624  49.632  50.614  0.00  0.00     0.099 C 
BRANCH  18  19
ATOM     19  C   UNL d   1      60.991  49.107  50.100  0.00  0.00     0.271 C 
ATOM     20  N   UNL d   1      61.107  48.318  50.325  0.00  0.00    -0.272 N 
ATOM     21  C   UNL d   1      61.476  47.789  49.811  0.00  0.00     0.083 A 
ATOM     22  C   UNL d   1      60.853  48.062  51.065  0.00  0.00     0.083 A 
ATOM     23  C   UNL d   1      61.589  47.007  50.038  0.00  0.00     0.020 A 
ATOM     24  C   UNL d   1      61.957  46.482  49.524  0.00  0.00     0.028 A 
ATOM     25  C   UNL d   1      61.335  46.751  50.777  0.00  0.00     0.005 A 
ATOM     26  C   UNL d   1      62.073  45.693  49.749  0.00  0.00     0.116 A 
ATOM     27  C   UNL d   1      61.819  45.437  50.489  0.00  0.00     0.116 A 
ATOM     28  C   UNL d   1      61.448  45.971  51.003  0.00  0.00     0.026 A 
ATOM     29  C   UNL d   1      60.967  47.277  51.290  0.00  0.00     0.019 A 
ATOM     30  O   UNL d   1      61.244  49.367  49.362  0.00  0.00    -0.266 OA
BRANCH  26  31
ATOM     31  O   UNL d   1      62.442  45.163  49.235  0.00  0.00    -0.326 OA
ATOM     32  C   UNL d   1      63.143  45.370  48.855  0.00  0.00     0.181 C 
ENDBRANCH  26  31
BRANCH  27  33
ATOM     33  O   UNL d   1      61.929  44.647  50.726  0.00  0.00    -0.326 OA
ATOM     34  C   UNL d   1      61.455  44.320  51.313  0.00  0.00     0.181 C 
ENDBRANCH  27  33
ENDBRANCH  18  19
ENDBRANCH   1  18
TORSDOF 6
ENDMDL
