MODEL 1
REMARK VINA RESULT:      40.8      0.000      0.000
REMARK  5 active torsions:
REMARK  status: ('A' for Active; 'I' for Inactive)
REMARK    1  A    between atoms: O_5  and  C_1 
REMARK    2  A    between atoms: C_10  and  C_2 
REMARK    3  A    between atoms: C_3  and  O_5 
REMARK    4  A    between atoms: C_6  and  C_3 
REMARK    5  A    between atoms: N_11  and  C_10 
ROOT
ATOM      1  C   UNL d   1      46.371 -18.145  43.287  0.00  0.00     0.122 A 
ATOM      2  C   UNL d   1      46.309 -18.170  42.465  0.00  0.00     0.043 A 
ATOM      3  C   UNL d   1      46.463 -18.845  43.713  0.00  0.00     0.105 A 
ATOM      4  C   UNL d   1      46.493 -19.568  43.319  0.00  0.00     0.030 A 
ATOM      5  C   UNL d   1      46.430 -19.584  42.501  0.00  0.00     0.059 A 
ATOM      6  C   UNL d   1      46.338 -18.893  42.070  0.00  0.00     0.015 A 
ATOM      7  N   UNL d   1      46.525 -18.817  44.528  0.00  0.00    -0.242 NA
ATOM      8 CL   UNL d   1      46.462 -20.328  42.123  0.00  0.00    -0.082 Cl
ATOM      9  C   UNL d   1      46.583 -20.256  43.743  0.00  0.00     0.004 A 
ATOM     10  C   UNL d   1      46.617 -19.517  44.955  0.00  0.00     0.099 A 
ATOM     11  C   UNL d   1      46.646 -20.240  44.560  0.00  0.00     0.021 A 
ENDROOT
BRANCH   1  12
ATOM     12  O   UNL d   1      46.345 -17.495  43.654  0.00  0.00    -0.271 OA
BRANCH  12  13
ATOM     13  C   UNL d   1      45.784 -17.002  44.263  0.00  0.00     0.301 C 
ATOM     14  O   UNL d   1      45.187 -17.577  44.828  0.00  0.00    -0.259 OA
BRANCH  13  15
ATOM     15  C   UNL d   1      45.810 -16.179  44.298  0.00  0.00     0.074 A 
ATOM     16  C   UNL d   1      45.130 -15.753  44.516  0.00  0.00     0.063 A 
ATOM     17 CL   UNL d   1      44.361 -16.121  44.717  0.00  0.00    -0.082 Cl
ATOM     18  C   UNL d   1      45.159 -14.920  44.550  0.00  0.00     0.012 A 
ATOM     19  C   UNL d   1      45.866 -14.513  44.369  0.00  0.00     0.001 A 
ATOM     20  C   UNL d   1      46.542 -14.942  44.152  0.00  0.00     0.000 A 
ATOM     21  C   UNL d   1      46.512 -15.775  44.118  0.00  0.00     0.006 A 
ENDBRANCH  13  15
ENDBRANCH  12  13
ENDBRANCH   1  12
BRANCH   2  22
ATOM     22  C   UNL d   1      46.205 -17.519  41.837  0.00  0.00     0.082 C 
BRANCH  22  23
ATOM     23  N   UNL d   1      46.033 -17.729  41.062  0.00  0.00    -0.299 N 
ATOM     24  C   UNL d   1      45.257 -17.742  40.808  0.00  0.00     0.107 A 
ATOM     25  C   UNL d   1      45.070 -17.952  40.031  0.00  0.00     0.142 A 
ATOM     26  O   UNL d   1      45.673 -18.147  39.517  0.00  0.00    -0.300 OA
ATOM     27  C   UNL d   1      46.462 -18.134  39.772  0.00  0.00     0.142 A 
ATOM     28  C   UNL d   1      46.630 -17.924  40.546  0.00  0.00     0.107 A 
ENDBRANCH  22  23
ENDBRANCH   2  22
TORSDOF 5
ENDMDL
