MODEL 1
REMARK VINA RESULT:      35.1      0.000      0.000
REMARK  4 active torsions:
REMARK  status: ('A' for Active; 'I' for Inactive)
REMARK    1  A    between atoms: N_2  and  S_1 
REMARK    2  A    between atoms: C_3  and  S_1 
REMARK    3  A    between atoms: C_11  and  N_2 
REMARK    4  A    between atoms: C_6  and  C_7 
ROOT
ATOM      1  S   UNL d   1      60.243  49.555  50.612  0.00  0.00     0.285 S 
ATOM      2  O   UNL d   1      59.574  49.706  51.071  0.00  0.00    -0.198 OA
ATOM      3  O   UNL d   1      60.912  49.404  50.154  0.00  0.00    -0.198 OA
ENDROOT
BRANCH   1   4
ATOM      4  N   UNL d   1      59.797  49.658  49.926  0.00  0.00    -0.158 NA
BRANCH   4   5
ATOM      5  C   UNL d   1      58.973  49.630  49.955  0.00  0.00     0.094 A 
ATOM      6  C   UNL d   1      58.579  49.611  50.679  0.00  0.00     0.020 A 
ATOM      7  C   UNL d   1      57.757  49.582  50.703  0.00  0.00     0.005 A 
ATOM      8  C   UNL d   1      57.320  49.573  49.994  0.00  0.00     0.039 A 
ATOM      9  C   UNL d   1      57.713  49.592  49.270  0.00  0.00     0.005 A 
ATOM     10  C   UNL d   1      58.537  49.621  49.241  0.00  0.00     0.020 A 
BRANCH   8  11
ATOM     11  C   UNL d   1      56.486  49.544  50.012  0.00  0.00     0.196 C 
ATOM     12  O   UNL d   1      56.095  49.374  50.716  0.00  0.00    -0.287 OA
ATOM     13  C   UNL d   1      56.039  49.687  49.318  0.00  0.00     0.045 C 
ENDBRANCH   8  11
ENDBRANCH   4   5
ENDBRANCH   1   4
BRANCH   1  14
ATOM     14  C   UNL d   1      60.690  49.452  51.298  0.00  0.00     0.105 A 
ATOM     15  C   UNL d   1      61.445  49.140  51.248  0.00  0.00     0.013 A 
ATOM     16  C   UNL d   1      61.899  49.035  51.944  0.00  0.00     0.001 A 
ATOM     17  C   UNL d   1      61.585  49.244  52.673  0.00  0.00     0.000 A 
ATOM     18  C   UNL d   1      60.822  49.560  52.725  0.00  0.00     0.001 A 
ATOM     19  C   UNL d   1      62.032  49.141  53.359  0.00  0.00     0.000 C 
ATOM     20  C   UNL d   1      60.368  49.665  52.028  0.00  0.00     0.013 A 
ENDBRANCH   1  14
TORSDOF 4
ENDMDL
MODEL 2
REMARK VINA RESULT:      36.3      0.966      4.234
REMARK  4 active torsions:
REMARK  status: ('A' for Active; 'I' for Inactive)
REMARK    1  A    between atoms: N_2  and  S_1 
REMARK    2  A    between atoms: C_3  and  S_1 
REMARK    3  A    between atoms: C_11  and  N_2 
REMARK    4  A    between atoms: C_6  and  C_7 
ROOT
ATOM      1  S   UNL d   1      59.391  49.557  49.931  0.00  0.00     0.285 S 
ATOM      2  O   UNL d   1      59.271  49.628  50.744  0.00  0.00    -0.198 OA
ATOM      3  O   UNL d   1      59.512  49.485  49.118  0.00  0.00    -0.198 OA
ENDROOT
BRANCH   1   4
ATOM      4  N   UNL d   1      60.207  49.539  50.054  0.00  0.00    -0.158 NA
BRANCH   4   5
ATOM      5  C   UNL d   1      60.517  49.572  50.818  0.00  0.00     0.094 A 
ATOM      6  C   UNL d   1      60.020  49.506  51.474  0.00  0.00     0.020 A 
ATOM      7  C   UNL d   1      60.333  49.539  52.234  0.00  0.00     0.005 A 
ATOM      8  C   UNL d   1      61.153  49.640  52.344  0.00  0.00     0.039 A 
ATOM      9  C   UNL d   1      61.649  49.705  51.688  0.00  0.00     0.005 A 
ATOM     10  C   UNL d   1      61.340  49.673  50.924  0.00  0.00     0.020 A 
BRANCH   8  11
ATOM     11  C   UNL d   1      61.476  49.674  53.112  0.00  0.00     0.196 C 
ATOM     12  O   UNL d   1      60.978  49.706  53.766  0.00  0.00    -0.287 OA
ATOM     13  C   UNL d   1      62.306  49.677  53.227  0.00  0.00     0.045 C 
ENDBRANCH   8  11
ENDBRANCH   4   5
ENDBRANCH   1   4
BRANCH   1  14
ATOM     14  C   UNL d   1      58.576  49.574  49.808  0.00  0.00     0.105 A 
ATOM     15  C   UNL d   1      58.067  49.482  50.443  0.00  0.00     0.013 A 
ATOM     16  C   UNL d   1      57.239  49.500  50.319  0.00  0.00     0.001 A 
ATOM     17  C   UNL d   1      56.941  49.610  49.562  0.00  0.00     0.000 A 
ATOM     18  C   UNL d   1      57.454  49.703  48.920  0.00  0.00     0.001 A 
ATOM     19  C   UNL d   1      56.125  49.628  49.439  0.00  0.00     0.000 C 
ATOM     20  C   UNL d   1      58.282  49.685  49.044  0.00  0.00     0.013 A 
ENDBRANCH   1  14
TORSDOF 4
ENDMDL
