MODEL 1
REMARK VINA RESULT:      95.6      0.000      0.000
REMARK  9 active torsions:
REMARK  status: ('A' for Active; 'I' for Inactive)
REMARK    1  A    between atoms: C_27  and  N_1 
REMARK    2  A    between atoms: S_11  and  C_2 
REMARK    3  A    between atoms: C_28  and  S_11 
REMARK    4  A    between atoms: C_18  and  C_28 
REMARK    5  A    between atoms: C_19  and  C_35 
REMARK       I    between atoms: N_23  and  C_19 
REMARK    6  A    between atoms: C_32  and  N_23 
REMARK    7  A    between atoms: C_34  and  C_27 
REMARK    8  A    between atoms: C_30  and  C_32 
REMARK    9  A    between atoms: C_35  and  C_34 
ROOT
ATOM      1  N   UNL d   1     -55.162-101.145 -39.407  0.00  0.00    -0.253 N 
ATOM      2  C   UNL d   1     -54.960-101.926 -39.571  0.00  0.00     0.182 A 
ATOM      3  C   UNL d   1     -55.229-100.895 -38.616  0.00  0.00     0.268 A 
ATOM      4  C   UNL d   1     -55.093-101.424 -37.998  0.00  0.00     0.076 A 
ATOM      5  N   UNL d   1     -54.827-102.444 -38.943  0.00  0.00    -0.222 NA
ATOM      6  C   UNL d   1     -54.891-102.205 -38.162  0.00  0.00     0.090 A 
ATOM      7  C   UNL d   1     -55.160-101.173 -37.211  0.00  0.00     0.033 A 
ATOM      8  C   UNL d   1     -54.758-102.725 -37.525  0.00  0.00     0.046 A 
ATOM      9  C   UNL d   1     -55.024-101.707 -36.572  0.00  0.00     0.119 A 
ATOM     10  C   UNL d   1     -54.821-102.487 -36.737  0.00  0.00     0.121 A 
ATOM     11  O   UNL d   1     -55.431-100.114 -38.451  0.00  0.00    -0.267 OA
ATOM     12  O   UNL d   1     -55.047-101.626 -35.735  0.00  0.00    -0.300 OA
ATOM     13  O   UNL d   1     -54.723-102.875 -36.004  0.00  0.00    -0.299 OA
ATOM     14  C   UNL d   1     -54.860-102.349 -35.379  0.00  0.00     0.304 A 
ENDROOT
BRANCH   1  15
ATOM     15  C   UNL d   1     -55.299-100.611 -40.045  0.00  0.00     0.085 C 
BRANCH  15  16
ATOM     16  C   UNL d   1     -54.713-100.086 -40.258  0.00  0.00     0.024 C 
BRANCH  16  17
ATOM     17  C   UNL d   1     -54.717 -99.758 -41.019  0.00  0.00     0.064 C 
BRANCH  17  18
ATOM     18  C   UNL d   1     -55.261 -99.171 -41.215  0.00  0.00     0.279 C 
ATOM     19  N   UNL d   1     -55.300 -98.892 -41.991  0.00  0.00    -0.206 NA
ATOM     20  O   UNL d   1     -55.762 -98.865 -40.642  0.00  0.00    -0.265 OA
BRANCH  19  21
ATOM     21  C   UNL d   1     -54.798 -99.198 -42.567  0.00  0.00     0.102 C 
BRANCH  21  22
ATOM     22  C   UNL d   1     -55.062 -99.265 -43.343  0.00  0.00     0.021 A 
ATOM     23  C   UNL d   1     -55.620 -99.843 -43.533  0.00  0.00     0.028 A 
ATOM     24  C   UNL d   1     -55.883 -99.909 -44.308  0.00  0.00     0.119 A 
ATOM     25  O   UNL d   1     -56.426-100.420 -44.663  0.00  0.00    -0.300 OA
ATOM     26  C   UNL d   1     -55.593 -99.404 -44.889  0.00  0.00     0.119 A 
ATOM     27  C   UNL d   1     -56.467-100.226 -45.462  0.00  0.00     0.304 A 
ATOM     28  O   UNL d   1     -55.952 -99.598 -45.603  0.00  0.00    -0.300 OA
ATOM     29  C   UNL d   1     -55.035 -98.829 -44.690  0.00  0.00     0.026 A 
ATOM     30  C   UNL d   1     -54.772 -98.762 -43.921  0.00  0.00     0.004 A 
ENDBRANCH  21  22
ENDBRANCH  19  21
ENDBRANCH  17  18
ENDBRANCH  16  17
ENDBRANCH  15  16
ENDBRANCH   1  15
BRANCH   2  31
ATOM     31  S   UNL d   1     -54.897-102.161 -40.372  0.00  0.00    -0.044 SA
BRANCH  31  32
ATOM     32  C   UNL d   1     -55.583-102.377 -40.787  0.00  0.00     0.102 C 
BRANCH  32  33
ATOM     33  C   UNL d   1     -55.556-102.459 -41.610  0.00  0.00     0.303 C 
ATOM     34  O   UNL d   1     -54.855-102.301 -42.012  0.00  0.00    -0.263 OA
ATOM     35  N   UNL d   1     -56.229-102.698 -42.013  0.00  0.00    -0.102 N 
ENDBRANCH  32  33
ENDBRANCH  31  32
ENDBRANCH   2  31
TORSDOF 9
ENDMDL
