MODEL 1
REMARK VINA RESULT:       3.6      0.000      0.000
REMARK  9 active torsions:
REMARK  status: ('A' for Active; 'I' for Inactive)
REMARK    1  A    between atoms: N_7  and  N_1 
REMARK    2  A    between atoms: S_9  and  C_2 
REMARK       I    between atoms: C_8  and  N_7 
REMARK    3  A    between atoms: C_15  and  C_8 
REMARK    4  A    between atoms: C_14  and  S_9 
REMARK    5  A    between atoms: C_11  and  C_14 
REMARK       I    between atoms: N_16  and  C_11 
REMARK    6  A    between atoms: C_18  and  C_15 
REMARK    7  A    between atoms: C_19  and  N_16 
REMARK    8  A    between atoms: C_22  and  C_19 
REMARK    9  A    between atoms: C_21  and  C_22 
ROOT
ATOM      1  N   UNL d   1      58.617  -1.117  30.229  0.00  0.00    -0.168 N 
ATOM      2  C   UNL d   1      58.640  -1.431  29.475  0.00  0.00     0.199 A 
ATOM      3  C   UNL d   1      59.141  -0.513  30.439  0.00  0.00     0.283 A 
ATOM      4  N   UNL d   1      59.191  -1.148  28.902  0.00  0.00    -0.221 NA
ATOM      5  C   UNL d   1      59.696  -0.224  29.869  0.00  0.00     0.076 A 
ATOM      6  C   UNL d   1      59.719  -0.541  29.108  0.00  0.00     0.088 A 
ATOM      7  O   UNL d   1      59.123  -0.191  31.202  0.00  0.00    -0.265 OA
ATOM      8  C   UNL d   1      60.218   0.385  30.094  0.00  0.00     0.006 A 
ATOM      9  C   UNL d   1      60.263  -0.253  28.561  0.00  0.00     0.019 A 
ATOM     10  C   UNL d   1      60.762   0.665  29.531  0.00  0.00     0.000 A 
ATOM     11  C   UNL d   1      60.785   0.348  28.769  0.00  0.00     0.002 A 
ENDROOT
BRANCH   2  12
ATOM     12  S   UNL d   1      58.124  -2.029  29.262  0.00  0.00    -0.043 SA
BRANCH  12  13
ATOM     13  C   UNL d   1      58.340  -2.579  28.682  0.00  0.00     0.101 C 
BRANCH  13  14
ATOM     14  C   UNL d   1      57.942  -3.299  28.633  0.00  0.00     0.286 C 
ATOM     15  O   UNL d   1      57.115  -3.311  28.604  0.00  0.00    -0.265 OA
ATOM     16  N   UNL d   1      58.363  -4.006  28.612  0.00  0.00    -0.206 NA
BRANCH  16  17
ATOM     17  C   UNL d   1      57.965  -4.726  28.564  0.00  0.00     0.102 C 
BRANCH  17  18
ATOM     18  C   UNL d   1      58.386  -5.431  28.509  0.00  0.00     0.021 C 
BRANCH  18  19
ATOM     19  C   UNL d   1      57.991  -6.151  28.513  0.00  0.00     0.002 A 
ATOM     20  C   UNL d   1      57.164  -6.167  28.483  0.00  0.00     0.000 A 
ATOM     21  C   UNL d   1      56.768  -6.898  28.487  0.00  0.00     0.000 A 
ATOM     22  C   UNL d   1      57.194  -7.603  28.521  0.00  0.00     0.000 A 
ATOM     23  C   UNL d   1      58.026  -7.579  28.551  0.00  0.00     0.000 A 
ATOM     24  C   UNL d   1      58.416  -6.856  28.547  0.00  0.00     0.000 A 
ENDBRANCH  18  19
ENDBRANCH  17  18
ENDBRANCH  16  17
ENDBRANCH  13  14
ENDBRANCH  12  13
ENDBRANCH   2  12
BRANCH   1  25
ATOM     25  N   UNL d   1      58.079  -1.400  30.774  0.00  0.00    -0.119 NA
ATOM     26  C   UNL d   1      57.455  -0.924  31.023  0.00  0.00     0.296 C 
ATOM     27  O   UNL d   1      57.364  -0.159  30.729  0.00  0.00    -0.264 OA
BRANCH  26  28
ATOM     28  C   UNL d   1      56.912  -1.216  31.577  0.00  0.00     0.064 C 
BRANCH  28  29
ATOM     29  C   UNL d   1      56.666  -0.739  32.196  0.00  0.00     0.005 A 
ATOM     30  C   UNL d   1      57.212  -0.454  32.737  0.00  0.00     0.000 A 
ATOM     31  C   UNL d   1      56.967   0.026  33.361  0.00  0.00     0.000 A 
ATOM     32  C   UNL d   1      56.164   0.219  33.438  0.00  0.00     0.000 A 
ATOM     33  C   UNL d   1      55.618  -0.066  32.897  0.00  0.00     0.000 A 
ATOM     34  C   UNL d   1      55.862  -0.545  32.275  0.00  0.00     0.000 A 
ENDBRANCH  28  29
ENDBRANCH  26  28
ENDBRANCH   1  25
TORSDOF 9
ENDMDL
MODEL 2
REMARK VINA RESULT:       4.4      1.291      5.581
REMARK  9 active torsions:
REMARK  status: ('A' for Active; 'I' for Inactive)
REMARK    1  A    between atoms: N_7  and  N_1 
REMARK    2  A    between atoms: S_9  and  C_2 
REMARK       I    between atoms: C_8  and  N_7 
REMARK    3  A    between atoms: C_15  and  C_8 
REMARK    4  A    between atoms: C_14  and  S_9 
REMARK    5  A    between atoms: C_11  and  C_14 
REMARK       I    between atoms: N_16  and  C_11 
REMARK    6  A    between atoms: C_18  and  C_15 
REMARK    7  A    between atoms: C_19  and  N_16 
REMARK    8  A    between atoms: C_22  and  C_19 
REMARK    9  A    between atoms: C_21  and  C_22 
ROOT
ATOM      1  N   UNL d   1      58.690  -1.339  29.363  0.00  0.00    -0.168 N 
ATOM      2  C   UNL d   1      58.462  -0.737  29.865  0.00  0.00     0.199 A 
ATOM      3  C   UNL d   1      59.416  -1.294  28.969  0.00  0.00     0.283 A 
ATOM      4  N   UNL d   1      58.955  -0.064  29.991  0.00  0.00    -0.221 NA
ATOM      5  C   UNL d   1      59.916  -0.622  29.090  0.00  0.00     0.076 A 
ATOM      6  C   UNL d   1      59.685  -0.014  29.597  0.00  0.00     0.088 A 
ATOM      7  O   UNL d   1      59.652  -1.902  28.458  0.00  0.00    -0.265 OA
ATOM      8  C   UNL d   1      60.644  -0.589  28.687  0.00  0.00     0.006 A 
ATOM      9  C   UNL d   1      60.179   0.636  29.708  0.00  0.00     0.019 A 
ATOM     10  C   UNL d   1      61.132   0.073  28.809  0.00  0.00     0.000 A 
ATOM     11  C   UNL d   1      60.902   0.682  29.316  0.00  0.00     0.002 A 
ENDROOT
BRANCH   2  12
ATOM     12  S   UNL d   1      57.746  -0.776  30.257  0.00  0.00    -0.043 SA
BRANCH  12  13
ATOM     13  C   UNL d   1      57.563  -0.227  30.850  0.00  0.00     0.101 C 
BRANCH  13  14
ATOM     14  C   UNL d   1      56.934  -0.372  31.361  0.00  0.00     0.286 C 
ATOM     15  O   UNL d   1      56.342  -0.909  31.144  0.00  0.00    -0.265 OA
ATOM     16  N   UNL d   1      56.890   0.014  32.087  0.00  0.00    -0.206 NA
BRANCH  16  17
ATOM     17  C   UNL d   1      56.260  -0.130  32.598  0.00  0.00     0.102 C 
BRANCH  17  18
ATOM     18  C   UNL d   1      55.792   0.490  32.868  0.00  0.00     0.021 C 
BRANCH  18  19
ATOM     19  C   UNL d   1      55.455   0.460  33.616  0.00  0.00     0.002 A 
ATOM     20  C   UNL d   1      55.906   0.205  34.262  0.00  0.00     0.000 A 
ATOM     21  C   UNL d   1      55.560   0.175  35.018  0.00  0.00     0.000 A 
ATOM     22  C   UNL d   1      54.773   0.398  35.125  0.00  0.00     0.000 A 
ATOM     23  C   UNL d   1      54.326   0.653  34.471  0.00  0.00     0.000 A 
ATOM     24  C   UNL d   1      54.668   0.682  33.725  0.00  0.00     0.000 A 
ENDBRANCH  18  19
ENDBRANCH  17  18
ENDBRANCH  16  17
ENDBRANCH  13  14
ENDBRANCH  12  13
ENDBRANCH   2  12
BRANCH   1  25
ATOM     25  N   UNL d   1      58.203  -1.984  29.250  0.00  0.00    -0.119 NA
ATOM     26  C   UNL d   1      58.375  -2.701  29.619  0.00  0.00     0.296 C 
ATOM     27  O   UNL d   1      59.037  -2.777  30.105  0.00  0.00    -0.264 OA
BRANCH  26  28
ATOM     28  C   UNL d   1      57.877  -3.353  29.500  0.00  0.00     0.064 C 
BRANCH  28  29
ATOM     29  C   UNL d   1      58.175  -4.036  29.162  0.00  0.00     0.005 A 
ATOM     30  C   UNL d   1      57.669  -4.570  28.799  0.00  0.00     0.000 A 
ATOM     31  C   UNL d   1      57.967  -5.259  28.457  0.00  0.00     0.000 A 
ATOM     32  C   UNL d   1      58.782  -5.409  28.483  0.00  0.00     0.000 A 
ATOM     33  C   UNL d   1      59.288  -4.875  28.846  0.00  0.00     0.000 A 
ATOM     34  C   UNL d   1      58.991  -4.189  29.186  0.00  0.00     0.000 A 
ENDBRANCH  28  29
ENDBRANCH  26  28
ENDBRANCH   1  25
TORSDOF 9
ENDMDL
MODEL 3
REMARK VINA RESULT:       5.3      6.908      8.185
REMARK  9 active torsions:
REMARK  status: ('A' for Active; 'I' for Inactive)
REMARK    1  A    between atoms: N_7  and  N_1 
REMARK    2  A    between atoms: S_9  and  C_2 
REMARK       I    between atoms: C_8  and  N_7 
REMARK    3  A    between atoms: C_15  and  C_8 
REMARK    4  A    between atoms: C_14  and  S_9 
REMARK    5  A    between atoms: C_11  and  C_14 
REMARK       I    between atoms: N_16  and  C_11 
REMARK    6  A    between atoms: C_18  and  C_15 
REMARK    7  A    between atoms: C_19  and  N_16 
REMARK    8  A    between atoms: C_22  and  C_19 
REMARK    9  A    between atoms: C_21  and  C_22 
ROOT
ATOM      1  N   UNL d   1      59.839  -8.879  33.615  0.00  0.00    -0.168 N 
ATOM      2  C   UNL d   1      59.023  -8.905  33.599  0.00  0.00     0.199 A 
ATOM      3  C   UNL d   1      60.226  -8.406  34.173  0.00  0.00     0.283 A 
ATOM      4  N   UNL d   1      58.563  -8.457  34.146  0.00  0.00    -0.221 NA
ATOM      5  C   UNL d   1      59.770  -7.954  34.724  0.00  0.00     0.076 A 
ATOM      6  C   UNL d   1      58.946  -7.981  34.708  0.00  0.00     0.088 A 
ATOM      7  O   UNL d   1      61.053  -8.375  34.193  0.00  0.00    -0.265 OA
ATOM      8  C   UNL d   1      60.171  -7.482  35.281  0.00  0.00     0.006 A 
ATOM      9  C   UNL d   1      58.512  -7.536  35.249  0.00  0.00     0.019 A 
ATOM     10  C   UNL d   1      59.719  -7.039  35.821  0.00  0.00     0.000 A 
ATOM     11  C   UNL d   1      58.895  -7.066  35.805  0.00  0.00     0.002 A 
ENDROOT
BRANCH   2  12
ATOM     12  S   UNL d   1      58.636  -9.371  33.050  0.00  0.00    -0.043 SA
BRANCH  12  13
ATOM     13  C   UNL d   1      57.810  -9.420  33.052  0.00  0.00     0.101 C 
BRANCH  13  14
ATOM     14  C   UNL d   1      57.408  -9.590  32.353  0.00  0.00     0.286 C 
ATOM     15  O   UNL d   1      56.589  -9.708  32.369  0.00  0.00    -0.265 OA
ATOM     16  N   UNL d   1      57.816  -9.642  31.641  0.00  0.00    -0.206 NA
BRANCH  16  17
ATOM     17  C   UNL d   1      57.414  -9.811  30.942  0.00  0.00     0.102 C 
BRANCH  17  18
ATOM     18  C   UNL d   1      57.759  -9.648  30.213  0.00  0.00     0.021 C 
BRANCH  18  19
ATOM     19  C   UNL d   1      57.335  -9.248  29.634  0.00  0.00     0.002 A 
ATOM     20  C   UNL d   1      56.744  -9.642  29.209  0.00  0.00     0.000 A 
ATOM     21  C   UNL d   1      56.318  -9.233  28.624  0.00  0.00     0.000 A 
ATOM     22  C   UNL d   1      56.481  -8.440  28.466  0.00  0.00     0.000 A 
ATOM     23  C   UNL d   1      57.078  -8.050  28.898  0.00  0.00     0.000 A 
ATOM     24  C   UNL d   1      57.498  -8.455  29.476  0.00  0.00     0.000 A 
ENDBRANCH  18  19
ENDBRANCH  17  18
ENDBRANCH  16  17
ENDBRANCH  13  14
ENDBRANCH  12  13
ENDBRANCH   2  12
BRANCH   1  25
ATOM     25  N   UNL d   1      60.273  -9.317  33.080  0.00  0.00    -0.119 NA
ATOM     26  C   UNL d   1      60.687  -8.941  32.476  0.00  0.00     0.296 C 
ATOM     27  O   UNL d   1      60.670  -8.119  32.401  0.00  0.00    -0.264 OA
BRANCH  26  28
ATOM     28  C   UNL d   1      61.126  -9.392  31.936  0.00  0.00     0.064 C 
BRANCH  28  29
ATOM     29  C   UNL d   1      61.100  -9.209  31.138  0.00  0.00     0.005 A 
ATOM     30  C   UNL d   1      61.110  -9.809  30.579  0.00  0.00     0.000 A 
ATOM     31  C   UNL d   1      61.083  -9.628  29.775  0.00  0.00     0.000 A 
ATOM     32  C   UNL d   1      61.047  -8.836  29.535  0.00  0.00     0.000 A 
ATOM     33  C   UNL d   1      61.037  -8.236  30.093  0.00  0.00     0.000 A 
ATOM     34  C   UNL d   1      61.063  -8.416  30.895  0.00  0.00     0.000 A 
ENDBRANCH  28  29
ENDBRANCH  26  28
ENDBRANCH   1  25
TORSDOF 9
ENDMDL
