MODEL 1
REMARK VINA RESULT:      -8.2      0.000      0.000
REMARK  3 active torsions:
REMARK  status: ('A' for Active; 'I' for Inactive)
REMARK    1  A    between atoms: N_9  and  C_3 
REMARK    2  A    between atoms: C_14  and  C_5 
REMARK       I    between atoms: C_10  and  N_11 
REMARK    3  A    between atoms: C_13  and  C_10 
ROOT
ATOM      1  N   UNL d   1      51.669  33.987  53.302  0.00  0.00    -0.196 N 
ATOM      2  C   UNL d   1      52.296  33.553  53.603  0.00  0.00     0.167 A 
ATOM      3  C   UNL d   1      51.023  33.602  52.962  0.00  0.00     0.152 A 
ATOM      4  N   UNL d   1      51.832  34.782  53.413  0.00  0.00    -0.163 NA
ATOM      5  C   UNL d   1      52.851  34.078  53.902  0.00  0.00     0.055 A 
ATOM      6  C   UNL d   1      52.565  34.830  53.785  0.00  0.00     0.104 A 
ATOM      7  N   UNL d   1      52.287  32.728  53.569  0.00  0.00    -0.227 NA
ATOM      8  C   UNL d   1      51.009  32.770  52.925  0.00  0.00     0.057 A 
ATOM      9  C   UNL d   1      51.636  32.337  53.226  0.00  0.00     0.086 A 
ATOM     10  C   UNL d   1      52.958  35.526  54.009  0.00  0.00     0.023 C 
ATOM     11  C   UNL d   1      51.616  31.498  53.186  0.00  0.00     0.021 C 
ENDROOT
BRANCH   3  12
ATOM     12  N   UNL d   1      50.395  34.036  52.660  0.00  0.00    -0.286 N 
ATOM     13  C   UNL d   1      49.894  34.459  53.165  0.00  0.00     0.101 A 
ATOM     14  C   UNL d   1      49.267  34.891  52.861  0.00  0.00     0.102 A 
ATOM     15  N   UNL d   1      49.133  34.907  52.040  0.00  0.00    -0.267 N 
ATOM     16  C   UNL d   1      48.499  35.344  51.722  0.00  0.00     0.288 C 
ATOM     17  C   UNL d   1      49.628  34.489  51.542  0.00  0.00     0.102 A 
ATOM     18  O   UNL d   1      48.356  35.367  50.916  0.00  0.00    -0.264 OA
ATOM     19  C   UNL d   1      50.262  34.052  51.850  0.00  0.00     0.101 A 
BRANCH  16  20
ATOM     20  C   UNL d   1      47.999  35.767  52.237  0.00  0.00     0.156 A 
ATOM     21  O   UNL d   1      48.154  36.248  52.882  0.00  0.00    -0.300 OA
ATOM     22  C   UNL d   1      47.431  36.513  53.171  0.00  0.00     0.123 A 
ATOM     23  C   UNL d   1      46.839  36.206  52.720  0.00  0.00     0.029 A 
ATOM     24  C   UNL d   1      47.187  35.734  52.128  0.00  0.00     0.032 A 
ENDBRANCH  16  20
ENDBRANCH   3  12
BRANCH   5  25
ATOM     25  C   UNL d   1      53.582  33.965  54.268  0.00  0.00     0.004 A 
ATOM     26  C   UNL d   1      53.633  33.978  55.099  0.00  0.00     0.001 A 
ATOM     27  C   UNL d   1      54.363  33.866  55.465  0.00  0.00     0.011 A 
ATOM     28  C   UNL d   1      55.041  33.741  55.012  0.00  0.00     0.058 A 
ATOM     29  C   UNL d   1      54.992  33.728  54.183  0.00  0.00     0.011 A 
ATOM     30 CL   UNL d   1      55.771  33.629  55.383  0.00  0.00    -0.082 Cl
ATOM     31  C   UNL d   1      54.262  33.841  53.817  0.00  0.00     0.001 A 
ENDBRANCH   5  25
TORSDOF 3
ENDMDL
MODEL 2
REMARK VINA RESULT:      -6.7      1.508      2.374
REMARK  3 active torsions:
REMARK  status: ('A' for Active; 'I' for Inactive)
REMARK    1  A    between atoms: N_9  and  C_3 
REMARK    2  A    between atoms: C_14  and  C_5 
REMARK       I    between atoms: C_10  and  N_11 
REMARK    3  A    between atoms: C_13  and  C_10 
ROOT
ATOM      1  N   UNL d   1      51.369  33.441  53.096  0.00  0.00    -0.196 N 
ATOM      2  C   UNL d   1      52.115  33.107  53.165  0.00  0.00     0.167 A 
ATOM      3  C   UNL d   1      51.286  34.257  53.004  0.00  0.00     0.152 A 
ATOM      4  N   UNL d   1      50.815  32.839  53.136  0.00  0.00    -0.163 NA
ATOM      5  C   UNL d   1      52.025  32.297  53.249  0.00  0.00     0.055 A 
ATOM      6  C   UNL d   1      51.229  32.133  53.231  0.00  0.00     0.104 A 
ATOM      7  N   UNL d   1      52.789  33.584  53.144  0.00  0.00    -0.227 NA
ATOM      8  C   UNL d   1      51.962  34.742  52.982  0.00  0.00     0.057 A 
ATOM      9  C   UNL d   1      52.708  34.408  53.051  0.00  0.00     0.086 A 
ATOM     10  C   UNL d   1      50.899  31.376  53.298  0.00  0.00     0.023 C 
ATOM     11  C   UNL d   1      53.386  34.903  53.028  0.00  0.00     0.021 C 
ENDROOT
BRANCH   3  12
ATOM     12  N   UNL d   1      50.539  34.592  52.934  0.00  0.00    -0.286 N 
ATOM     13  C   UNL d   1      50.183  34.965  53.581  0.00  0.00     0.101 A 
ATOM     14  C   UNL d   1      49.437  35.297  53.507  0.00  0.00     0.102 A 
ATOM     15  N   UNL d   1      49.036  35.261  52.780  0.00  0.00    -0.267 N 
ATOM     16  C   UNL d   1      48.277  35.597  52.697  0.00  0.00     0.288 C 
ATOM     17  C   UNL d   1      49.388  34.893  52.141  0.00  0.00     0.102 A 
ATOM     18  O   UNL d   1      47.871  35.568  51.986  0.00  0.00    -0.264 OA
ATOM     19  C   UNL d   1      50.143  34.556  52.216  0.00  0.00     0.101 A 
BRANCH  16  20
ATOM     20  C   UNL d   1      47.924  35.971  53.352  0.00  0.00     0.156 A 
ATOM     21  O   UNL d   1      48.180  36.575  53.843  0.00  0.00    -0.300 OA
ATOM     22  C   UNL d   1      47.587  36.708  54.399  0.00  0.00     0.123 A 
ATOM     23  C   UNL d   1      46.977  36.201  54.259  0.00  0.00     0.029 A 
ATOM     24  C   UNL d   1      47.180  35.732  53.601  0.00  0.00     0.032 A 
ENDBRANCH  16  20
ENDBRANCH   3  12
BRANCH   5  25
ATOM     25  C   UNL d   1      52.570  31.684  53.340  0.00  0.00     0.004 A 
ATOM     26  C   UNL d   1      52.730  31.176  52.699  0.00  0.00     0.001 A 
ATOM     27  C   UNL d   1      53.275  30.564  52.789  0.00  0.00     0.011 A 
ATOM     28  C   UNL d   1      53.661  30.453  53.509  0.00  0.00     0.058 A 
ATOM     29  C   UNL d   1      53.504  30.958  54.149  0.00  0.00     0.011 A 
ATOM     30 CL   UNL d   1      54.207  29.838  53.594  0.00  0.00    -0.082 Cl
ATOM     31  C   UNL d   1      52.959  31.570  54.059  0.00  0.00     0.001 A 
ENDBRANCH   5  25
TORSDOF 3
ENDMDL
MODEL 3
REMARK VINA RESULT:      -6.3      2.704      5.776
REMARK  3 active torsions:
REMARK  status: ('A' for Active; 'I' for Inactive)
REMARK    1  A    between atoms: N_9  and  C_3 
REMARK    2  A    between atoms: C_14  and  C_5 
REMARK       I    between atoms: C_10  and  N_11 
REMARK    3  A    between atoms: C_13  and  C_10 
ROOT
ATOM      1  N   UNL d   1      49.549  35.006  52.923  0.00  0.00    -0.196 N 
ATOM      2  C   UNL d   1      48.815  35.120  52.576  0.00  0.00     0.167 A 
ATOM      3  C   UNL d   1      50.133  34.574  52.530  0.00  0.00     0.152 A 
ATOM      4  N   UNL d   1      49.547  35.378  53.653  0.00  0.00    -0.163 NA
ATOM      5  C   UNL d   1      48.356  35.563  53.090  0.00  0.00     0.055 A 
ATOM      6  C   UNL d   1      48.805  35.721  53.749  0.00  0.00     0.104 A 
ATOM      7  N   UNL d   1      48.653  34.804  51.831  0.00  0.00    -0.227 NA
ATOM      8  C   UNL d   1      49.974  34.254  51.778  0.00  0.00     0.057 A 
ATOM      9  C   UNL d   1      49.239  34.368  51.431  0.00  0.00     0.086 A 
ATOM     10  C   UNL d   1      48.547  36.158  54.405  0.00  0.00     0.023 C 
ATOM     11  C   UNL d   1      49.086  34.042  50.673  0.00  0.00     0.021 C 
ENDROOT
BRANCH   3  12
ATOM     12  N   UNL d   1      50.868  34.460  52.877  0.00  0.00    -0.286 N 
ATOM     13  C   UNL d   1      51.096  33.711  53.144  0.00  0.00     0.101 A 
ATOM     14  C   UNL d   1      51.831  33.601  53.490  0.00  0.00     0.102 A 
ATOM     15  N   UNL d   1      52.351  34.244  53.574  0.00  0.00    -0.267 N 
ATOM     16  C   UNL d   1      53.101  34.140  53.925  0.00  0.00     0.288 C 
ATOM     17  C   UNL d   1      52.126  34.983  53.310  0.00  0.00     0.102 A 
ATOM     18  O   UNL d   1      53.622  34.765  54.013  0.00  0.00    -0.264 OA
ATOM     19  C   UNL d   1      51.382  35.095  52.960  0.00  0.00     0.101 A 
BRANCH  16  20
ATOM     20  C   UNL d   1      53.323  33.383  54.192  0.00  0.00     0.156 A 
ATOM     21  O   UNL d   1      53.275  32.642  53.845  0.00  0.00    -0.300 OA
ATOM     22  C   UNL d   1      53.585  32.099  54.380  0.00  0.00     0.123 A 
ATOM     23  C   UNL d   1      53.820  32.489  55.044  0.00  0.00     0.029 A 
ATOM     24  C   UNL d   1      53.660  33.299  54.935  0.00  0.00     0.032 A 
ENDBRANCH  16  20
ENDBRANCH   3  12
BRANCH   5  25
ATOM     25  C   UNL d   1      47.582  35.845  53.041  0.00  0.00     0.004 A 
ATOM     26  C   UNL d   1      47.387  36.417  52.467  0.00  0.00     0.001 A 
ATOM     27  C   UNL d   1      46.614  36.698  52.417  0.00  0.00     0.011 A 
ATOM     28  C   UNL d   1      46.034  36.417  52.932  0.00  0.00     0.058 A 
ATOM     29  C   UNL d   1      46.226  35.847  53.505  0.00  0.00     0.011 A 
ATOM     30 CL   UNL d   1      45.260  36.703  52.878  0.00  0.00    -0.082 Cl
ATOM     31  C   UNL d   1      46.999  35.566  53.555  0.00  0.00     0.001 A 
ENDBRANCH   5  25
TORSDOF 3
ENDMDL
MODEL 4
REMARK VINA RESULT:      -5.5      1.751      2.919
REMARK  3 active torsions:
REMARK  status: ('A' for Active; 'I' for Inactive)
REMARK    1  A    between atoms: N_9  and  C_3 
REMARK    2  A    between atoms: C_14  and  C_5 
REMARK       I    between atoms: C_10  and  N_11 
REMARK    3  A    between atoms: C_13  and  C_10 
ROOT
ATOM      1  N   UNL d   1      52.054  32.298  53.251  0.00  0.00    -0.196 N 
ATOM      2  C   UNL d   1      52.700  31.858  53.501  0.00  0.00     0.167 A 
ATOM      3  C   UNL d   1      52.131  33.108  53.115  0.00  0.00     0.152 A 
ATOM      4  N   UNL d   1      51.412  31.793  53.185  0.00  0.00    -0.163 NA
ATOM      5  C   UNL d   1      52.459  31.079  53.590  0.00  0.00     0.055 A 
ATOM      6  C   UNL d   1      51.671  31.041  53.396  0.00  0.00     0.104 A 
ATOM      7  N   UNL d   1      53.432  32.221  53.618  0.00  0.00    -0.227 NA
ATOM      8  C   UNL d   1      52.868  33.479  53.231  0.00  0.00     0.057 A 
ATOM      9  C   UNL d   1      53.513  33.039  53.481  0.00  0.00     0.086 A 
ATOM     10  C   UNL d   1      51.212  30.350  53.413  0.00  0.00     0.023 C 
ATOM     11  C   UNL d   1      54.253  33.419  53.596  0.00  0.00     0.021 C 
ENDROOT
BRANCH   3  12
ATOM     12  N   UNL d   1      51.485  33.549  52.864  0.00  0.00    -0.286 N 
ATOM     13  C   UNL d   1      51.002  33.936  53.413  0.00  0.00     0.101 A 
ATOM     14  C   UNL d   1      50.358  34.376  53.159  0.00  0.00     0.102 A 
ATOM     15  N   UNL d   1      50.188  34.433  52.348  0.00  0.00    -0.267 N 
ATOM     16  C   UNL d   1      49.534  34.877  52.081  0.00  0.00     0.288 C 
ATOM     17  C   UNL d   1      50.665  34.050  51.806  0.00  0.00     0.102 A 
ATOM     18  O   UNL d   1      49.356  34.941  51.285  0.00  0.00    -0.264 OA
ATOM     19  C   UNL d   1      51.317  33.605  52.063  0.00  0.00     0.101 A 
BRANCH  16  20
ATOM     20  C   UNL d   1      49.052  35.265  52.639  0.00  0.00     0.156 A 
ATOM     21  O   UNL d   1      49.223  35.632  53.352  0.00  0.00    -0.300 OA
ATOM     22  C   UNL d   1      48.514  35.916  53.658  0.00  0.00     0.123 A 
ATOM     23  C   UNL d   1      47.916  35.733  53.151  0.00  0.00     0.029 A 
ATOM     24  C   UNL d   1      48.245  35.322  52.505  0.00  0.00     0.032 A 
ENDBRANCH  16  20
ENDBRANCH   3  12
BRANCH   5  25
ATOM     25  C   UNL d   1      52.861  30.397  53.825  0.00  0.00     0.004 A 
ATOM     26  C   UNL d   1      53.242  29.927  53.252  0.00  0.00     0.001 A 
ATOM     27  C   UNL d   1      53.644  29.245  53.485  0.00  0.00     0.011 A 
ATOM     28  C   UNL d   1      53.669  29.028  54.281  0.00  0.00     0.058 A 
ATOM     29  C   UNL d   1      53.289  29.496  54.853  0.00  0.00     0.011 A 
ATOM     30 CL   UNL d   1      54.072  28.344  54.510  0.00  0.00    -0.082 Cl
ATOM     31  C   UNL d   1      52.888  30.177  54.620  0.00  0.00     0.001 A 
ENDBRANCH   5  25
TORSDOF 3
ENDMDL
