MODEL 1
REMARK VINA RESULT:      -5.1      0.000      0.000
REMARK  7 active torsions:
REMARK  status: ('A' for Active; 'I' for Inactive)
REMARK    1  A    between atoms: C_2  and  S_1 
REMARK    2  A    between atoms: N_7  and  S_1 
REMARK    3  A    between atoms: O_11  and  C_6 
REMARK    4  A    between atoms: C_12  and  N_7 
REMARK    5  A    between atoms: O_13  and  C_9 
REMARK    6  A    between atoms: C_15  and  C_12 
REMARK    7  A    between atoms: C_14  and  C_15 
ROOT
ATOM      1  S   UNL d   1      58.292  -0.291  29.983  0.00  0.00     0.287 S 
ATOM      2  O   UNL d   1      57.715  -0.184  29.393  0.00  0.00    -0.198 OA
ATOM      3  O   UNL d   1      58.853  -0.390  30.569  0.00  0.00    -0.198 OA
ENDROOT
BRANCH   1   4
ATOM      4  C   UNL d   1      58.733  -0.766  29.467  0.00  0.00     0.129 A 
ATOM      5  C   UNL d   1      58.602  -1.570  29.461  0.00  0.00     0.039 A 
ATOM      6  C   UNL d   1      59.036  -2.048  28.951  0.00  0.00     0.095 A 
ATOM      7  C   UNL d   1      59.595  -1.717  28.455  0.00  0.00     0.026 A 
ATOM      8  C   UNL d   1      59.732  -0.898  28.458  0.00  0.00     0.027 A 
ATOM      9  C   UNL d   1      59.301  -0.428  28.962  0.00  0.00     0.106 A 
BRANCH   6  10
ATOM     10  O   UNL d   1      58.910  -2.870  28.938  0.00  0.00    -0.328 OA
ATOM     11  C   UNL d   1      59.536  -3.369  28.840  0.00  0.00     0.181 C 
ENDBRANCH   6  10
BRANCH   9  12
ATOM     12  O   UNL d   1      59.440   0.382  28.962  0.00  0.00    -0.327 OA
ATOM     13  C   UNL d   1      60.068   0.681  28.528  0.00  0.00     0.181 C 
ENDBRANCH   9  12
ENDBRANCH   1   4
BRANCH   1  14
ATOM     14  N   UNL d   1      57.843   0.185  30.489  0.00  0.00    -0.157 NA
BRANCH  14  15
ATOM     15  C   UNL d   1      57.391  -0.150  31.110  0.00  0.00     0.112 C 
BRANCH  15  16
ATOM     16  C   UNL d   1      57.070   0.324  31.708  0.00  0.00     0.021 C 
BRANCH  16  17
ATOM     17  C   UNL d   1      56.522   0.012  32.236  0.00  0.00     0.002 A 
ATOM     18  C   UNL d   1      55.995   0.510  32.628  0.00  0.00     0.000 A 
ATOM     19  C   UNL d   1      55.445   0.199  33.158  0.00  0.00     0.000 A 
ATOM     20  C   UNL d   1      55.422  -0.620  33.297  0.00  0.00     0.000 A 
ATOM     21  C   UNL d   1      55.962  -1.117  32.894  0.00  0.00     0.000 A 
ATOM     22  C   UNL d   1      56.499  -0.807  32.375  0.00  0.00     0.000 A 
ENDBRANCH  16  17
ENDBRANCH  15  16
ENDBRANCH  14  15
ENDBRANCH   1  14
TORSDOF 7
ENDMDL
MODEL 2
REMARK VINA RESULT:      -3.6      0.924      1.873
REMARK  7 active torsions:
REMARK  status: ('A' for Active; 'I' for Inactive)
REMARK    1  A    between atoms: C_2  and  S_1 
REMARK    2  A    between atoms: N_7  and  S_1 
REMARK    3  A    between atoms: O_11  and  C_6 
REMARK    4  A    between atoms: C_12  and  N_7 
REMARK    5  A    between atoms: O_13  and  C_9 
REMARK    6  A    between atoms: C_15  and  C_12 
REMARK    7  A    between atoms: C_14  and  C_15 
ROOT
ATOM      1  S   UNL d   1      58.094  -0.642  30.177  0.00  0.00     0.287 S 
ATOM      2  O   UNL d   1      57.762  -0.036  29.712  0.00  0.00    -0.198 OA
ATOM      3  O   UNL d   1      58.409  -1.238  30.639  0.00  0.00    -0.198 OA
ENDROOT
BRANCH   1   4
ATOM      4  C   UNL d   1      58.804  -0.578  29.756  0.00  0.00     0.129 A 
ATOM      5  C   UNL d   1      59.328   0.012  29.953  0.00  0.00     0.039 A 
ATOM      6  C   UNL d   1      60.037   0.081  29.539  0.00  0.00     0.095 A 
ATOM      7  C   UNL d   1      60.209  -0.440  28.934  0.00  0.00     0.026 A 
ATOM      8  C   UNL d   1      59.678  -1.043  28.729  0.00  0.00     0.027 A 
ATOM      9  C   UNL d   1      58.980  -1.109  29.140  0.00  0.00     0.106 A 
BRANCH   6  10
ATOM     10  O   UNL d   1      60.579   0.681  29.733  0.00  0.00    -0.328 OA
ATOM     11  C   UNL d   1      61.120   0.556  30.318  0.00  0.00     0.181 C 
ENDBRANCH   6  10
BRANCH   9  12
ATOM     12  O   UNL d   1      58.456  -1.708  28.934  0.00  0.00    -0.327 OA
ATOM     13  C   UNL d   1      58.715  -2.322  28.455  0.00  0.00     0.181 C 
ENDBRANCH   9  12
ENDBRANCH   1   4
BRANCH   1  14
ATOM     14  N   UNL d   1      57.379  -0.697  30.590  0.00  0.00    -0.157 NA
BRANCH  14  15
ATOM     15  C   UNL d   1      57.320  -0.440  31.386  0.00  0.00     0.112 C 
BRANCH  15  16
ATOM     16  C   UNL d   1      56.741  -0.747  31.892  0.00  0.00     0.021 C 
BRANCH  16  17
ATOM     17  C   UNL d   1      56.495  -0.321  32.550  0.00  0.00     0.002 A 
ATOM     18  C   UNL d   1      57.045   0.076  33.017  0.00  0.00     0.000 A 
ATOM     19  C   UNL d   1      56.799   0.504  33.678  0.00  0.00     0.000 A 
ATOM     20  C   UNL d   1      55.992   0.534  33.873  0.00  0.00     0.000 A 
ATOM     21  C   UNL d   1      55.441   0.127  33.393  0.00  0.00     0.000 A 
ATOM     22  C   UNL d   1      55.687  -0.291  32.746  0.00  0.00     0.000 A 
ENDBRANCH  16  17
ENDBRANCH  15  16
ENDBRANCH  14  15
ENDBRANCH   1  14
TORSDOF 7
ENDMDL
MODEL 3
REMARK VINA RESULT:      -3.0      2.032      5.042
REMARK  7 active torsions:
REMARK  status: ('A' for Active; 'I' for Inactive)
REMARK    1  A    between atoms: C_2  and  S_1 
REMARK    2  A    between atoms: N_7  and  S_1 
REMARK    3  A    between atoms: O_11  and  C_6 
REMARK    4  A    between atoms: C_12  and  N_7 
REMARK    5  A    between atoms: O_13  and  C_9 
REMARK    6  A    between atoms: C_15  and  C_12 
REMARK    7  A    between atoms: C_14  and  C_15 
ROOT
ATOM      1  S   UNL d   1      56.662  -0.403  32.166  0.00  0.00     0.287 S 
ATOM      2  O   UNL d   1      56.667  -1.132  32.569  0.00  0.00    -0.198 OA
ATOM      3  O   UNL d   1      56.661   0.307  31.761  0.00  0.00    -0.198 OA
ENDROOT
BRANCH   1   4
ATOM      4  C   UNL d   1      56.328  -0.037  32.830  0.00  0.00     0.129 A 
ATOM      5  C   UNL d   1      55.517  -0.021  32.905  0.00  0.00     0.039 A 
ATOM      6  C   UNL d   1      55.178   0.342  33.563  0.00  0.00     0.095 A 
ATOM      7  C   UNL d   1      55.654   0.682  34.133  0.00  0.00     0.026 A 
ATOM      8  C   UNL d   1      56.480   0.667  34.060  0.00  0.00     0.027 A 
ATOM      9  C   UNL d   1      56.812   0.309  33.411  0.00  0.00     0.106 A 
BRANCH   6  10
ATOM     10  O   UNL d   1      54.351   0.363  33.649  0.00  0.00    -0.328 OA
ATOM     11  C   UNL d   1      54.029   0.537  34.368  0.00  0.00     0.181 C 
ENDBRANCH   6  10
BRANCH   9  12
ATOM     12  O   UNL d   1      57.631   0.297  33.342  0.00  0.00    -0.327 OA
ATOM     13  C   UNL d   1      58.087   0.682  33.904  0.00  0.00     0.181 C 
ENDBRANCH   9  12
ENDBRANCH   1   4
BRANCH   1  14
ATOM     14  N   UNL d   1      56.996  -0.780  31.509  0.00  0.00    -0.157 NA
BRANCH  14  15
ATOM     15  C   UNL d   1      57.442  -0.350  30.945  0.00  0.00     0.112 C 
BRANCH  15  16
ATOM     16  C   UNL d   1      57.962  -0.735  30.429  0.00  0.00     0.021 C 
BRANCH  16  17
ATOM     17  C   UNL d   1      58.391  -0.306  29.874  0.00  0.00     0.002 A 
ATOM     18  C   UNL d   1      58.178  -0.329  29.079  0.00  0.00     0.000 A 
ATOM     19  C   UNL d   1      58.607   0.101  28.520  0.00  0.00     0.000 A 
ATOM     20  C   UNL d   1      59.257   0.559  28.762  0.00  0.00     0.000 A 
ATOM     21  C   UNL d   1      59.465   0.575  29.572  0.00  0.00     0.000 A 
ATOM     22  C   UNL d   1      59.041   0.152  30.115  0.00  0.00     0.000 A 
ENDBRANCH  16  17
ENDBRANCH  15  16
ENDBRANCH  14  15
ENDBRANCH   1  14
TORSDOF 7
ENDMDL
MODEL 4
REMARK VINA RESULT:      -2.8      1.425      4.599
REMARK  7 active torsions:
REMARK  status: ('A' for Active; 'I' for Inactive)
REMARK    1  A    between atoms: C_2  and  S_1 
REMARK    2  A    between atoms: N_7  and  S_1 
REMARK    3  A    between atoms: O_11  and  C_6 
REMARK    4  A    between atoms: C_12  and  N_7 
REMARK    5  A    between atoms: O_13  and  C_9 
REMARK    6  A    between atoms: C_15  and  C_12 
REMARK    7  A    between atoms: C_14  and  C_15 
ROOT
ATOM      1  S   UNL d   1      57.342  -0.134  31.081  0.00  0.00     0.287 S 
ATOM      2  O   UNL d   1      57.347   0.680  30.906  0.00  0.00    -0.198 OA
ATOM      3  O   UNL d   1      57.340  -0.936  31.241  0.00  0.00    -0.198 OA
ENDROOT
BRANCH   1   4
ATOM      4  C   UNL d   1      57.096   0.031  31.854  0.00  0.00     0.129 A 
ATOM      5  C   UNL d   1      56.341  -0.174  32.081  0.00  0.00     0.039 A 
ATOM      6  C   UNL d   1      56.089  -0.013  32.848  0.00  0.00     0.095 A 
ATOM      7  C   UNL d   1      56.595   0.351  33.376  0.00  0.00     0.026 A 
ATOM      8  C   UNL d   1      57.365   0.562  33.150  0.00  0.00     0.027 A 
ATOM      9  C   UNL d   1      57.611   0.402  32.392  0.00  0.00     0.106 A 
BRANCH   6  10
ATOM     10  O   UNL d   1      55.321  -0.219  33.089  0.00  0.00    -0.328 OA
ATOM     11  C   UNL d   1      55.017   0.094  33.767  0.00  0.00     0.181 C 
ENDBRANCH   6  10
BRANCH   9  12
ATOM     12  O   UNL d   1      58.374   0.613  32.172  0.00  0.00    -0.327 OA
ATOM     13  C   UNL d   1      58.954   0.682  32.747  0.00  0.00     0.181 C 
ENDBRANCH   9  12
ENDBRANCH   1   4
BRANCH   1  14
ATOM     14  N   UNL d   1      57.588  -0.287  30.306  0.00  0.00    -0.157 NA
BRANCH  14  15
ATOM     15  C   UNL d   1      58.154  -0.883  30.142  0.00  0.00     0.112 C 
BRANCH  15  16
ATOM     16  C   UNL d   1      58.475  -0.970  29.384  0.00  0.00     0.021 C 
BRANCH  16  17
ATOM     17  C   UNL d   1      59.017  -1.569  29.228  0.00  0.00     0.002 A 
ATOM     18  C   UNL d   1      59.819  -1.394  29.161  0.00  0.00     0.000 A 
ATOM     19  C   UNL d   1      60.364  -1.994  29.005  0.00  0.00     0.000 A 
ATOM     20  C   UNL d   1      60.102  -2.777  28.913  0.00  0.00     0.000 A 
ATOM     21  C   UNL d   1      59.285  -2.943  28.983  0.00  0.00     0.000 A 
ATOM     22  C   UNL d   1      58.755  -2.352  29.137  0.00  0.00     0.000 A 
ENDBRANCH  16  17
ENDBRANCH  15  16
ENDBRANCH  14  15
ENDBRANCH   1  14
TORSDOF 7
ENDMDL
