MODEL 1
REMARK VINA RESULT:      -0.4      0.000      0.000
REMARK  4 active torsions:
REMARK  status: ('A' for Active; 'I' for Inactive)
REMARK    1  A    between atoms: C_2  and  S_1 
REMARK    2  A    between atoms: N_3  and  S_1 
REMARK    3  A    between atoms: C_7  and  C_14 
REMARK       I    between atoms: N_9  and  C_7 
REMARK    4  A    between atoms: C_13  and  N_10 
ROOT
ATOM      1  N   UNL d   1     -42.055-122.510 -49.350  0.00  0.00    -0.229 N 
ATOM      2  C   UNL d   1     -41.654-121.777 -50.787  0.00  0.00     0.060 A 
ATOM      3  C   UNL d   1     -41.326-122.674 -49.704  0.00  0.00     0.092 A 
ATOM      4  C   UNL d   1     -42.574-121.984 -49.714  0.00  0.00     0.092 A 
ATOM      5  C   UNL d   1     -42.376-121.622 -50.424  0.00  0.00     0.025 A 
ATOM      6  C   UNL d   1     -41.123-122.303 -50.431  0.00  0.00     0.025 A 
ENDROOT
BRANCH   2   7
ATOM      7  C   UNL d   1     -41.455-121.414 -51.499  0.00  0.00     0.265 C 
ATOM      8  N   UNL d   1     -41.575-121.791 -52.205  0.00  0.00    -0.269 N 
ATOM      9  C   UNL d   1     -41.902-122.556 -52.219  0.00  0.00     0.102 A 
ATOM     10  C   UNL d   1     -41.376-121.428 -52.916  0.00  0.00     0.102 A 
ATOM     11  C   UNL d   1     -42.027-122.948 -52.934  0.00  0.00     0.100 A 
ATOM     12  N   UNL d   1     -41.824-122.574 -53.648  0.00  0.00    -0.301 N 
ATOM     13  C   UNL d   1     -41.497-121.809 -53.634  0.00  0.00     0.100 A 
ATOM     14  O   UNL d   1     -41.128-120.649 -51.484  0.00  0.00    -0.267 OA
BRANCH  12  15
ATOM     15  C   UNL d   1     -41.774-122.573 -54.481  0.00  0.00     0.064 A 
ATOM     16  C   UNL d   1     -41.342-122.749 -55.162  0.00  0.00     0.020 A 
ATOM     17  C   UNL d   1     -41.667-122.580 -55.909  0.00  0.00     0.031 A 
ATOM     18  C   UNL d   1     -42.424-122.234 -55.955  0.00  0.00     0.140 A 
ATOM     19  C   UNL d   1     -42.850-122.060 -55.272  0.00  0.00     0.031 A 
ATOM     20  F   UNL d   1     -42.760-122.059 -56.707  0.00  0.00    -0.204 F 
ATOM     21  C   UNL d   1     -42.519-122.233 -54.528  0.00  0.00     0.020 A 
ENDBRANCH  12  15
ENDBRANCH   2   7
BRANCH   1  22
ATOM     22  S   UNL d   1     -42.253-122.873 -48.638  0.00  0.00     0.275 S 
ATOM     23  O   UNL d   1     -42.767-122.241 -48.471  0.00  0.00    -0.199 OA
ATOM     24  O   UNL d   1     -41.733-123.502 -48.820  0.00  0.00    -0.199 OA
BRANCH  22  25
ATOM     25  C   UNL d   1     -42.454-123.240 -47.920  0.00  0.00     0.148 A 
ATOM     26  C   UNL d   1     -42.006-123.440 -47.261  0.00  0.00     0.139 A 
ATOM     27  O   UNL d   1     -42.503-123.795 -46.712  0.00  0.00    -0.210 OA
ATOM     28  C   UNL d   1     -41.194-123.305 -47.174  0.00  0.00     0.030 C 
ATOM     29  N   UNL d   1     -43.267-123.817 -47.027  0.00  0.00    -0.126 NA
ATOM     30  C   UNL d   1     -43.233-123.468 -47.786  0.00  0.00     0.122 A 
ATOM     31  C   UNL d   1     -43.871-123.371 -48.306  0.00  0.00     0.024 C 
ENDBRANCH  22  25
ENDBRANCH   1  22
TORSDOF 4
ENDMDL
MODEL 2
REMARK VINA RESULT:       0.0      2.721      6.139
REMARK  4 active torsions:
REMARK  status: ('A' for Active; 'I' for Inactive)
REMARK    1  A    between atoms: C_2  and  S_1 
REMARK    2  A    between atoms: N_3  and  S_1 
REMARK    3  A    between atoms: C_7  and  C_14 
REMARK       I    between atoms: N_9  and  C_7 
REMARK    4  A    between atoms: C_13  and  N_10 
ROOT
ATOM      1  N   UNL d   1     -42.065-121.926 -53.786  0.00  0.00    -0.229 N 
ATOM      2  C   UNL d   1     -41.672-121.622 -52.200  0.00  0.00     0.060 A 
ATOM      3  C   UNL d   1     -41.321-122.145 -53.500  0.00  0.00     0.092 A 
ATOM      4  C   UNL d   1     -42.604-121.561 -53.282  0.00  0.00     0.092 A 
ATOM      5  C   UNL d   1     -42.410-121.410 -52.498  0.00  0.00     0.025 A 
ATOM      6  C   UNL d   1     -41.123-121.991 -52.698  0.00  0.00     0.025 A 
ENDROOT
BRANCH   2   7
ATOM      7  C   UNL d   1     -41.478-121.472 -51.414  0.00  0.00     0.265 C 
ATOM      8  N   UNL d   1     -41.606-122.029 -50.841  0.00  0.00    -0.269 N 
ATOM      9  C   UNL d   1     -41.937-122.765 -51.041  0.00  0.00     0.102 A 
ATOM     10  C   UNL d   1     -41.411-121.877 -50.056  0.00  0.00     0.102 A 
ATOM     11  C   UNL d   1     -42.071-123.339 -50.463  0.00  0.00     0.100 A 
ATOM     12  N   UNL d   1     -41.872-123.178 -49.672  0.00  0.00    -0.301 N 
ATOM     13  C   UNL d   1     -41.540-122.442 -49.472  0.00  0.00     0.100 A 
ATOM     14  O   UNL d   1     -41.146-120.736 -51.215  0.00  0.00    -0.267 OA
BRANCH  12  15
ATOM     15  C   UNL d   1     -41.829-123.408 -48.871  0.00  0.00     0.064 A 
ATOM     16  C   UNL d   1     -41.371-123.667 -48.235  0.00  0.00     0.020 A 
ATOM     17  C   UNL d   1     -41.733-123.805 -47.498  0.00  0.00     0.031 A 
ATOM     18  C   UNL d   1     -42.553-123.678 -47.418  0.00  0.00     0.140 A 
ATOM     19  C   UNL d   1     -43.004-123.419 -48.056  0.00  0.00     0.031 A 
ATOM     20  F   UNL d   1     -42.927-123.815 -46.676  0.00  0.00    -0.204 F 
ATOM     21  C   UNL d   1     -42.636-123.283 -48.789  0.00  0.00     0.020 A 
ENDBRANCH  12  15
ENDBRANCH   2   7
BRANCH   1  22
ATOM     22  S   UNL d   1     -42.260-122.077 -54.572  0.00  0.00     0.275 S 
ATOM     23  O   UNL d   1     -43.014-121.755 -54.437  0.00  0.00    -0.199 OA
ATOM     24  O   UNL d   1     -41.497-122.398 -54.694  0.00  0.00    -0.199 OA
BRANCH  22  25
ATOM     25  C   UNL d   1     -42.456-122.229 -55.366  0.00  0.00     0.148 A 
ATOM     26  C   UNL d   1     -42.723-122.906 -55.746  0.00  0.00     0.139 A 
ATOM     27  O   UNL d   1     -42.825-122.729 -56.541  0.00  0.00    -0.210 OA
ATOM     28  C   UNL d   1     -42.863-123.637 -55.382  0.00  0.00     0.030 C 
ATOM     29  N   UNL d   1     -42.621-121.938 -56.662  0.00  0.00    -0.126 NA
ATOM     30  C   UNL d   1     -42.389-121.626 -55.921  0.00  0.00     0.122 A 
ATOM     31  C   UNL d   1     -42.139-120.849 -55.777  0.00  0.00     0.024 C 
ENDBRANCH  22  25
ENDBRANCH   1  22
TORSDOF 4
ENDMDL
