MODEL 1
REMARK VINA RESULT:      48.0      0.000      0.000
REMARK  7 active torsions:
REMARK  status: ('A' for Active; 'I' for Inactive)
REMARK    1  A    between atoms: C_14  and  N_3 
REMARK    2  A    between atoms: C_10  and  C_6 
REMARK    3  A    between atoms: C_15  and  C_14 
REMARK    4  A    between atoms: C_20  and  C_15 
REMARK    5  A    between atoms: N_16  and  C_20 
REMARK    6  A    between atoms: C_23  and  N_16 
REMARK    7  A    between atoms: C_24  and  N_16 
ROOT
ATOM      1  C   UNL d   1      13.962  13.202  -2.682  0.00  0.00     0.083 A 
ATOM      2  C   UNL d   1      13.942  13.886  -3.123  0.00  0.00     0.161 A 
ATOM      3  N   UNL d   1      14.471  14.180  -1.956  0.00  0.00    -0.272 N 
ATOM      4  C   UNL d   1      14.256  14.490  -2.676  0.00  0.00     0.288 A 
ATOM      5  C   UNL d   1      13.680  12.501  -2.995  0.00  0.00     0.201 A 
ATOM      6  C   UNL d   1      14.290  13.386  -1.959  0.00  0.00     0.074 A 
ATOM      7  O   UNL d   1      13.636  13.869  -3.887  0.00  0.00    -0.302 OA
ATOM      8  C   UNL d   1      13.373  12.489  -3.761  0.00  0.00     0.062 A 
ATOM      9  C   UNL d   1      13.353  13.172  -4.202  0.00  0.00     0.103 A 
ATOM     10  O   UNL d   1      14.340  15.276  -2.914  0.00  0.00    -0.264 OA
ATOM     11  O   UNL d   1      13.700  11.798  -2.541  0.00  0.00    -0.286 OA
ATOM     12  C   UNL d   1      13.091  11.788  -4.074  0.00  0.00     0.005 A 
ATOM     13  C   UNL d   1      13.051  13.160  -4.959  0.00  0.00     0.025 A 
ATOM     14  C   UNL d   1      12.788  11.780  -4.833  0.00  0.00     0.000 A 
ATOM     15  C   UNL d   1      12.769  12.464  -5.274  0.00  0.00     0.002 A 
ENDROOT
BRANCH   3  16
ATOM     16  C   UNL d   1      14.814  14.596  -1.328  0.00  0.00     0.085 C 
BRANCH  16  17
ATOM     17  C   UNL d   1      14.852  15.432  -1.347  0.00  0.00     0.038 C 
BRANCH  17  18
ATOM     18  C   UNL d   1      15.094  15.853  -0.676  0.00  0.00     0.082 C 
BRANCH  18  19
ATOM     19  N   UNL d   1      15.662  16.455  -0.745  0.00  0.00    -0.302 N 
BRANCH  19  20
ATOM     20  C   UNL d   1      15.469  17.165  -1.134  0.00  0.00     0.080 C 
ATOM     21  C   UNL d   1      15.156  17.805  -0.703  0.00  0.00     0.021 C 
ENDBRANCH  19  20
BRANCH  19  22
ATOM     22  C   UNL d   1      16.423  16.349  -0.425  0.00  0.00     0.080 C 
ATOM     23  C   UNL d   1      16.612  15.650  -0.014  0.00  0.00     0.021 C 
ENDBRANCH  19  22
ENDBRANCH  18  19
ENDBRANCH  17  18
ENDBRANCH  16  17
ENDBRANCH   3  16
BRANCH   6  24
ATOM     24  C   UNL d   1      14.417  12.851  -1.334  0.00  0.00     0.036 A 
ATOM     25  C   UNL d   1      13.840  12.761  -0.740  0.00  0.00     0.100 A 
ATOM     26  N   UNL d   1      13.964  12.228  -0.118  0.00  0.00    -0.242 NA
ATOM     27  C   UNL d   1      14.669  11.780  -0.084  0.00  0.00     0.099 A 
ATOM     28  C   UNL d   1      15.244  11.872  -0.680  0.00  0.00     0.021 A 
ATOM     29  C   UNL d   1      15.119  12.405  -1.303  0.00  0.00     0.005 A 
ENDBRANCH   6  24
TORSDOF 7
ENDMDL
