MODEL 1
REMARK VINA RESULT:      -2.9      0.000      0.000
REMARK  2 active torsions:
REMARK  status: ('A' for Active; 'I' for Inactive)
REMARK    1  A    between atoms: C_6  and  C_1 
REMARK    2  A    between atoms: C_7  and  C_3 
ROOT
ATOM      1  C   UNL d   1      58.420  -1.372  29.916  0.00  0.00     0.081 A 
ATOM      2  N   UNL d   1      57.804  -1.562  30.423  0.00  0.00    -0.246 NA
ATOM      3  C   UNL d   1      58.581  -0.572  30.001  0.00  0.00     0.019 A 
ATOM      4  C   UNL d   1      58.066  -0.267  30.559  0.00  0.00     0.019 A 
ATOM      5  C   UNL d   1      57.583  -0.873  30.824  0.00  0.00     0.081 A 
ATOM      6  C   UNL d   1      57.982   0.502  30.859  0.00  0.00     0.002 A 
ATOM      7  C   UNL d   1      57.006  -0.722  31.394  0.00  0.00     0.019 A 
ATOM      8  C   UNL d   1      57.400   0.646  31.432  0.00  0.00     0.000 A 
ATOM      9  C   UNL d   1      56.912   0.034  31.700  0.00  0.00     0.002 A 
ENDROOT
BRANCH   1  10
ATOM     10  C   UNL d   1      58.669  -2.043  29.494  0.00  0.00     0.018 A 
ATOM     11  C   UNL d   1      58.215  -2.318  28.872  0.00  0.00     0.002 A 
ATOM     12  C   UNL d   1      58.463  -2.982  28.456  0.00  0.00     0.000 A 
ATOM     13  C   UNL d   1      59.158  -3.368  28.659  0.00  0.00     0.000 A 
ATOM     14  C   UNL d   1      59.610  -3.082  29.289  0.00  0.00     0.000 A 
ATOM     15  C   UNL d   1      59.366  -2.423  29.704  0.00  0.00     0.002 A 
ENDBRANCH   1  10
BRANCH   3  16
ATOM     16  C   UNL d   1      59.167  -0.153  29.588  0.00  0.00     0.002 A 
ATOM     17  C   UNL d   1      58.996   0.196  28.860  0.00  0.00     0.000 A 
ATOM     18  C   UNL d   1      59.577   0.609  28.455  0.00  0.00     0.000 A 
ATOM     19  C   UNL d   1      60.344   0.682  28.770  0.00  0.00     0.000 A 
ATOM     20  C   UNL d   1      60.518   0.330  29.504  0.00  0.00     0.000 A 
ATOM     21  C   UNL d   1      59.929  -0.087  29.911  0.00  0.00     0.000 A 
ENDBRANCH   3  16
TORSDOF 2
ENDMDL
