MODEL 1
REMARK VINA RESULT:      41.4      0.000      0.000
REMARK  4 active torsions:
REMARK  status: ('A' for Active; 'I' for Inactive)
REMARK       I    between atoms: N_3  and  C_1 
REMARK    1  A    between atoms: O_5  and  C_1 
REMARK    2  A    between atoms: C_2  and  O_8 
REMARK       I    between atoms: N_4  and  C_2 
REMARK    3  A    between atoms: C_6  and  O_5 
REMARK    4  A    between atoms: O_8  and  C_12 
ROOT
ATOM      1  C   UNL d   1      13.592  12.406  -3.618  0.00  0.00     0.105 A 
ATOM      2  C   UNL d   1      13.436  13.184  -3.836  0.00  0.00     0.025 A 
ATOM      3  C   UNL d   1      13.686  13.803  -3.354  0.00  0.00     0.027 A 
ATOM      4  C   UNL d   1      13.531  14.601  -3.569  0.00  0.00     0.105 A 
ATOM      5  C   UNL d   1      13.036  13.341  -4.526  0.00  0.00     0.002 A 
ATOM      6  C   UNL d   1      12.876  14.120  -4.751  0.00  0.00     0.002 A 
ATOM      7  C   UNL d   1      13.131  14.758  -4.259  0.00  0.00     0.025 A 
ATOM      8  C   UNL d   1      13.343  11.787  -4.099  0.00  0.00     0.025 A 
ATOM      9  C   UNL d   1      12.943  11.944  -4.789  0.00  0.00     0.002 A 
ATOM     10  C   UNL d   1      12.782  12.723  -5.015  0.00  0.00     0.000 A 
ENDROOT
BRANCH   1  11
ATOM     11  O   UNL d   1      13.998  12.246  -2.917  0.00  0.00    -0.259 OA
BRANCH  11  12
ATOM     12  C   UNL d   1      13.582  12.017  -2.241  0.00  0.00     0.378 C 
ATOM     13  N   UNL d   1      13.953  12.019  -1.491  0.00  0.00    -0.247 N 
ATOM     14  C   UNL d   1      13.525  11.787  -0.818  0.00  0.00     0.112 A 
ATOM     15  C   UNL d   1      14.741  12.252  -1.429  0.00  0.00     0.112 A 
ATOM     16  C   UNL d   1      13.902  11.792  -0.075  0.00  0.00     0.142 A 
ATOM     17  O   UNL d   1      14.702  12.029  -0.015  0.00  0.00    -0.300 OA
ATOM     18  C   UNL d   1      15.114  12.257  -0.693  0.00  0.00     0.142 A 
ATOM     19  O   UNL d   1      12.789  11.782  -2.295  0.00  0.00    -0.237 OA
ENDBRANCH  11  12
ENDBRANCH   1  11
BRANCH   4  20
ATOM     20  O   UNL d   1      13.783  15.220  -3.084  0.00  0.00    -0.259 OA
BRANCH  20  21
ATOM     21  C   UNL d   1      14.334  15.759  -3.358  0.00  0.00     0.378 C 
ATOM     22  N   UNL d   1      14.718  16.270  -2.833  0.00  0.00    -0.247 N 
ATOM     23  C   UNL d   1      15.272  16.808  -3.128  0.00  0.00     0.112 A 
ATOM     24  C   UNL d   1      14.545  16.236  -2.035  0.00  0.00     0.112 A 
ATOM     25  C   UNL d   1      15.654  17.316  -2.604  0.00  0.00     0.142 A 
ATOM     26  O   UNL d   1      15.484  17.286  -1.798  0.00  0.00    -0.300 OA
ATOM     27  C   UNL d   1      14.931  16.747  -1.515  0.00  0.00     0.142 A 
ATOM     28  O   UNL d   1      14.501  15.786  -4.165  0.00  0.00    -0.237 OA
ENDBRANCH  20  21
ENDBRANCH   4  20
TORSDOF 4
ENDMDL
MODEL 2
REMARK VINA RESULT:      42.0      0.602      3.968
REMARK  4 active torsions:
REMARK  status: ('A' for Active; 'I' for Inactive)
REMARK       I    between atoms: N_3  and  C_1 
REMARK    1  A    between atoms: O_5  and  C_1 
REMARK    2  A    between atoms: C_2  and  O_8 
REMARK       I    between atoms: N_4  and  C_2 
REMARK    3  A    between atoms: C_6  and  O_5 
REMARK    4  A    between atoms: O_8  and  C_12 
ROOT
ATOM      1  C   UNL d   1      13.838  14.869  -3.613  0.00  0.00     0.105 A 
ATOM      2  C   UNL d   1      13.638  14.082  -3.751  0.00  0.00     0.025 A 
ATOM      3  C   UNL d   1      13.906  13.495  -3.240  0.00  0.00     0.027 A 
ATOM      4  C   UNL d   1      13.707  12.689  -3.373  0.00  0.00     0.105 A 
ATOM      5  C   UNL d   1      13.177  13.885  -4.391  0.00  0.00     0.002 A 
ATOM      6  C   UNL d   1      12.972  13.097  -4.536  0.00  0.00     0.002 A 
ATOM      7  C   UNL d   1      13.246  12.492  -4.012  0.00  0.00     0.025 A 
ATOM      8  C   UNL d   1      13.570  15.455  -4.124  0.00  0.00     0.025 A 
ATOM      9  C   UNL d   1      13.109  15.259  -4.764  0.00  0.00     0.002 A 
ATOM     10  C   UNL d   1      12.904  14.471  -4.909  0.00  0.00     0.000 A 
ENDROOT
BRANCH   1  11
ATOM     11  O   UNL d   1      14.306  15.069  -2.964  0.00  0.00    -0.259 OA
BRANCH  11  12
ATOM     12  C   UNL d   1      14.615  15.832  -2.897  0.00  0.00     0.378 C 
ATOM     13  N   UNL d   1      14.879  16.121  -2.157  0.00  0.00    -0.247 N 
ATOM     14  C   UNL d   1      15.187  16.890  -2.100  0.00  0.00     0.112 A 
ATOM     15  C   UNL d   1      14.830  15.637  -1.492  0.00  0.00     0.112 A 
ATOM     16  C   UNL d   1      15.448  17.170  -1.360  0.00  0.00     0.142 A 
ATOM     17  O   UNL d   1      15.398  16.677  -0.686  0.00  0.00    -0.300 OA
ATOM     18  C   UNL d   1      15.089  15.914  -0.759  0.00  0.00     0.142 A 
ATOM     19  O   UNL d   1      14.667  16.325  -3.560  0.00  0.00    -0.237 OA
ENDBRANCH  11  12
ENDBRANCH   1  11
BRANCH   4  20
ATOM     20  O   UNL d   1      13.978  12.102  -2.858  0.00  0.00    -0.259 OA
BRANCH  20  21
ATOM     21  C   UNL d   1      13.584  11.958  -2.155  0.00  0.00     0.378 C 
ATOM     22  N   UNL d   1      13.997  11.942  -1.438  0.00  0.00    -0.247 N 
ATOM     23  C   UNL d   1      13.582  11.795  -0.740  0.00  0.00     0.112 A 
ATOM     24  C   UNL d   1      14.804  12.071  -1.434  0.00  0.00     0.112 A 
ATOM     25  C   UNL d   1      13.994  11.779  -0.027  0.00  0.00     0.142 A 
ATOM     26  O   UNL d   1      14.809  11.908  -0.014  0.00  0.00    -0.300 OA
ATOM     27  C   UNL d   1      15.212  12.054  -0.717  0.00  0.00     0.142 A 
ATOM     28  O   UNL d   1      12.769  11.830  -2.172  0.00  0.00    -0.237 OA
ENDBRANCH  20  21
ENDBRANCH   4  20
TORSDOF 4
ENDMDL
