MODEL 1
REMARK VINA RESULT:      43.9      0.000      0.000
REMARK  8 active torsions:
REMARK  status: ('A' for Active; 'I' for Inactive)
REMARK       I    between atoms: C_2  and  N_1 
REMARK    1  A    between atoms: C_3  and  N_1 
REMARK    2  A    between atoms: C_4  and  C_2 
REMARK    3  A    between atoms: N_12  and  C_3 
REMARK    4  A    between atoms: O_19  and  C_5 
REMARK    5  A    between atoms: O_20  and  C_6 
REMARK    6  A    between atoms: O_21  and  C_7 
REMARK    7  A    between atoms: C_10  and  C_18 
REMARK    8  A    between atoms: C_18  and  N_12 
ROOT
ATOM      1  C   UNL d   1      45.541 -18.077  41.258  0.00  0.00     0.062 A 
ATOM      2  C   UNL d   1      46.271 -18.645  42.635  0.00  0.00     0.138 A 
ATOM      3  C   UNL d   1      46.036 -17.848  42.587  0.00  0.00     0.118 A 
ATOM      4  C   UNL d   1      46.134 -19.140  41.986  0.00  0.00     0.118 A 
ATOM      5  C   UNL d   1      45.774 -18.861  41.306  0.00  0.00     0.031 A 
ATOM      6  C   UNL d   1      45.670 -17.568  41.894  0.00  0.00     0.031 A 
ENDROOT
BRANCH   1   7
ATOM      7  C   UNL d   1      45.173 -17.796  40.559  0.00  0.00     0.281 C 
ATOM      8  N   UNL d   1      45.624 -17.729  39.862  0.00  0.00    -0.179 NA
ATOM      9  O   UNL d   1      44.384 -17.590  40.552  0.00  0.00    -0.265 OA
BRANCH   8  10
ATOM     10  C   UNL d   1      45.258 -17.450  39.170  0.00  0.00     0.224 C 
ATOM     11  S   UNL d   1      44.610 -17.808  38.807  0.00  0.00    -0.037 SA
BRANCH  10  12
ATOM     12  N   UNL d   1      45.583 -16.777  38.850  0.00  0.00    -0.214 NA
BRANCH  12  13
ATOM     13  C   UNL d   1      45.094 -16.197  38.527  0.00  0.00     0.126 C 
BRANCH  13  14
ATOM     14  C   UNL d   1      45.326 -15.771  37.865  0.00  0.00     0.119 A 
ATOM     15  O   UNL d   1      45.641 -14.989  37.836  0.00  0.00    -0.304 OA
ATOM     16  C   UNL d   1      45.787 -14.807  37.048  0.00  0.00     0.123 A 
ATOM     17  C   UNL d   1      45.576 -15.443  36.587  0.00  0.00     0.029 A 
ATOM     18  C   UNL d   1      45.286 -16.053  37.091  0.00  0.00     0.028 A 
ENDBRANCH  13  14
ENDBRANCH  12  13
ENDBRANCH  10  12
ENDBRANCH   8  10
ENDBRANCH   1   7
BRANCH   4  19
ATOM     19  O   UNL d   1      46.373 -19.942  42.039  0.00  0.00    -0.326 OA
ATOM     20  C   UNL d   1      46.645 -20.330  41.345  0.00  0.00     0.181 C 
ENDBRANCH   4  19
BRANCH   3  21
ATOM     21  O   UNL d   1      46.169 -17.331  43.240  0.00  0.00    -0.326 OA
ATOM     22  C   UNL d   1      45.564 -17.132  43.754  0.00  0.00     0.181 C 
ENDBRANCH   3  21
BRANCH   2  23
ATOM     23  O   UNL d   1      46.641 -18.940  43.327  0.00  0.00    -0.324 OA
ATOM     24  C   UNL d   1      46.484 -19.706  43.605  0.00  0.00     0.182 C 
ENDBRANCH   2  23
TORSDOF 8
ENDMDL
MODEL 2
REMARK VINA RESULT:      45.4      4.432      6.311
REMARK  8 active torsions:
REMARK  status: ('A' for Active; 'I' for Inactive)
REMARK       I    between atoms: C_2  and  N_1 
REMARK    1  A    between atoms: C_3  and  N_1 
REMARK    2  A    between atoms: C_4  and  C_2 
REMARK    3  A    between atoms: N_12  and  C_3 
REMARK    4  A    between atoms: O_19  and  C_5 
REMARK    5  A    between atoms: O_20  and  C_6 
REMARK    6  A    between atoms: O_21  and  C_7 
REMARK    7  A    between atoms: C_10  and  C_18 
REMARK    8  A    between atoms: C_18  and  N_12 
ROOT
ATOM      1  C   UNL d   1      44.902 -13.569  38.757  0.00  0.00     0.062 A 
ATOM      2  C   UNL d   1      45.193 -14.604  37.493  0.00  0.00     0.138 A 
ATOM      3  C   UNL d   1      45.772 -14.049  37.719  0.00  0.00     0.118 A 
ATOM      4  C   UNL d   1      44.479 -14.625  37.910  0.00  0.00     0.118 A 
ATOM      5  C   UNL d   1      44.334 -14.116  38.533  0.00  0.00     0.031 A 
ATOM      6  C   UNL d   1      45.621 -13.532  38.353  0.00  0.00     0.031 A 
ENDROOT
BRANCH   1   7
ATOM      7  C   UNL d   1      44.748 -13.049  39.396  0.00  0.00     0.281 C 
ATOM      8  N   UNL d   1      44.926 -13.296  40.171  0.00  0.00    -0.179 NA
ATOM      9  O   UNL d   1      44.429 -12.310  39.271  0.00  0.00    -0.265 OA
BRANCH   8  10
ATOM     10  C   UNL d   1      44.773 -12.781  40.804  0.00  0.00     0.224 C 
ATOM     11  S   UNL d   1      44.340 -12.082  40.745  0.00  0.00    -0.037 SA
BRANCH  10  12
ATOM     12  N   UNL d   1      45.085 -13.005  41.521  0.00  0.00    -0.214 NA
BRANCH  12  13
ATOM     13  C   UNL d   1      44.946 -12.549  42.192  0.00  0.00     0.126 C 
BRANCH  13  14
ATOM     14  C   UNL d   1      45.216 -12.789  42.929  0.00  0.00     0.119 A 
ATOM     15  O   UNL d   1      45.390 -12.307  43.599  0.00  0.00    -0.304 OA
ATOM     16  C   UNL d   1      45.642 -12.803  44.205  0.00  0.00     0.123 A 
ATOM     17  C   UNL d   1      45.631 -13.571  43.938  0.00  0.00     0.029 A 
ATOM     18  C   UNL d   1      45.365 -13.572  43.140  0.00  0.00     0.028 A 
ENDBRANCH  13  14
ENDBRANCH  12  13
ENDBRANCH  10  12
ENDBRANCH   8  10
ENDBRANCH   1   7
BRANCH   4  19
ATOM     19  O   UNL d   1      43.899 -15.186  37.678  0.00  0.00    -0.326 OA
ATOM     20  C   UNL d   1      43.123 -14.916  37.501  0.00  0.00     0.181 C 
ENDBRANCH   4  19
BRANCH   3  21
ATOM     21  O   UNL d   1      46.505 -14.015  37.304  0.00  0.00    -0.326 OA
ATOM     22  C   UNL d   1      46.645 -13.442  36.736  0.00  0.00     0.181 C 
ENDBRANCH   3  21
BRANCH   2  23
ATOM     23  O   UNL d   1      45.332 -15.130  36.855  0.00  0.00    -0.324 OA
ATOM     24  C   UNL d   1      45.552 -15.919  36.989  0.00  0.00     0.182 C 
ENDBRANCH   2  23
TORSDOF 8
ENDMDL
