MODEL 1
REMARK VINA RESULT:      12.5      0.000      0.000
REMARK  3 active torsions:
REMARK  status: ('A' for Active; 'I' for Inactive)
REMARK    1  A    between atoms: C_2  and  N_1 
REMARK    2  A    between atoms: C_3  and  N_1 
REMARK    3  A    between atoms: C_7  and  C_3 
ROOT
ATOM      1  N   UNL d   1      46.024 -17.259  44.243  0.00  0.00    -0.184 N 
ATOM      2  O   UNL d   1      46.039 -16.830  43.534  0.00  0.00    -0.080 OA
ENDROOT
BRANCH   1   3
ATOM      3  C   UNL d   1      46.215 -18.061  44.237  0.00  0.00     0.090 A 
ATOM      4  C   UNL d   1      46.343 -18.467  43.522  0.00  0.00     0.018 A 
ATOM      5  C   UNL d   1      46.280 -18.070  42.806  0.00  0.00     0.002 C 
ATOM      6  C   UNL d   1      46.533 -19.270  43.516  0.00  0.00     0.002 A 
ATOM      7  C   UNL d   1      46.604 -19.699  44.239  0.00  0.00     0.000 A 
ATOM      8  C   UNL d   1      46.470 -19.269  44.954  0.00  0.00     0.002 A 
ATOM      9  C   UNL d   1      46.280 -18.466  44.945  0.00  0.00     0.020 A 
ENDBRANCH   1   3
BRANCH   1  10
ATOM     10  C   UNL d   1      45.820 -16.885  44.941  0.00  0.00     0.108 C 
BRANCH  10  11
ATOM     11  C   UNL d   1      45.617 -16.081  44.941  0.00  0.00     0.023 A 
ATOM     12  C   UNL d   1      44.820 -15.841  44.955  0.00  0.00     0.022 A 
ATOM     13  C   UNL d   1      44.611 -15.050  44.955  0.00  0.00     0.099 A 
ATOM     14  N   UNL d   1      45.203 -14.474  44.940  0.00  0.00    -0.242 NA
ATOM     15  C   UNL d   1      46.009 -14.717  44.926  0.00  0.00     0.099 A 
ATOM     16  C   UNL d   1      46.207 -15.513  44.926  0.00  0.00     0.022 A 
ENDBRANCH  10  11
ENDBRANCH   1  10
TORSDOF 3
ENDMDL
MODEL 2
REMARK VINA RESULT:      13.3      7.973      8.466
REMARK  3 active torsions:
REMARK  status: ('A' for Active; 'I' for Inactive)
REMARK    1  A    between atoms: C_2  and  N_1 
REMARK    2  A    between atoms: C_3  and  N_1 
REMARK    3  A    between atoms: C_7  and  C_3 
ROOT
ATOM      1  N   UNL d   1      43.970 -15.723  36.923  0.00  0.00    -0.184 N 
ATOM      2  O   UNL d   1      44.250 -15.979  37.660  0.00  0.00    -0.080 OA
ENDROOT
BRANCH   1   3
ATOM      3  C   UNL d   1      43.163 -15.763  36.757  0.00  0.00     0.090 A 
ATOM      4  C   UNL d   1      42.813 -16.472  36.496  0.00  0.00     0.018 A 
ATOM      5  C   UNL d   1      43.271 -17.146  36.397  0.00  0.00     0.002 C 
ATOM      6  C   UNL d   1      42.006 -16.511  36.330  0.00  0.00     0.002 A 
ATOM      7  C   UNL d   1      41.515 -15.832  36.424  0.00  0.00     0.000 A 
ATOM      8  C   UNL d   1      41.889 -15.123  36.690  0.00  0.00     0.002 A 
ATOM      9  C   UNL d   1      42.698 -15.097  36.852  0.00  0.00     0.020 A 
ENDBRANCH   1   3
BRANCH   1  10
ATOM     10  C   UNL d   1      44.495 -15.434  36.366  0.00  0.00     0.108 C 
BRANCH  10  11
ATOM     11  C   UNL d   1      45.206 -15.080  36.605  0.00  0.00     0.023 A 
ATOM     12  C   UNL d   1      45.939 -15.426  36.419  0.00  0.00     0.022 A 
ATOM     13  C   UNL d   1      46.645 -15.083  36.651  0.00  0.00     0.099 A 
ATOM     14  N   UNL d   1      46.631 -14.377  37.080  0.00  0.00    -0.242 NA
ATOM     15  C   UNL d   1      45.889 -14.028  37.268  0.00  0.00     0.099 A 
ATOM     16  C   UNL d   1      45.188 -14.380  37.031  0.00  0.00     0.022 A 
ENDBRANCH  10  11
ENDBRANCH   1  10
TORSDOF 3
ENDMDL
MODEL 3
REMARK VINA RESULT:      13.7      2.468      4.682
REMARK  3 active torsions:
REMARK  status: ('A' for Active; 'I' for Inactive)
REMARK    1  A    between atoms: C_2  and  N_1 
REMARK    2  A    between atoms: C_3  and  N_1 
REMARK    3  A    between atoms: C_7  and  C_3 
ROOT
ATOM      1  N   UNL d   1      45.648 -13.339  44.461  0.00  0.00    -0.184 N 
ATOM      2  O   UNL d   1      46.439 -13.219  44.677  0.00  0.00    -0.080 OA
ENDROOT
BRANCH   1   3
ATOM      3  C   UNL d   1      45.335 -12.926  43.819  0.00  0.00     0.090 A 
ATOM      4  C   UNL d   1      45.774 -12.821  43.120  0.00  0.00     0.018 A 
ATOM      5  C   UNL d   1      46.531 -13.131  43.059  0.00  0.00     0.002 C 
ATOM      6  C   UNL d   1      45.460 -12.408  42.479  0.00  0.00     0.002 A 
ATOM      7  C   UNL d   1      44.684 -12.080  42.517  0.00  0.00     0.000 A 
ATOM      8  C   UNL d   1      44.254 -12.197  43.236  0.00  0.00     0.002 A 
ATOM      9  C   UNL d   1      44.581 -12.613  43.870  0.00  0.00     0.020 A 
ENDBRANCH   1   3
BRANCH   1  10
ATOM     10  C   UNL d   1      45.186 -13.865  44.883  0.00  0.00     0.108 C 
BRANCH  10  11
ATOM     11  C   UNL d   1      45.382 -14.670  44.906  0.00  0.00     0.023 A 
ATOM     12  C   UNL d   1      46.177 -14.915  44.931  0.00  0.00     0.022 A 
ATOM     13  C   UNL d   1      46.380 -15.707  44.955  0.00  0.00     0.099 A 
ATOM     14  N   UNL d   1      45.784 -16.279  44.953  0.00  0.00    -0.242 NA
ATOM     15  C   UNL d   1      44.980 -16.031  44.928  0.00  0.00     0.099 A 
ATOM     16  C   UNL d   1      44.788 -15.234  44.905  0.00  0.00     0.022 A 
ENDBRANCH  10  11
ENDBRANCH   1  10
TORSDOF 3
ENDMDL
MODEL 4
REMARK VINA RESULT:      15.4      1.052      1.696
REMARK  3 active torsions:
REMARK  status: ('A' for Active; 'I' for Inactive)
REMARK    1  A    between atoms: C_2  and  N_1 
REMARK    2  A    between atoms: C_3  and  N_1 
REMARK    3  A    between atoms: C_7  and  C_3 
ROOT
ATOM      1  N   UNL d   1      46.292 -18.167  43.681  0.00  0.00    -0.184 N 
ATOM      2  O   UNL d   1      46.457 -18.264  44.487  0.00  0.00    -0.080 OA
ENDROOT
BRANCH   1   3
ATOM      3  C   UNL d   1      46.408 -18.798  43.163  0.00  0.00     0.090 A 
ATOM      4  C   UNL d   1      46.480 -19.577  43.445  0.00  0.00     0.018 A 
ATOM      5  C   UNL d   1      46.436 -19.729  44.251  0.00  0.00     0.002 C 
ATOM      6  C   UNL d   1      46.595 -20.209  42.927  0.00  0.00     0.002 A 
ATOM      7  C   UNL d   1      46.644 -20.078  42.096  0.00  0.00     0.000 A 
ATOM      8  C   UNL d   1      46.568 -19.279  41.829  0.00  0.00     0.002 A 
ATOM      9  C   UNL d   1      46.453 -18.658  42.358  0.00  0.00     0.020 A 
ENDBRANCH   1   3
BRANCH   1  10
ATOM     10  C   UNL d   1      46.017 -17.447  43.405  0.00  0.00     0.108 C 
BRANCH  10  11
ATOM     11  C   UNL d   1      45.947 -16.801  43.920  0.00  0.00     0.023 A 
ATOM     12  C   UNL d   1      45.273 -16.707  44.399  0.00  0.00     0.022 A 
ATOM     13  C   UNL d   1      45.196 -16.072  44.909  0.00  0.00     0.099 A 
ATOM     14  N   UNL d   1      45.801 -15.511  44.952  0.00  0.00    -0.242 NA
ATOM     15  C   UNL d   1      46.483 -15.607  44.468  0.00  0.00     0.099 A 
ATOM     16  C   UNL d   1      46.549 -16.247  43.960  0.00  0.00     0.022 A 
ENDBRANCH  10  11
ENDBRANCH   1  10
TORSDOF 3
ENDMDL
