MODEL 1
REMARK VINA RESULT:      -7.7      0.000      0.000
REMARK  4 active torsions:
REMARK  status: ('A' for Active; 'I' for Inactive)
REMARK    1  A    between atoms: N_2  and  C_1 
REMARK       I    between atoms: C_6  and  N_2 
REMARK    2  A    between atoms: C_21  and  N_3 
REMARK    3  A    between atoms: C_8  and  C_6 
REMARK       I    between atoms: C_17  and  N_18 
REMARK    4  A    between atoms: N_18  and  C_19 
ROOT
ATOM      1  C   UNL d   1      52.596  35.150  53.819  0.00  0.00    -0.031 C 
ATOM      2  C   UNL d   1      52.907  35.436  54.528  0.00  0.00    -0.008 C 
ATOM      3  C   UNL d   1      52.285  34.865  53.111  0.00  0.00     0.133 C 
ENDROOT
BRANCH   3   4
ATOM      4  N   UNL d   1      51.913  34.127  53.083  0.00  0.00    -0.278 N 
ATOM      5  C   UNL d   1      51.103  33.988  53.110  0.00  0.00     0.183 A 
ATOM      6  S   UNL d   1      50.983  33.173  53.067  0.00  0.00    -0.048 SA
ATOM      7  C   UNL d   1      51.724  32.806  53.013  0.00  0.00     0.050 A 
ATOM      8  C   UNL d   1      51.946  32.013  52.956  0.00  0.00     0.027 A 
ATOM      9  C   UNL d   1      52.301  33.398  53.023  0.00  0.00     0.073 A 
ATOM     10  C   UNL d   1      52.744  31.812  52.910  0.00  0.00     0.085 A 
ATOM     11  C   UNL d   1      53.322  32.404  52.920  0.00  0.00     0.021 A 
ATOM     12  C   UNL d   1      53.100  33.197  52.977  0.00  0.00     0.020 A 
BRANCH   5  13
ATOM     13  N   UNL d   1      50.518  34.569  53.170  0.00  0.00    -0.183 NA
ATOM     14  C   UNL d   1      49.801  34.465  52.775  0.00  0.00     0.287 C 
ATOM     15  O   UNL d   1      49.673  33.786  52.326  0.00  0.00    -0.265 OA
BRANCH  14  16
ATOM     16  C   UNL d   1      49.211  35.042  52.830  0.00  0.00     0.088 A 
ATOM     17  S   UNL d   1      48.677  35.273  52.221  0.00  0.00    -0.075 SA
ATOM     18  C   UNL d   1      48.187  35.863  52.519  0.00  0.00     0.064 A 
ATOM     19 BR   UNL d   1      47.571  36.259  52.113  0.00  0.00    -0.042 Br
ATOM     20  C   UNL d   1      48.406  36.004  53.304  0.00  0.00     0.014 A 
ATOM     21  C   UNL d   1      49.030  35.502  53.490  0.00  0.00     0.012 A 
ENDBRANCH  14  16
ENDBRANCH   5  13
BRANCH  10  22
ATOM     22  N   UNL d   1      52.973  31.008  52.852  0.00  0.00    -0.208 NA
ATOM     23  C   UNL d   1      53.367  30.652  53.473  0.00  0.00     0.279 C 
ATOM     24  O   UNL d   1      53.590  29.861  53.414  0.00  0.00    -0.265 OA
ATOM     25  C   UNL d   1      53.545  31.074  54.162  0.00  0.00     0.068 C 
ENDBRANCH  10  22
ENDBRANCH   3   4
TORSDOF 4
ENDMDL
MODEL 2
REMARK VINA RESULT:      -7.2      2.494      5.073
REMARK  4 active torsions:
REMARK  status: ('A' for Active; 'I' for Inactive)
REMARK    1  A    between atoms: N_2  and  C_1 
REMARK       I    between atoms: C_6  and  N_2 
REMARK    2  A    between atoms: C_21  and  N_3 
REMARK    3  A    between atoms: C_8  and  C_6 
REMARK       I    between atoms: C_17  and  N_18 
REMARK    4  A    between atoms: N_18  and  C_19 
ROOT
ATOM      1  C   UNL d   1      53.893  33.436  54.326  0.00  0.00    -0.031 C 
ATOM      2  C   UNL d   1      54.075  33.618  55.109  0.00  0.00    -0.008 C 
ATOM      3  C   UNL d   1      53.712  33.255  53.542  0.00  0.00     0.133 C 
ENDROOT
BRANCH   3   4
ATOM      4  N   UNL d   1      52.946  33.020  53.332  0.00  0.00    -0.278 N 
ATOM      5  C   UNL d   1      52.643  32.258  53.371  0.00  0.00     0.183 A 
ATOM      6  S   UNL d   1      51.861  32.281  53.108  0.00  0.00    -0.048 SA
ATOM      7  C   UNL d   1      51.681  33.065  52.905  0.00  0.00     0.050 A 
ATOM      8  C   UNL d   1      50.995  33.417  52.613  0.00  0.00     0.027 A 
ATOM      9  C   UNL d   1      52.355  33.523  53.044  0.00  0.00     0.073 A 
ATOM     10  C   UNL d   1      50.981  34.227  52.460  0.00  0.00     0.085 A 
ATOM     11  C   UNL d   1      51.655  34.686  52.600  0.00  0.00     0.021 A 
ATOM     12  C   UNL d   1      52.342  34.334  52.891  0.00  0.00     0.020 A 
BRANCH   5  13
ATOM     13  N   UNL d   1      53.055  31.589  53.629  0.00  0.00    -0.183 NA
ATOM     14  C   UNL d   1      52.779  30.839  53.427  0.00  0.00     0.287 C 
ATOM     15  O   UNL d   1      52.097  30.761  52.970  0.00  0.00    -0.265 OA
BRANCH  14  16
ATOM     16  C   UNL d   1      53.185  30.165  53.682  0.00  0.00     0.088 A 
ATOM     17  S   UNL d   1      52.989  29.682  54.343  0.00  0.00    -0.075 SA
ATOM     18  C   UNL d   1      53.542  29.075  54.390  0.00  0.00     0.064 A 
ATOM     19 BR   UNL d   1      53.570  28.460  54.959  0.00  0.00    -0.042 Br
ATOM     20  C   UNL d   1      54.081  29.171  53.770  0.00  0.00     0.014 A 
ATOM     21  C   UNL d   1      53.859  29.837  53.340  0.00  0.00     0.012 A 
ENDBRANCH  14  16
ENDBRANCH   5  13
BRANCH  10  22
ATOM     22  N   UNL d   1      50.285  34.588  52.164  0.00  0.00    -0.208 NA
ATOM     23  C   UNL d   1      49.734  34.894  52.683  0.00  0.00     0.279 C 
ATOM     24  O   UNL d   1      49.050  35.248  52.389  0.00  0.00    -0.265 OA
ATOM     25  C   UNL d   1      49.852  34.855  53.501  0.00  0.00     0.068 C 
ENDBRANCH  10  22
ENDBRANCH   3   4
TORSDOF 4
ENDMDL
MODEL 3
REMARK VINA RESULT:      -7.0      2.003      2.787
REMARK  4 active torsions:
REMARK  status: ('A' for Active; 'I' for Inactive)
REMARK    1  A    between atoms: N_2  and  C_1 
REMARK       I    between atoms: C_6  and  N_2 
REMARK    2  A    between atoms: C_21  and  N_3 
REMARK    3  A    between atoms: C_8  and  C_6 
REMARK       I    between atoms: C_17  and  N_18 
REMARK    4  A    between atoms: N_18  and  C_19 
ROOT
ATOM      1  C   UNL d   1      52.279  31.313  52.905  0.00  0.00    -0.031 C 
ATOM      2  C   UNL d   1      52.065  30.563  53.173  0.00  0.00    -0.008 C 
ATOM      3  C   UNL d   1      52.494  32.062  52.636  0.00  0.00     0.133 C 
ENDROOT
BRANCH   3   4
ATOM      4  N   UNL d   1      52.553  32.696  53.165  0.00  0.00    -0.278 N 
ATOM      5  C   UNL d   1      52.039  33.335  53.218  0.00  0.00     0.183 A 
ATOM      6  S   UNL d   1      52.311  33.831  53.819  0.00  0.00    -0.048 SA
ATOM      7  C   UNL d   1      52.998  33.495  54.139  0.00  0.00     0.050 A 
ATOM      8  C   UNL d   1      53.503  33.739  54.744  0.00  0.00     0.027 A 
ATOM      9  C   UNL d   1      53.148  32.791  53.733  0.00  0.00     0.073 A 
ATOM     10  C   UNL d   1      54.158  33.279  54.944  0.00  0.00     0.085 A 
ATOM     11  C   UNL d   1      54.308  32.574  54.537  0.00  0.00     0.021 A 
ATOM     12  C   UNL d   1      53.803  32.330  53.932  0.00  0.00     0.020 A 
BRANCH   5  13
ATOM     13  N   UNL d   1      51.369  33.454  52.748  0.00  0.00    -0.183 NA
ATOM     14  C   UNL d   1      51.001  34.192  52.744  0.00  0.00     0.287 C 
ATOM     15  O   UNL d   1      51.303  34.805  53.207  0.00  0.00    -0.265 OA
BRANCH  14  16
ATOM     16  C   UNL d   1      50.331  34.318  52.277  0.00  0.00     0.088 A 
ATOM     17  S   UNL d   1      49.599  34.651  52.530  0.00  0.00    -0.075 SA
ATOM     18  C   UNL d   1      49.091  34.672  51.883  0.00  0.00     0.064 A 
ATOM     19 BR   UNL d   1      48.303  34.957  51.871  0.00  0.00    -0.042 Br
ATOM     20  C   UNL d   1      49.492  34.359  51.232  0.00  0.00     0.014 A 
ATOM     21  C   UNL d   1      50.248  34.144  51.476  0.00  0.00     0.012 A 
ENDBRANCH  14  16
ENDBRANCH   5  13
BRANCH  10  22
ATOM     22  N   UNL d   1      54.672  33.524  55.558  0.00  0.00    -0.208 NA
ATOM     23  C   UNL d   1      55.376  33.895  55.374  0.00  0.00     0.279 C 
ATOM     24  O   UNL d   1      55.881  34.135  55.981  0.00  0.00    -0.265 OA
ATOM     25  C   UNL d   1      55.592  34.033  54.588  0.00  0.00     0.068 C 
ENDBRANCH  10  22
ENDBRANCH   3   4
TORSDOF 4
ENDMDL
MODEL 4
REMARK VINA RESULT:      -7.0      1.473      2.116
REMARK  4 active torsions:
REMARK  status: ('A' for Active; 'I' for Inactive)
REMARK    1  A    between atoms: N_2  and  C_1 
REMARK       I    between atoms: C_6  and  N_2 
REMARK    2  A    between atoms: C_21  and  N_3 
REMARK    3  A    between atoms: C_8  and  C_6 
REMARK       I    between atoms: C_17  and  N_18 
REMARK    4  A    between atoms: N_18  and  C_19 
ROOT
ATOM      1  C   UNL d   1      53.838  33.346  54.013  0.00  0.00    -0.031 C 
ATOM      2  C   UNL d   1      54.039  33.682  54.739  0.00  0.00    -0.008 C 
ATOM      3  C   UNL d   1      53.637  33.011  53.287  0.00  0.00     0.133 C 
ENDROOT
BRANCH   3   4
ATOM      4  N   UNL d   1      53.118  32.367  53.251  0.00  0.00    -0.278 N 
ATOM      5  C   UNL d   1      52.321  32.395  53.055  0.00  0.00     0.183 A 
ATOM      6  S   UNL d   1      52.023  31.626  53.090  0.00  0.00    -0.048 SA
ATOM      7  C   UNL d   1      52.642  31.121  53.310  0.00  0.00     0.050 A 
ATOM      8  C   UNL d   1      52.673  30.305  53.431  0.00  0.00     0.027 A 
ATOM      9  C   UNL d   1      53.322  31.580  53.410  0.00  0.00     0.073 A 
ATOM     10  C   UNL d   1      53.383  29.949  53.651  0.00  0.00     0.085 A 
ATOM     11  C   UNL d   1      54.063  30.409  53.751  0.00  0.00     0.021 A 
ATOM     12  C   UNL d   1      54.032  31.224  53.631  0.00  0.00     0.020 A 
BRANCH   5  13
ATOM     13  N   UNL d   1      51.897  33.078  52.859  0.00  0.00    -0.183 NA
ATOM     14  C   UNL d   1      51.078  33.088  52.949  0.00  0.00     0.287 C 
ATOM     15  O   UNL d   1      50.687  32.419  53.234  0.00  0.00    -0.265 OA
BRANCH  14  16
ATOM     16  C   UNL d   1      50.648  33.767  52.754  0.00  0.00     0.088 A 
ATOM     17  S   UNL d   1      50.094  34.168  53.246  0.00  0.00    -0.075 SA
ATOM     18  C   UNL d   1      49.800  34.813  52.829  0.00  0.00     0.064 A 
ATOM     19 BR   UNL d   1      49.236  35.371  53.096  0.00  0.00    -0.042 Br
ATOM     20  C   UNL d   1      50.161  34.822  52.085  0.00  0.00     0.014 A 
ATOM     21  C   UNL d   1      50.677  34.182  52.043  0.00  0.00     0.012 A 
ENDBRANCH  14  16
ENDBRANCH   5  13
BRANCH  10  22
ATOM     22  N   UNL d   1      53.418  29.121  53.775  0.00  0.00    -0.208 NA
ATOM     23  C   UNL d   1      53.371  28.821  54.534  0.00  0.00     0.279 C 
ATOM     24  O   UNL d   1      53.406  28.006  54.652  0.00  0.00    -0.265 OA
ATOM     25  C   UNL d   1      53.290  29.323  55.186  0.00  0.00     0.068 C 
ENDBRANCH  10  22
ENDBRANCH   3   4
TORSDOF 4
ENDMDL
MODEL 5
REMARK VINA RESULT:      -5.1      2.617      3.538
REMARK  4 active torsions:
REMARK  status: ('A' for Active; 'I' for Inactive)
REMARK    1  A    between atoms: N_2  and  C_1 
REMARK       I    between atoms: C_6  and  N_2 
REMARK    2  A    between atoms: C_21  and  N_3 
REMARK    3  A    between atoms: C_8  and  C_6 
REMARK       I    between atoms: C_17  and  N_18 
REMARK    4  A    between atoms: N_18  and  C_19 
ROOT
ATOM      1  C   UNL d   1      51.292  32.666  52.828  0.00  0.00    -0.031 C 
ATOM      2  C   UNL d   1      50.544  32.878  53.104  0.00  0.00    -0.008 C 
ATOM      3  C   UNL d   1      52.039  32.455  52.550  0.00  0.00     0.133 C 
ENDROOT
BRANCH   3   4
ATOM      4  N   UNL d   1      52.619  32.183  53.074  0.00  0.00    -0.278 N 
ATOM      5  C   UNL d   1      53.099  32.648  53.553  0.00  0.00     0.183 A 
ATOM      6  S   UNL d   1      53.594  32.146  53.981  0.00  0.00    -0.048 SA
ATOM      7  C   UNL d   1      53.418  31.365  53.764  0.00  0.00     0.050 A 
ATOM      8  C   UNL d   1      53.729  30.640  54.006  0.00  0.00     0.027 A 
ATOM      9  C   UNL d   1      52.813  31.388  53.201  0.00  0.00     0.073 A 
ATOM     10  C   UNL d   1      53.436  29.939  53.686  0.00  0.00     0.085 A 
ATOM     11  C   UNL d   1      52.831  29.963  53.122  0.00  0.00     0.021 A 
ATOM     12  C   UNL d   1      52.520  30.687  52.881  0.00  0.00     0.020 A 
BRANCH   5  13
ATOM     13  N   UNL d   1      53.083  33.474  53.593  0.00  0.00    -0.183 NA
ATOM     14  C   UNL d   1      53.437  33.856  54.232  0.00  0.00     0.287 C 
ATOM     15  O   UNL d   1      53.804  33.414  54.824  0.00  0.00    -0.265 OA
BRANCH  14  16
ATOM     16  C   UNL d   1      53.425  34.682  54.279  0.00  0.00     0.088 A 
ATOM     17  S   UNL d   1      53.067  35.144  54.886  0.00  0.00    -0.075 SA
ATOM     18  C   UNL d   1      53.189  35.938  54.709  0.00  0.00     0.064 A 
ATOM     19 BR   UNL d   1      52.933  36.599  55.155  0.00  0.00    -0.042 Br
ATOM     20  C   UNL d   1      53.617  35.980  54.003  0.00  0.00     0.014 A 
ATOM     21  C   UNL d   1      53.759  35.211  53.744  0.00  0.00     0.012 A 
ENDBRANCH  14  16
ENDBRANCH   5  13
BRANCH  10  22
ATOM     22  N   UNL d   1      53.751  29.202  53.929  0.00  0.00    -0.208 NA
ATOM     23  C   UNL d   1      53.436  28.821  54.580  0.00  0.00     0.279 C 
ATOM     24  O   UNL d   1      53.747  28.095  54.818  0.00  0.00    -0.265 OA
ATOM     25  C   UNL d   1      52.808  29.153  55.005  0.00  0.00     0.068 C 
ENDBRANCH  10  22
ENDBRANCH   3   4
TORSDOF 4
ENDMDL
