MODEL 1
REMARK VINA RESULT:      -4.6      0.000      0.000
REMARK  3 active torsions:
REMARK  status: ('A' for Active; 'I' for Inactive)
REMARK    1  A    between atoms: C_5  and  C_1 
REMARK    2  A    between atoms: N_6  and  C_2 
REMARK       I    between atoms: C_8  and  N_6 
REMARK    3  A    between atoms: C_9  and  C_8 
ROOT
ATOM      1  C   UNL d   1      56.367  -0.360  32.522  0.00  0.00     0.231 A 
ATOM      2  C   UNL d   1      57.007  -0.484  31.355  0.00  0.00     0.297 A 
ATOM      3  O   UNL d   1      56.654   0.058  31.867  0.00  0.00    -0.252 OA
ATOM      4  N   UNL d   1      56.544  -1.152  32.407  0.00  0.00    -0.117 NA
ATOM      5  N   UNL d   1      56.938  -1.229  31.688  0.00  0.00    -0.101 NA
ENDROOT
BRANCH   2   6
ATOM      6  N   UNL d   1      57.363  -0.298  30.635  0.00  0.00    -0.165 NA
ATOM      7  C   UNL d   1      58.119   0.011  30.617  0.00  0.00     0.282 C 
ATOM      8  O   UNL d   1      58.537   0.143  31.320  0.00  0.00    -0.265 OA
BRANCH   7   9
ATOM      9  C   UNL d   1      58.475   0.198  29.897  0.00  0.00     0.060 A 
ATOM     10  C   UNL d   1      59.278   0.092  29.796  0.00  0.00     0.034 A 
ATOM     11  C   UNL d   1      59.631   0.279  29.075  0.00  0.00     0.140 A 
ATOM     12  F   UNL d   1      60.452   0.173  28.963  0.00  0.00    -0.204 F 
ATOM     13  C   UNL d   1      59.173   0.573  28.455  0.00  0.00     0.030 A 
ATOM     14  C   UNL d   1      58.361   0.678  28.564  0.00  0.00     0.003 A 
ATOM     15  C   UNL d   1      58.012   0.489  29.289  0.00  0.00     0.005 A 
ENDBRANCH   7   9
ENDBRANCH   2   6
BRANCH   1  16
ATOM     16  C   UNL d   1      55.972  -0.029  33.170  0.00  0.00     0.168 A 
ATOM     17  O   UNL d   1      55.151  -0.043  33.198  0.00  0.00    -0.297 OA
ATOM     18  C   UNL d   1      54.762   0.284  33.837  0.00  0.00     0.149 A 
ATOM     19  C   UNL d   1      55.187   0.625  34.450  0.00  0.00     0.149 A 
ATOM     20  O   UNL d   1      56.008   0.645  34.434  0.00  0.00    -0.299 OA
ATOM     21  C   UNL d   1      56.400   0.318  33.793  0.00  0.00     0.151 A 
ENDBRANCH   1  16
TORSDOF 3
ENDMDL
MODEL 2
REMARK VINA RESULT:      -3.7      1.113      1.166
REMARK  3 active torsions:
REMARK  status: ('A' for Active; 'I' for Inactive)
REMARK    1  A    between atoms: C_5  and  C_1 
REMARK    2  A    between atoms: N_6  and  C_2 
REMARK       I    between atoms: C_8  and  N_6 
REMARK    3  A    between atoms: C_9  and  C_8 
ROOT
ATOM      1  C   UNL d   1      56.714   0.604  33.179  0.00  0.00     0.231 A 
ATOM      2  C   UNL d   1      57.512   0.610  32.107  0.00  0.00     0.297 A 
ATOM      3  O   UNL d   1      56.725   0.650  32.352  0.00  0.00    -0.252 OA
ATOM      4  N   UNL d   1      57.490   0.537  33.435  0.00  0.00    -0.117 NA
ATOM      5  N   UNL d   1      57.982   0.541  32.774  0.00  0.00    -0.101 NA
ENDROOT
BRANCH   2   6
ATOM      6  N   UNL d   1      57.770   0.637  31.324  0.00  0.00    -0.165 NA
ATOM      7  C   UNL d   1      57.800  -0.045  30.877  0.00  0.00     0.282 C 
ATOM      8  O   UNL d   1      57.573  -0.772  31.202  0.00  0.00    -0.265 OA
BRANCH   7   9
ATOM      9  C   UNL d   1      58.058  -0.018  30.094  0.00  0.00     0.060 A 
ATOM     10  C   UNL d   1      58.469  -0.646  29.773  0.00  0.00     0.034 A 
ATOM     11  C   UNL d   1      58.724  -0.616  28.991  0.00  0.00     0.140 A 
ATOM     12  F   UNL d   1      59.146  -1.255  28.656  0.00  0.00    -0.204 F 
ATOM     13  C   UNL d   1      58.566   0.049  28.530  0.00  0.00     0.030 A 
ATOM     14  C   UNL d   1      58.149   0.682  28.860  0.00  0.00     0.003 A 
ATOM     15  C   UNL d   1      57.895   0.647  29.646  0.00  0.00     0.005 A 
ENDBRANCH   7   9
ENDBRANCH   2   6
BRANCH   1  16
ATOM     16  C   UNL d   1      56.035   0.623  33.653  0.00  0.00     0.168 A 
ATOM     17  O   UNL d   1      55.293   0.663  33.301  0.00  0.00    -0.297 OA
ATOM     18  C   UNL d   1      54.625   0.682  33.768  0.00  0.00     0.149 A 
ATOM     19  C   UNL d   1      54.689   0.662  34.586  0.00  0.00     0.149 A 
ATOM     20  O   UNL d   1      55.425   0.622  34.950  0.00  0.00    -0.299 OA
ATOM     21  C   UNL d   1      56.098   0.603  34.481  0.00  0.00     0.151 A 
ENDBRANCH   1  16
TORSDOF 3
ENDMDL
MODEL 3
REMARK VINA RESULT:      -2.2      9.491      9.851
REMARK  3 active torsions:
REMARK  status: ('A' for Active; 'I' for Inactive)
REMARK    1  A    between atoms: C_5  and  C_1 
REMARK    2  A    between atoms: N_6  and  C_2 
REMARK       I    between atoms: C_8  and  N_6 
REMARK    3  A    between atoms: C_9  and  C_8 
ROOT
ATOM      1  C   UNL d   1      59.332  -9.129  34.370  0.00  0.00     0.231 A 
ATOM      2  C   UNL d   1      58.824  -9.554  33.209  0.00  0.00     0.297 A 
ATOM      3  O   UNL d   1      59.443  -9.127  33.549  0.00  0.00    -0.252 OA
ATOM      4  N   UNL d   1      58.648  -9.554  34.527  0.00  0.00    -0.117 NA
ATOM      5  N   UNL d   1      58.335  -9.816  33.811  0.00  0.00    -0.101 NA
ENDROOT
BRANCH   2   6
ATOM      6  N   UNL d   1      58.724  -9.687  32.401  0.00  0.00    -0.165 NA
ATOM      7  C   UNL d   1      58.055  -9.418  32.019  0.00  0.00     0.282 C 
ATOM      8  O   UNL d   1      57.468  -9.007  32.435  0.00  0.00    -0.265 OA
BRANCH   7   9
ATOM      9  C   UNL d   1      57.955  -9.551  31.211  0.00  0.00     0.060 A 
ATOM     10  C   UNL d   1      58.601  -9.558  30.712  0.00  0.00     0.034 A 
ATOM     11  C   UNL d   1      58.497  -9.691  29.906  0.00  0.00     0.140 A 
ATOM     12  F   UNL d   1      59.153  -9.700  29.388  0.00  0.00    -0.204 F 
ATOM     13  C   UNL d   1      57.741  -9.818  29.602  0.00  0.00     0.030 A 
ATOM     14  C   UNL d   1      57.091  -9.810  30.112  0.00  0.00     0.003 A 
ATOM     15  C   UNL d   1      57.201  -9.675  30.921  0.00  0.00     0.005 A 
ENDBRANCH   7   9
ENDBRANCH   2   6
BRANCH   1  16
ATOM     16  C   UNL d   1      59.827  -8.763  34.924  0.00  0.00     0.168 A 
ATOM     17  O   UNL d   1      59.732  -7.964  35.090  0.00  0.00    -0.297 OA
ATOM     18  C   UNL d   1      60.220  -7.604  35.636  0.00  0.00     0.149 A 
ATOM     19  C   UNL d   1      60.804  -8.035  36.019  0.00  0.00     0.149 A 
ATOM     20  O   UNL d   1      60.909  -8.835  35.861  0.00  0.00    -0.299 OA
ATOM     21  C   UNL d   1      60.419  -9.197  35.313  0.00  0.00     0.151 A 
ENDBRANCH   1  16
TORSDOF 3
ENDMDL
