MODEL 1
REMARK VINA RESULT:      59.8      0.000      0.000
REMARK  2 active torsions:
REMARK  status: ('A' for Active; 'I' for Inactive)
REMARK    1  A    between atoms: N_10  and  C_3 
REMARK    2  A    between atoms: C_12  and  C_5 
ROOT
ATOM      1  N   UNL d   1      14.098  14.152  -2.875  0.00  0.00    -0.196 N 
ATOM      2  C   UNL d   1      14.170  13.525  -2.335  0.00  0.00     0.167 A 
ATOM      3  C   UNL d   1      13.736  14.016  -3.599  0.00  0.00     0.152 A 
ATOM      4  N   UNL d   1      14.741  15.008  -1.958  0.00  0.00    -0.163 NA
ATOM      5  C   UNL d   1      14.523  13.639  -1.616  0.00  0.00     0.055 A 
ATOM      6  N   UNL d   1      13.878  12.777  -2.533  0.00  0.00    -0.227 NA
ATOM      7  C   UNL d   1      13.448  13.278  -3.796  0.00  0.00     0.052 A 
ATOM      8  C   UNL d   1      14.813  14.385  -1.422  0.00  0.00     0.104 A 
ATOM      9  C   UNL d   1      13.519  12.655  -3.260  0.00  0.00     0.086 A 
ATOM     10  C   UNL d   1      13.086  13.162  -4.533  0.00  0.00     0.004 A 
ATOM     11  C   UNL d   1      15.167  14.511  -0.709  0.00  0.00     0.023 C 
ATOM     12  C   UNL d   1      13.229  11.909  -3.454  0.00  0.00     0.019 A 
ATOM     13  C   UNL d   1      12.793  12.403  -4.726  0.00  0.00     0.000 A 
ATOM     14  C   UNL d   1      12.864  11.780  -4.190  0.00  0.00     0.002 A 
ENDROOT
BRANCH   3  15
ATOM     15  N   UNL d   1      13.662  14.650  -4.150  0.00  0.00    -0.286 N 
ATOM     16  C   UNL d   1      14.351  15.009  -4.465  0.00  0.00     0.101 A 
ATOM     17  C   UNL d   1      14.276  15.649  -5.021  0.00  0.00     0.100 A 
ATOM     18  N   UNL d   1      13.518  15.920  -5.252  0.00  0.00    -0.299 N 
ATOM     19  C   UNL d   1      12.824  15.560  -4.936  0.00  0.00     0.100 A 
ATOM     20  C   UNL d   1      13.452  16.558  -5.806  0.00  0.00     0.100 C 
ATOM     21  C   UNL d   1      12.890  14.920  -4.380  0.00  0.00     0.101 A 
ENDBRANCH   3  15
BRANCH   5  22
ATOM     22  C   UNL d   1      14.594  13.016  -1.080  0.00  0.00     0.004 A 
ATOM     23  C   UNL d   1      15.274  12.568  -1.075  0.00  0.00     0.000 A 
ATOM     24  C   UNL d   1      15.345  11.945  -0.539  0.00  0.00     0.000 A 
ATOM     25  C   UNL d   1      14.735  11.780  -0.016  0.00  0.00     0.000 A 
ATOM     26  C   UNL d   1      14.054  12.237  -0.029  0.00  0.00     0.000 A 
ATOM     27  C   UNL d   1      13.983  12.860  -0.565  0.00  0.00     0.000 A 
ENDBRANCH   5  22
TORSDOF 2
ENDMDL
MODEL 2
REMARK VINA RESULT:      60.9      0.973      3.732
REMARK  2 active torsions:
REMARK  status: ('A' for Active; 'I' for Inactive)
REMARK    1  A    between atoms: N_10  and  C_3 
REMARK    2  A    between atoms: C_12  and  C_5 
ROOT
ATOM      1  N   UNL d   1      14.259  14.346  -2.493  0.00  0.00    -0.196 N 
ATOM      2  C   UNL d   1      13.963  13.681  -2.892  0.00  0.00     0.167 A 
ATOM      3  C   UNL d   1      14.577  14.251  -1.742  0.00  0.00     0.152 A 
ATOM      4  N   UNL d   1      13.912  15.154  -3.593  0.00  0.00    -0.163 NA
ATOM      5  C   UNL d   1      13.646  13.752  -3.632  0.00  0.00     0.055 A 
ATOM      6  N   UNL d   1      13.993  12.936  -2.531  0.00  0.00    -0.227 NA
ATOM      7  C   UNL d   1      14.608  13.519  -1.383  0.00  0.00     0.052 A 
ATOM      8  C   UNL d   1      13.618  14.493  -3.990  0.00  0.00     0.104 A 
ATOM      9  C   UNL d   1      14.314  12.858  -1.780  0.00  0.00     0.086 A 
ATOM     10  C   UNL d   1      14.933  13.446  -0.625  0.00  0.00     0.004 A 
ATOM     11  C   UNL d   1      13.304  14.578  -4.728  0.00  0.00     0.023 C 
ATOM     12  C   UNL d   1      14.342  12.116  -1.423  0.00  0.00     0.019 A 
ATOM     13  C   UNL d   1      14.960  12.691  -0.265  0.00  0.00     0.000 A 
ATOM     14  C   UNL d   1      14.666  12.030  -0.662  0.00  0.00     0.002 A 
ENDROOT
BRANCH   3  15
ATOM     15  N   UNL d   1      14.879  14.924  -1.333  0.00  0.00    -0.286 N 
ATOM     16  C   UNL d   1      15.163  14.841  -0.548  0.00  0.00     0.101 A 
ATOM     17  C   UNL d   1      15.467  15.521  -0.136  0.00  0.00     0.100 A 
ATOM     18  N   UNL d   1      15.483  16.269  -0.511  0.00  0.00    -0.299 N 
ATOM     19  C   UNL d   1      15.197  16.355  -1.299  0.00  0.00     0.100 A 
ATOM     20  C   UNL d   1      15.787  16.941  -0.094  0.00  0.00     0.100 C 
ATOM     21  C   UNL d   1      14.892  15.681  -1.719  0.00  0.00     0.101 A 
ENDBRANCH   3  15
BRANCH   5  22
ATOM     22  C   UNL d   1      13.352  13.091  -4.029  0.00  0.00     0.004 A 
ATOM     23  C   UNL d   1      13.071  12.459  -3.600  0.00  0.00     0.000 A 
ATOM     24  C   UNL d   1      12.777  11.798  -3.997  0.00  0.00     0.000 A 
ATOM     25  C   UNL d   1      12.769  11.779  -4.816  0.00  0.00     0.000 A 
ATOM     26  C   UNL d   1      13.054  12.421  -5.240  0.00  0.00     0.000 A 
ATOM     27  C   UNL d   1      13.348  13.082  -4.843  0.00  0.00     0.000 A 
ENDBRANCH   5  22
TORSDOF 2
ENDMDL
