MODEL 1
REMARK VINA RESULT:      -3.6      0.000      0.000
REMARK  5 active torsions:
REMARK  status: ('A' for Active; 'I' for Inactive)
REMARK    1  A    between atoms: N_4  and  C_2 
REMARK    2  A    between atoms: S_8  and  C_3 
REMARK    3  A    between atoms: C_10  and  S_8 
REMARK    4  A    between atoms: C_9  and  C_10 
REMARK    5  A    between atoms: C_12  and  C_9 
ROOT
ATOM      1  N   UNL d   1      32.691  18.469 -22.841  0.00  0.00    -0.203 NA
ATOM      2  C   UNL d   1      32.517  18.122 -23.576  0.00  0.00     0.152 A 
ATOM      3  C   UNL d   1      33.053  19.195 -22.815  0.00  0.00     0.196 A 
ATOM      4  C   UNL d   1      32.694  18.481 -24.250  0.00  0.00     0.057 A 
ATOM      5  N   UNL d   1      33.240  19.573 -23.523  0.00  0.00    -0.221 NA
ATOM      6  C   UNL d   1      33.065  19.226 -24.258  0.00  0.00     0.087 A 
ATOM      7  C   UNL d   1      33.241  19.581 -24.991  0.00  0.00     0.021 C 
ENDROOT
BRANCH   3   8
ATOM      8  S   UNL d   1      33.240  19.565 -22.111  0.00  0.00    -0.045 SA
BRANCH   8   9
ATOM      9  C   UNL d   1      32.961  20.330 -21.979  0.00  0.00     0.080 C 
BRANCH   9  10
ATOM     10  C   UNL d   1      32.985  20.690 -21.222  0.00  0.00     0.202 C 
ATOM     11  O   UNL d   1      33.240  20.288 -20.557  0.00  0.00    -0.286 OA
BRANCH  10  12
ATOM     12  C   UNL d   1      32.735  21.466 -21.205  0.00  0.00     0.040 A 
ATOM     13  C   UNL d   1      33.199  22.052 -21.617  0.00  0.00     0.003 A 
ATOM     14  C   UNL d   1      32.981  22.810 -21.617  0.00  0.00     0.000 A 
ATOM     15  C   UNL d   1      32.301  23.056 -21.221  0.00  0.00     0.000 A 
ATOM     16  C   UNL d   1      31.854  22.505 -20.827  0.00  0.00     0.000 A 
ATOM     17  C   UNL d   1      32.055  21.712 -20.808  0.00  0.00     0.003 A 
ENDBRANCH  10  12
ENDBRANCH   9  10
ENDBRANCH   8   9
ENDBRANCH   3   8
BRANCH   2  18
ATOM     18  N   UNL d   1      32.140  17.367 -23.575  0.00  0.00    -0.285 N 
ATOM     19  C   UNL d   1      31.366  17.303 -23.682  0.00  0.00     0.108 A 
ATOM     20  C   UNL d   1      30.975  16.561 -23.683  0.00  0.00     0.142 A 
ATOM     21  O   UNL d   1      31.467  15.884 -23.562  0.00  0.00    -0.300 OA
ATOM     22  C   UNL d   1      32.238  15.989 -23.459  0.00  0.00     0.142 A 
ATOM     23  C   UNL d   1      32.618  16.696 -23.456  0.00  0.00     0.108 A 
ENDBRANCH   2  18
TORSDOF 5
ENDMDL
MODEL 2
REMARK VINA RESULT:      -2.6      1.090      4.762
REMARK  5 active torsions:
REMARK  status: ('A' for Active; 'I' for Inactive)
REMARK    1  A    between atoms: N_4  and  C_2 
REMARK    2  A    between atoms: S_8  and  C_3 
REMARK    3  A    between atoms: C_10  and  S_8 
REMARK    4  A    between atoms: C_9  and  C_10 
REMARK    5  A    between atoms: C_12  and  C_9 
ROOT
ATOM      1  N   UNL d   1      32.897  19.073 -22.878  0.00  0.00    -0.203 NA
ATOM      2  C   UNL d   1      33.063  19.885 -22.940  0.00  0.00     0.152 A 
ATOM      3  C   UNL d   1      32.843  18.621 -23.550  0.00  0.00     0.196 A 
ATOM      4  C   UNL d   1      33.170  20.228 -23.638  0.00  0.00     0.057 A 
ATOM      5  N   UNL d   1      32.956  18.981 -24.283  0.00  0.00    -0.221 NA
ATOM      6  C   UNL d   1      33.122  19.793 -24.345  0.00  0.00     0.087 A 
ATOM      7  C   UNL d   1      33.241  20.186 -25.070  0.00  0.00     0.021 C 
ENDROOT
BRANCH   3   8
ATOM      8  S   UNL d   1      32.682  17.820 -23.526  0.00  0.00    -0.045 SA
BRANCH   8   9
ATOM      9  C   UNL d   1      31.929  17.561 -23.742  0.00  0.00     0.080 C 
BRANCH   9  10
ATOM     10  C   UNL d   1      31.735  16.747 -23.793  0.00  0.00     0.202 C 
ATOM     11  O   UNL d   1      32.308  16.164 -23.822  0.00  0.00    -0.286 OA
BRANCH  10  12
ATOM     12  C   UNL d   1      30.935  16.587 -23.812  0.00  0.00     0.040 A 
ATOM     13  C   UNL d   1      30.630  15.975 -23.300  0.00  0.00     0.003 A 
ATOM     14  C   UNL d   1      29.861  15.800 -23.298  0.00  0.00     0.000 A 
ATOM     15  C   UNL d   1      29.333  16.202 -23.787  0.00  0.00     0.000 A 
ATOM     16  C   UNL d   1      29.615  16.785 -24.276  0.00  0.00     0.000 A 
ATOM     17  C   UNL d   1      30.406  16.989 -24.301  0.00  0.00     0.003 A 
ENDBRANCH  10  12
ENDBRANCH   9  10
ENDBRANCH   8   9
ENDBRANCH   3   8
BRANCH   2  18
ATOM     18  N   UNL d   1      33.114  20.332 -22.227  0.00  0.00    -0.285 N 
ATOM     19  C   UNL d   1      33.188  19.975 -21.533  0.00  0.00     0.108 A 
ATOM     20  C   UNL d   1      33.240  20.403 -20.813  0.00  0.00     0.142 A 
ATOM     21  O   UNL d   1      33.206  21.244 -20.881  0.00  0.00    -0.300 OA
ATOM     22  C   UNL d   1      33.131  21.565 -21.594  0.00  0.00     0.142 A 
ATOM     23  C   UNL d   1      33.081  21.161 -22.286  0.00  0.00     0.108 A 
ENDBRANCH   2  18
TORSDOF 5
ENDMDL
