MODEL 1
REMARK VINA RESULT:      -2.4      0.000      0.000
REMARK  3 active torsions:
REMARK  status: ('A' for Active; 'I' for Inactive)
REMARK    1  A    between atoms: N_5  and  C_1 
REMARK       I    between atoms: C_6  and  N_5 
REMARK    2  A    between atoms: C_8  and  C_6 
REMARK    3  A    between atoms: O_16  and  C_12 
ROOT
ATOM      1  C   UNL d   1      33.124  19.021 -23.167  0.00  0.00     0.124 A 
ATOM      2  C   UNL d   1      33.177  19.797 -23.404  0.00  0.00     0.093 A 
ATOM      3  S   UNL d   1      33.107  18.978 -22.349  0.00  0.00    -0.067 SA
ATOM      4  C   UNL d   1      33.197  20.276 -22.739  0.00  0.00     0.018 A 
ATOM      5  C   UNL d   1      33.151  19.749 -22.059  0.00  0.00     0.032 A 
ATOM      6  C   UNL d   1      33.210  20.091 -24.224  0.00  0.00     0.103 C 
ATOM      7  N   UNL d   1      33.241  20.360 -25.011  0.00  0.00    -0.191 NA
ATOM      8  C   UNL d   1      33.240  21.038 -22.436  0.00  0.00     0.001 A 
ATOM      9  C   UNL d   1      33.170  20.219 -21.381  0.00  0.00     0.006 A 
ATOM     10  C   UNL d   1      33.225  21.006 -21.620  0.00  0.00     0.001 A 
ENDROOT
BRANCH   1  11
ATOM     11  N   UNL d   1      33.089  18.343 -23.696  0.00  0.00    -0.201 NA
ATOM     12  C   UNL d   1      32.542  17.756 -23.549  0.00  0.00     0.281 C 
ATOM     13  O   UNL d   1      32.002  17.778 -22.901  0.00  0.00    -0.265 OA
BRANCH  12  14
ATOM     14  C   UNL d   1      32.508  17.097 -24.063  0.00  0.00     0.080 A 
ATOM     15  C   UNL d   1      31.755  16.852 -24.407  0.00  0.00     0.099 A 
ATOM     16  C   UNL d   1      31.723  16.206 -24.911  0.00  0.00     0.024 A 
ATOM     17  C   UNL d   1      32.442  15.798 -25.076  0.00  0.00     0.002 A 
ATOM     18  C   UNL d   1      33.128  15.987 -24.788  0.00  0.00     0.000 A 
ATOM     19  C   UNL d   1      33.195  16.661 -24.256  0.00  0.00     0.007 A 
BRANCH  15  20
ATOM     20  O   UNL d   1      31.043  17.260 -24.242  0.00  0.00    -0.328 OA
ATOM     21  C   UNL d   1      30.413  17.266 -24.782  0.00  0.00     0.181 C 
ENDBRANCH  15  20
ENDBRANCH  12  14
ENDBRANCH   1  11
TORSDOF 3
ENDMDL
MODEL 2
REMARK VINA RESULT:      -2.1      2.470      4.421
REMARK  3 active torsions:
REMARK  status: ('A' for Active; 'I' for Inactive)
REMARK    1  A    between atoms: N_5  and  C_1 
REMARK       I    between atoms: C_6  and  N_5 
REMARK    2  A    between atoms: C_8  and  C_6 
REMARK    3  A    between atoms: O_16  and  C_12 
ROOT
ATOM      1  C   UNL d   1      29.555  16.162 -23.897  0.00  0.00     0.124 A 
ATOM      2  C   UNL d   1      28.958  16.696 -24.030  0.00  0.00     0.093 A 
ATOM      3  S   UNL d   1      29.304  15.587 -23.369  0.00  0.00    -0.067 SA
ATOM      4  C   UNL d   1      28.302  16.478 -23.589  0.00  0.00     0.018 A 
ATOM      5  C   UNL d   1      28.525  15.763 -23.163  0.00  0.00     0.032 A 
ATOM      6  C   UNL d   1      28.989  17.394 -24.553  0.00  0.00     0.103 C 
ATOM      7  N   UNL d   1      29.031  18.056 -25.054  0.00  0.00    -0.191 NA
ATOM      8  C   UNL d   1      27.527  16.641 -23.374  0.00  0.00     0.001 A 
ATOM      9  C   UNL d   1      27.873  15.532 -22.713  0.00  0.00     0.006 A 
ATOM     10  C   UNL d   1      27.266  16.073 -22.847  0.00  0.00     0.001 A 
ENDROOT
BRANCH   1  11
ATOM     11  N   UNL d   1      30.337  16.192 -24.256  0.00  0.00    -0.201 NA
ATOM     12  C   UNL d   1      30.984  15.976 -23.809  0.00  0.00     0.281 C 
ATOM     13  O   UNL d   1      30.928  15.722 -23.006  0.00  0.00    -0.265 OA
BRANCH  12  14
ATOM     14  C   UNL d   1      31.743  16.005 -24.157  0.00  0.00     0.080 A 
ATOM     15  C   UNL d   1      32.311  16.608 -23.913  0.00  0.00     0.099 A 
ATOM     16  C   UNL d   1      33.056  16.637 -24.255  0.00  0.00     0.024 A 
ATOM     17  C   UNL d   1      33.241  16.063 -24.844  0.00  0.00     0.002 A 
ATOM     18  C   UNL d   1      32.763  15.514 -25.086  0.00  0.00     0.000 A 
ATOM     19  C   UNL d   1      31.973  15.458 -24.746  0.00  0.00     0.007 A 
BRANCH  15  20
ATOM     20  O   UNL d   1      32.124  17.177 -23.327  0.00  0.00    -0.328 OA
ATOM     21  C   UNL d   1      32.589  17.855 -23.218  0.00  0.00     0.181 C 
ENDBRANCH  15  20
ENDBRANCH  12  14
ENDBRANCH   1  11
TORSDOF 3
ENDMDL
MODEL 3
REMARK VINA RESULT:      -2.0      2.059      4.920
REMARK  3 active torsions:
REMARK  status: ('A' for Active; 'I' for Inactive)
REMARK    1  A    between atoms: N_5  and  C_1 
REMARK       I    between atoms: C_6  and  N_5 
REMARK    2  A    between atoms: C_8  and  C_6 
REMARK    3  A    between atoms: O_16  and  C_12 
ROOT
ATOM      1  C   UNL d   1      33.135  20.260 -22.589  0.00  0.00     0.124 A 
ATOM      2  C   UNL d   1      33.179  19.978 -23.349  0.00  0.00     0.093 A 
ATOM      3  S   UNL d   1      33.121  19.635 -22.058  0.00  0.00    -0.067 SA
ATOM      4  C   UNL d   1      33.195  19.159 -23.328  0.00  0.00     0.018 A 
ATOM      5  C   UNL d   1      33.158  18.938 -22.497  0.00  0.00     0.032 A 
ATOM      6  C   UNL d   1      33.206  20.453 -24.081  0.00  0.00     0.103 C 
ATOM      7  N   UNL d   1      33.231  20.916 -24.772  0.00  0.00    -0.191 NA
ATOM      8  C   UNL d   1      33.230  18.456 -23.751  0.00  0.00     0.001 A 
ATOM      9  C   UNL d   1      33.173  18.113 -22.461  0.00  0.00     0.006 A 
ATOM     10  C   UNL d   1      33.217  17.826 -23.232  0.00  0.00     0.001 A 
ENDROOT
BRANCH   1  11
ATOM     11  N   UNL d   1      33.107  21.092 -22.369  0.00  0.00    -0.201 NA
ATOM     12  C   UNL d   1      32.771  21.300 -21.655  0.00  0.00     0.281 C 
ATOM     13  O   UNL d   1      32.447  20.739 -21.116  0.00  0.00    -0.265 OA
BRANCH  12  14
ATOM     14  C   UNL d   1      32.744  22.108 -21.442  0.00  0.00     0.080 A 
ATOM     15  C   UNL d   1      32.926  22.351 -20.634  0.00  0.00     0.099 A 
ATOM     16  C   UNL d   1      32.899  23.143 -20.424  0.00  0.00     0.024 A 
ATOM     17  C   UNL d   1      32.690  23.701 -21.021  0.00  0.00     0.002 A 
ATOM     18  C   UNL d   1      32.522  23.522 -21.748  0.00  0.00     0.000 A 
ATOM     19  C   UNL d   1      32.542  22.698 -21.998  0.00  0.00     0.007 A 
BRANCH  15  20
ATOM     20  O   UNL d   1      33.133  21.794 -20.043  0.00  0.00    -0.328 OA
ATOM     21  C   UNL d   1      33.227  22.018 -19.250  0.00  0.00     0.181 C 
ENDBRANCH  15  20
ENDBRANCH  12  14
ENDBRANCH   1  11
TORSDOF 3
ENDMDL
MODEL 4
REMARK VINA RESULT:      -2.0      2.130      4.352
REMARK  3 active torsions:
REMARK  status: ('A' for Active; 'I' for Inactive)
REMARK    1  A    between atoms: N_5  and  C_1 
REMARK       I    between atoms: C_6  and  N_5 
REMARK    2  A    between atoms: C_8  and  C_6 
REMARK    3  A    between atoms: O_16  and  C_12 
ROOT
ATOM      1  C   UNL d   1      29.960  17.215 -24.200  0.00  0.00     0.124 A 
ATOM      2  C   UNL d   1      29.173  17.364 -24.333  0.00  0.00     0.093 A 
ATOM      3  S   UNL d   1      30.055  16.464 -23.887  0.00  0.00    -0.067 SA
ATOM      4  C   UNL d   1      28.737  16.707 -24.107  0.00  0.00     0.018 A 
ATOM      5  C   UNL d   1      29.305  16.128 -23.820  0.00  0.00     0.032 A 
ATOM      6  C   UNL d   1      28.828  18.095 -24.661  0.00  0.00     0.103 C 
ATOM      7  N   UNL d   1      28.511  18.797 -24.974  0.00  0.00    -0.191 NA
ATOM      8  C   UNL d   1      27.997  16.360 -24.035  0.00  0.00     0.001 A 
ATOM      9  C   UNL d   1      28.879  15.459 -23.589  0.00  0.00     0.006 A 
ATOM     10  C   UNL d   1      28.080  15.609 -23.723  0.00  0.00     0.001 A 
ENDROOT
BRANCH   1  11
ATOM     11  N   UNL d   1      30.603  17.765 -24.363  0.00  0.00    -0.201 NA
ATOM     12  C   UNL d   1      31.352  17.585 -24.094  0.00  0.00     0.281 C 
ATOM     13  O   UNL d   1      31.533  16.885 -23.661  0.00  0.00    -0.265 OA
BRANCH  12  14
ATOM     14  C   UNL d   1      31.976  18.119 -24.253  0.00  0.00     0.080 A 
ATOM     15  C   UNL d   1      32.613  18.225 -23.679  0.00  0.00     0.099 A 
ATOM     16  C   UNL d   1      33.226  18.748 -23.835  0.00  0.00     0.024 A 
ATOM     17  C   UNL d   1      33.207  19.170 -24.565  0.00  0.00     0.002 A 
ATOM     18  C   UNL d   1      32.659  19.102 -25.096  0.00  0.00     0.000 A 
ATOM     19  C   UNL d   1      32.002  18.560 -24.962  0.00  0.00     0.007 A 
BRANCH  15  20
ATOM     20  O   UNL d   1      32.629  17.804 -22.956  0.00  0.00    -0.328 OA
ATOM     21  C   UNL d   1      33.239  17.913 -22.404  0.00  0.00     0.181 C 
ENDBRANCH  15  20
ENDBRANCH  12  14
ENDBRANCH   1  11
TORSDOF 3
ENDMDL
MODEL 5
REMARK VINA RESULT:      -1.8      1.220      1.725
REMARK  3 active torsions:
REMARK  status: ('A' for Active; 'I' for Inactive)
REMARK    1  A    between atoms: N_5  and  C_1 
REMARK       I    between atoms: C_6  and  N_5 
REMARK    2  A    between atoms: C_8  and  C_6 
REMARK    3  A    between atoms: O_16  and  C_12 
ROOT
ATOM      1  C   UNL d   1      33.040  19.762 -23.079  0.00  0.00     0.124 A 
ATOM      2  C   UNL d   1      33.117  20.277 -22.456  0.00  0.00     0.093 A 
ATOM      3  S   UNL d   1      33.036  20.176 -23.787  0.00  0.00    -0.067 SA
ATOM      4  C   UNL d   1      33.165  21.042 -22.748  0.00  0.00     0.018 A 
ATOM      5  C   UNL d   1      33.112  20.977 -23.605  0.00  0.00     0.032 A 
ATOM      6  C   UNL d   1      33.146  20.070 -21.609  0.00  0.00     0.103 C 
ATOM      7  N   UNL d   1      33.173  19.861 -20.804  0.00  0.00    -0.191 NA
ATOM      8  C   UNL d   1      33.240  21.842 -22.582  0.00  0.00     0.001 A 
ATOM      9  C   UNL d   1      33.159  21.741 -23.913  0.00  0.00     0.006 A 
ATOM     10  C   UNL d   1      33.237  22.265 -23.281  0.00  0.00     0.001 A 
ENDROOT
BRANCH   1  11
ATOM     11  N   UNL d   1      32.973  18.906 -23.010  0.00  0.00    -0.201 NA
ATOM     12  C   UNL d   1      32.673  18.483 -23.640  0.00  0.00     0.281 C 
ATOM     13  O   UNL d   1      32.423  18.841 -24.361  0.00  0.00    -0.265 OA
BRANCH  12  14
ATOM     14  C   UNL d   1      32.608  17.652 -23.573  0.00  0.00     0.080 A 
ATOM     15  C   UNL d   1      31.881  17.252 -23.812  0.00  0.00     0.099 A 
ATOM     16  C   UNL d   1      31.817  16.437 -23.746  0.00  0.00     0.024 A 
ATOM     17  C   UNL d   1      32.479  16.013 -23.440  0.00  0.00     0.002 A 
ATOM     18  C   UNL d   1      33.139  16.334 -23.218  0.00  0.00     0.000 A 
ATOM     19  C   UNL d   1      33.237  17.189 -23.275  0.00  0.00     0.007 A 
BRANCH  15  20
ATOM     20  O   UNL d   1      31.225  17.676 -24.115  0.00  0.00    -0.328 OA
ATOM     21  C   UNL d   1      30.540  17.286 -24.373  0.00  0.00     0.181 C 
ENDBRANCH  15  20
ENDBRANCH  12  14
ENDBRANCH   1  11
TORSDOF 3
ENDMDL
MODEL 6
REMARK VINA RESULT:      -1.4      1.739      2.597
REMARK  3 active torsions:
REMARK  status: ('A' for Active; 'I' for Inactive)
REMARK    1  A    between atoms: N_5  and  C_1 
REMARK       I    between atoms: C_6  and  N_5 
REMARK    2  A    between atoms: C_8  and  C_6 
REMARK    3  A    between atoms: O_16  and  C_12 
ROOT
ATOM      1  C   UNL d   1      33.217  21.094 -22.079  0.00  0.00     0.124 A 
ATOM      2  C   UNL d   1      33.210  21.904 -22.015  0.00  0.00     0.093 A 
ATOM      3  S   UNL d   1      33.197  20.754 -21.333  0.00  0.00    -0.067 SA
ATOM      4  C   UNL d   1      33.185  22.108 -21.221  0.00  0.00     0.018 A 
ATOM      5  C   UNL d   1      33.177  21.368 -20.782  0.00  0.00     0.032 A 
ATOM      6  C   UNL d   1      33.225  22.479 -22.671  0.00  0.00     0.103 C 
ATOM      7  N   UNL d   1      33.240  23.018 -23.305  0.00  0.00    -0.191 NA
ATOM      8  C   UNL d   1      33.165  22.708 -20.661  0.00  0.00     0.001 A 
ATOM      9  C   UNL d   1      33.153  21.558 -19.979  0.00  0.00     0.006 A 
ATOM     10  C   UNL d   1      33.146  22.380 -19.913  0.00  0.00     0.001 A 
ENDROOT
BRANCH   1  11
ATOM     11  N   UNL d   1      33.241  20.655 -22.819  0.00  0.00    -0.201 NA
ATOM     12  C   UNL d   1      32.991  19.879 -22.824  0.00  0.00     0.281 C 
ATOM     13  O   UNL d   1      32.707  19.479 -22.138  0.00  0.00    -0.265 OA
BRANCH  12  14
ATOM     14  C   UNL d   1      33.014  19.452 -23.543  0.00  0.00     0.080 A 
ATOM     15  C   UNL d   1      33.140  18.598 -23.538  0.00  0.00     0.099 A 
ATOM     16  C   UNL d   1      33.163  18.179 -24.243  0.00  0.00     0.024 A 
ATOM     17  C   UNL d   1      33.061  18.611 -24.960  0.00  0.00     0.002 A 
ATOM     18  C   UNL d   1      32.947  19.368 -25.003  0.00  0.00     0.000 A 
ATOM     19  C   UNL d   1      32.918  19.835 -24.280  0.00  0.00     0.007 A 
BRANCH  15  20
ATOM     20  O   UNL d   1      33.241  18.172 -22.823  0.00  0.00    -0.328 OA
ATOM     21  C   UNL d   1      33.236  17.343 -22.809  0.00  0.00     0.181 C 
ENDBRANCH  15  20
ENDBRANCH  12  14
ENDBRANCH   1  11
TORSDOF 3
ENDMDL
