MODEL 1
REMARK VINA RESULT:      -4.5      0.000      0.000
REMARK  4 active torsions:
REMARK  status: ('A' for Active; 'I' for Inactive)
REMARK    1  A    between atoms: C_2  and  C_1 
REMARK       I    between atoms: N_7  and  C_2 
REMARK    2  A    between atoms: C_9  and  N_7 
REMARK    3  A    between atoms: O_16  and  C_10 
REMARK    4  A    between atoms: C_18  and  O_16 
ROOT
ATOM      1  C   UNL d   1     -41.489-121.486 -51.951  0.00  0.00     0.280 C 
ATOM      2  N   UNL d   1     -41.752-121.321 -51.188  0.00  0.00    -0.208 NA
ATOM      3  O   UNL d   1     -41.326-120.862 -52.468  0.00  0.00    -0.265 OA
ENDROOT
BRANCH   1   4
ATOM      4  C   UNL d   1     -41.391-122.268 -52.196  0.00  0.00     0.065 A 
ATOM      5  C   UNL d   1     -41.524-122.555 -52.958  0.00  0.00     0.011 A 
ATOM      6  C   UNL d   1     -41.357-123.359 -52.949  0.00  0.00     0.030 A 
ATOM      7  C   UNL d   1     -41.773-122.191 -53.657  0.00  0.00     0.001 A 
ATOM      8  C   UNL d   1     -41.439-123.808 -53.641  0.00  0.00     0.006 A 
ATOM      9  S   UNL d   1     -41.123-123.568 -52.186  0.00  0.00    -0.086 SA
ATOM     10  C   UNL d   1     -41.683-123.452 -54.322  0.00  0.00     0.001 A 
ATOM     11  C   UNL d   1     -41.852-122.642 -54.338  0.00  0.00     0.000 A 
ATOM     12  C   UNL d   1     -41.147-122.882 -51.723  0.00  0.00     0.040 A 
ENDBRANCH   1   4
BRANCH   2  13
ATOM     13  C   UNL d   1     -41.919-121.948 -50.664  0.00  0.00     0.085 A 
ATOM     14  C   UNL d   1     -42.699-122.188 -50.551  0.00  0.00     0.021 A 
ATOM     15  C   UNL d   1     -42.865-122.807 -50.033  0.00  0.00     0.026 A 
ATOM     16  C   UNL d   1     -42.250-123.192 -49.625  0.00  0.00     0.100 A 
ATOM     17  C   UNL d   1     -41.472-122.946 -49.745  0.00  0.00     0.026 A 
ATOM     18  C   UNL d   1     -41.305-122.322 -50.266  0.00  0.00     0.021 A 
BRANCH  16  19
ATOM     19  O   UNL d   1     -42.403-123.817 -49.101  0.00  0.00    -0.305 OA
BRANCH  19  20
ATOM     20  C   UNL d   1     -42.875-123.696 -48.436  0.00  0.00     0.123 C 
ATOM     21  C   UNL d   1     -42.533-123.668 -47.683  0.00  0.00     0.029 C 
ENDBRANCH  19  20
ENDBRANCH  16  19
ENDBRANCH   2  13
TORSDOF 4
ENDMDL
MODEL 2
REMARK VINA RESULT:      -1.5      1.551      2.133
REMARK  4 active torsions:
REMARK  status: ('A' for Active; 'I' for Inactive)
REMARK    1  A    between atoms: C_2  and  C_1 
REMARK       I    between atoms: N_7  and  C_2 
REMARK    2  A    between atoms: C_9  and  N_7 
REMARK    3  A    between atoms: O_16  and  C_10 
REMARK    4  A    between atoms: C_18  and  O_16 
ROOT
ATOM      1  C   UNL d   1     -41.391-123.427 -53.634  0.00  0.00     0.280 C 
ATOM      2  N   UNL d   1     -41.362-123.815 -52.908  0.00  0.00    -0.208 NA
ATOM      3  O   UNL d   1     -41.130-123.817 -54.314  0.00  0.00    -0.265 OA
ENDROOT
BRANCH   1   4
ATOM      4  C   UNL d   1     -41.680-122.656 -53.680  0.00  0.00     0.065 A 
ATOM      5  C   UNL d   1     -41.993-122.297 -54.354  0.00  0.00     0.011 A 
ATOM      6  C   UNL d   1     -42.209-121.532 -54.146  0.00  0.00     0.030 A 
ATOM      7  C   UNL d   1     -42.108-122.565 -55.127  0.00  0.00     0.001 A 
ATOM      8  C   UNL d   1     -42.544-121.028 -54.712  0.00  0.00     0.006 A 
ATOM      9  S   UNL d   1     -42.031-121.419 -53.349  0.00  0.00    -0.086 SA
ATOM     10  C   UNL d   1     -42.657-121.290 -55.466  0.00  0.00     0.001 A 
ATOM     11  C   UNL d   1     -42.441-122.060 -55.681  0.00  0.00     0.000 A 
ATOM     12  C   UNL d   1     -41.702-122.123 -53.066  0.00  0.00     0.040 A 
ENDBRANCH   1   4
BRANCH   2  13
ATOM     13  C   UNL d   1     -41.626-123.425 -52.220  0.00  0.00     0.085 A 
ATOM     14  C   UNL d   1     -42.388-123.563 -51.940  0.00  0.00     0.021 A 
ATOM     15  C   UNL d   1     -42.650-123.178 -51.261  0.00  0.00     0.026 A 
ATOM     16  C   UNL d   1     -42.149-122.651 -50.855  0.00  0.00     0.100 A 
ATOM     17  C   UNL d   1     -41.388-122.519 -51.142  0.00  0.00     0.026 A 
ATOM     18  C   UNL d   1     -41.125-122.907 -51.827  0.00  0.00     0.021 A 
BRANCH  16  19
ATOM     19  O   UNL d   1     -42.400-122.257 -50.170  0.00  0.00    -0.305 OA
BRANCH  19  20
ATOM     20  C   UNL d   1     -42.813-122.663 -49.583  0.00  0.00     0.123 C 
ATOM     21  C   UNL d   1     -42.771-122.414 -48.795  0.00  0.00     0.029 C 
ENDBRANCH  19  20
ENDBRANCH  16  19
ENDBRANCH   2  13
TORSDOF 4
ENDMDL
