MODEL 1
REMARK VINA RESULT:      16.0      0.000      0.000
REMARK  4 active torsions:
REMARK  status: ('A' for Active; 'I' for Inactive)
REMARK    1  A    between atoms: C_8  and  N_1 
REMARK    2  A    between atoms: N_7  and  C_4 
REMARK    3  A    between atoms: N_6  and  C_10 
REMARK    4  A    between atoms: C_15  and  N_7 
ROOT
ATOM      1  N   UNL d   1      45.227 -14.254  44.244  0.00  0.00    -0.241 N 
ATOM      2  C   UNL d   1      44.628 -14.622  44.648  0.00  0.00     0.269 A 
ATOM      3  C   UNL d   1      45.893 -14.727  44.290  0.00  0.00     0.285 A 
ATOM      4  C   UNL d   1      45.672 -15.388  44.736  0.00  0.00     0.142 A 
ATOM      5  C   UNL d   1      44.922 -15.321  44.945  0.00  0.00     0.085 A 
ATOM      6  O   UNL d   1      43.838 -14.356  44.759  0.00  0.00    -0.267 OA
ATOM      7  O   UNL d   1      46.647 -14.570  43.954  0.00  0.00    -0.265 OA
ENDROOT
BRANCH   4   8
ATOM      8  N   UNL d   1      46.161 -16.064  44.955  0.00  0.00    -0.241 NA
BRANCH   8   9
ATOM      9  C   UNL d   1      46.155 -16.767  44.514  0.00  0.00     0.082 A 
ATOM     10  C   UNL d   1      46.123 -17.494  44.914  0.00  0.00     0.021 A 
ATOM     11  C   UNL d   1      46.118 -18.196  44.461  0.00  0.00     0.019 A 
ATOM     12  C   UNL d   1      46.143 -18.172  43.651  0.00  0.00     0.064 A 
ATOM     13  C   UNL d   1      46.174 -17.468  43.257  0.00  0.00     0.019 A 
ATOM     14  C   UNL d   1      46.180 -16.758  43.689  0.00  0.00     0.021 A 
BRANCH  12  15
ATOM     15  N   UNL d   1      46.137 -18.884  43.223  0.00  0.00    -0.300 N 
ATOM     16  C   UNL d   1      46.195 -18.860  42.400  0.00  0.00     0.107 A 
ATOM     17  C   UNL d   1      46.188 -19.573  41.982  0.00  0.00     0.142 A 
ATOM     18  O   UNL d   1      46.124 -20.284  42.384  0.00  0.00    -0.300 OA
ATOM     19  C   UNL d   1      46.067 -20.285  43.197  0.00  0.00     0.142 A 
ATOM     20  C   UNL d   1      46.072 -19.582  43.639  0.00  0.00     0.107 A 
ENDBRANCH  12  15
ENDBRANCH   8   9
ENDBRANCH   4   8
BRANCH   1  21
ATOM     21  C   UNL d   1      45.109 -13.537  43.879  0.00  0.00     0.070 A 
ATOM     22  C   UNL d   1      45.537 -12.853  44.120  0.00  0.00     0.018 A 
ATOM     23  C   UNL d   1      45.414 -12.133  43.747  0.00  0.00     0.002 A 
ATOM     24  C   UNL d   1      44.863 -12.080  43.129  0.00  0.00     0.000 A 
ATOM     25  C   UNL d   1      44.447 -12.737  42.892  0.00  0.00     0.002 A 
ATOM     26  C   UNL d   1      44.572 -13.461  43.268  0.00  0.00     0.018 A 
ENDBRANCH   1  21
TORSDOF 4
ENDMDL
