MODEL 1
REMARK VINA RESULT:      -2.1      0.000      0.000
REMARK  4 active torsions:
REMARK  status: ('A' for Active; 'I' for Inactive)
REMARK    1  A    between atoms: C_9  and  N_1 
REMARK    2  A    between atoms: S_10  and  C_6 
REMARK    3  A    between atoms: C_16  and  S_10 
REMARK    4  A    between atoms: C_15  and  C_16 
ROOT
ATOM      1  N   UNL d   1      32.628  18.605 -23.949  0.00  0.00    -0.212 N 
ATOM      2  C   UNL d   1      32.844  18.774 -23.175  0.00  0.00     0.169 A 
ATOM      3  N   UNL d   1      32.492  19.300 -24.342  0.00  0.00    -0.162 NA
ATOM      4  C   UNL d   1      32.840  19.594 -23.089  0.00  0.00     0.081 A 
ATOM      5  C   UNL d   1      32.623  19.923 -23.811  0.00  0.00     0.126 A 
ATOM      6  C   UNL d   1      33.036  19.934 -22.367  0.00  0.00     0.117 A 
ATOM      7  N   UNL d   1      33.042  18.293 -22.539  0.00  0.00    -0.205 NA
ATOM      8  N   UNL d   1      33.235  19.453 -21.726  0.00  0.00    -0.217 NA
ATOM      9  C   UNL d   1      33.238  18.633 -21.812  0.00  0.00     0.201 A 
ENDROOT
BRANCH   6  10
ATOM     10  S   UNL d   1      33.032  20.754 -22.280  0.00  0.00    -0.067 SA
BRANCH  10  11
ATOM     11  C   UNL d   1      32.883  21.087 -21.551  0.00  0.00     0.038 C 
BRANCH  11  12
ATOM     12  C   UNL d   1      32.722  21.894 -21.491  0.00  0.00     0.026 A 
ATOM     13  C   UNL d   1      32.224  22.173 -20.894  0.00  0.00     0.099 A 
ATOM     14  N   UNL d   1      32.064  22.980 -20.835  0.00  0.00    -0.242 NA
ATOM     15  C   UNL d   1      32.399  23.517 -21.371  0.00  0.00     0.099 A 
ATOM     16  C   UNL d   1      32.898  23.231 -21.969  0.00  0.00     0.021 A 
ATOM     17  C   UNL d   1      33.059  22.424 -22.029  0.00  0.00     0.004 A 
ENDBRANCH  11  12
ENDBRANCH  10  11
ENDBRANCH   6  10
BRANCH   1  18
ATOM     18  C   UNL d   1      32.581  17.816 -24.205  0.00  0.00     0.085 A 
ATOM     19  C   UNL d   1      31.911  17.370 -24.040  0.00  0.00     0.021 A 
ATOM     20  C   UNL d   1      31.862  16.593 -24.291  0.00  0.00     0.031 A 
ATOM     21  C   UNL d   1      32.487  16.250 -24.711  0.00  0.00     0.140 A 
ATOM     22  C   UNL d   1      33.163  16.712 -24.873  0.00  0.00     0.031 A 
ATOM     23  F   UNL d   1      32.441  15.462 -24.967  0.00  0.00    -0.204 F 
ATOM     24  C   UNL d   1      33.204  17.486 -24.620  0.00  0.00     0.021 A 
ENDBRANCH   1  18
TORSDOF 4
ENDMDL
MODEL 2
REMARK VINA RESULT:      -2.0      2.342      5.374
REMARK  4 active torsions:
REMARK  status: ('A' for Active; 'I' for Inactive)
REMARK    1  A    between atoms: C_9  and  N_1 
REMARK    2  A    between atoms: S_10  and  C_6 
REMARK    3  A    between atoms: C_16  and  S_10 
REMARK    4  A    between atoms: C_15  and  C_16 
ROOT
ATOM      1  N   UNL d   1      32.810  20.798 -21.115  0.00  0.00    -0.212 N 
ATOM      2  C   UNL d   1      32.957  20.782 -21.923  0.00  0.00     0.169 A 
ATOM      3  N   UNL d   1      32.749  20.037 -20.844  0.00  0.00    -0.162 NA
ATOM      4  C   UNL d   1      32.987  19.991 -22.155  0.00  0.00     0.081 A 
ATOM      5  C   UNL d   1      32.858  19.527 -21.488  0.00  0.00     0.126 A 
ATOM      6  C   UNL d   1      33.128  19.797 -22.941  0.00  0.00     0.117 A 
ATOM      7  N   UNL d   1      33.067  21.380 -22.477  0.00  0.00    -0.205 NA
ATOM      8  N   UNL d   1      33.238  20.395 -23.499  0.00  0.00    -0.217 NA
ATOM      9  C   UNL d   1      33.208  21.186 -23.267  0.00  0.00     0.201 A 
ENDROOT
BRANCH   6  10
ATOM     10  S   UNL d   1      33.158  19.006 -23.174  0.00  0.00    -0.067 SA
BRANCH  10  11
ATOM     11  C   UNL d   1      33.059  18.807 -23.958  0.00  0.00     0.038 C 
BRANCH  11  12
ATOM     12  C   UNL d   1      32.887  18.028 -24.168  0.00  0.00     0.026 A 
ATOM     13  C   UNL d   1      33.241  17.403 -23.761  0.00  0.00     0.099 A 
ATOM     14  N   UNL d   1      33.069  16.624 -23.971  0.00  0.00    -0.242 NA
ATOM     15  C   UNL d   1      32.542  16.462 -24.590  0.00  0.00     0.099 A 
ATOM     16  C   UNL d   1      32.190  17.094 -24.995  0.00  0.00     0.021 A 
ATOM     17  C   UNL d   1      32.361  17.873 -24.786  0.00  0.00     0.004 A 
ENDBRANCH  11  12
ENDBRANCH  10  11
ENDBRANCH   6  10
BRANCH   1  18
ATOM     18  C   UNL d   1      32.749  21.525 -20.718  0.00  0.00     0.085 A 
ATOM     19  C   UNL d   1      33.241  21.686 -20.080  0.00  0.00     0.021 A 
ATOM     20  C   UNL d   1      33.183  22.401 -19.687  0.00  0.00     0.031 A 
ATOM     21  C   UNL d   1      32.629  22.967 -19.928  0.00  0.00     0.140 A 
ATOM     22  C   UNL d   1      32.134  22.792 -20.578  0.00  0.00     0.031 A 
ATOM     23  F   UNL d   1      32.567  23.693 -19.532  0.00  0.00    -0.204 F 
ATOM     24  C   UNL d   1      32.199  22.077 -20.964  0.00  0.00     0.021 A 
ENDBRANCH   1  18
TORSDOF 4
ENDMDL
