MODEL 1
REMARK VINA RESULT:      34.7      0.000      0.000
REMARK  5 active torsions:
REMARK  status: ('A' for Active; 'I' for Inactive)
REMARK    1  A    between atoms: C_5  and  C_1 
REMARK    2  A    between atoms: C_12  and  C_5 
REMARK    3  A    between atoms: C_7  and  C_22 
REMARK       I    between atoms: N_21  and  C_12 
REMARK    4  A    between atoms: C_23  and  N_21 
REMARK    5  A    between atoms: C_22  and  C_23 
ROOT
ATOM      1  C   UNL d   1      45.861 -15.141  44.103  0.00  0.00     0.102 C 
ENDROOT
BRANCH   1   2
ATOM      2  C   UNL d   1      46.358 -15.719  44.420  0.00  0.00     0.026 C 
BRANCH   2   3
ATOM      3  C   UNL d   1      46.401 -16.473  44.061  0.00  0.00     0.059 A 
ATOM      4  C   UNL d   1      46.391 -16.539  43.239  0.00  0.00     0.279 A 
ATOM      5  N   UNL d   1      46.433 -17.280  42.883  0.00  0.00    -0.208 NA
ATOM      6  O   UNL d   1      46.337 -15.850  42.770  0.00  0.00    -0.265 OA
ATOM      7  C   UNL d   1      46.485 -17.956  43.341  0.00  0.00     0.085 A 
ATOM      8  C   UNL d   1      46.496 -17.891  44.170  0.00  0.00     0.018 A 
ATOM      9  C   UNL d   1      46.528 -18.697  42.990  0.00  0.00     0.019 A 
ATOM     10  C   UNL d   1      46.453 -17.149  44.530  0.00  0.00     0.006 A 
ATOM     11  C   UNL d   1      46.548 -18.566  44.636  0.00  0.00     0.002 A 
ATOM     12  C   UNL d   1      46.590 -19.308  44.277  0.00  0.00     0.000 A 
ATOM     13  C   UNL d   1      46.580 -19.372  43.451  0.00  0.00     0.002 A 
ATOM     14  C   UNL d   1      46.644 -19.997  44.746  0.00  0.00     0.000 C 
ATOM     15  C   UNL d   1      46.622 -20.114  43.091  0.00  0.00     0.000 C 
ENDBRANCH   2   3
ENDBRANCH   1   2
BRANCH   1  16
ATOM     16  N   UNL d   1      45.253 -14.835  44.560  0.00  0.00    -0.204 NA
ATOM     17  C   UNL d   1      45.040 -14.045  44.480  0.00  0.00     0.318 C 
ATOM     18  O   UNL d   1      44.430 -13.735  44.938  0.00  0.00    -0.262 OA
BRANCH  17  19
ATOM     19  C   UNL d   1      45.440 -13.558  43.936  0.00  0.00     0.254 C 
ATOM     20  O   UNL d   1      46.263 -13.497  43.972  0.00  0.00    -0.281 OA
BRANCH  19  21
ATOM     21  C   UNL d   1      45.016 -13.143  43.371  0.00  0.00     0.064 A 
ATOM     22  C   UNL d   1      44.211 -12.956  43.389  0.00  0.00     0.102 A 
ATOM     23  N   UNL d   1      44.016 -12.535  42.711  0.00  0.00    -0.244 NA
ATOM     24  C   UNL d   1      44.705 -12.456  42.262  0.00  0.00     0.082 A 
ATOM     25  C   UNL d   1      45.321 -12.830  42.668  0.00  0.00     0.022 A 
ATOM     26  C   UNL d   1      44.851 -12.092  41.537  0.00  0.00     0.019 A 
ATOM     27  C   UNL d   1      46.079 -12.840  42.348  0.00  0.00     0.002 A 
ATOM     28  C   UNL d   1      46.224 -12.472  41.616  0.00  0.00     0.000 A 
ATOM     29  C   UNL d   1      45.609 -12.102  41.217  0.00  0.00     0.002 A 
ENDBRANCH  19  21
ENDBRANCH  17  19
ENDBRANCH   1  16
TORSDOF 5
ENDMDL
MODEL 2
REMARK VINA RESULT:      36.3      1.827      5.320
REMARK  5 active torsions:
REMARK  status: ('A' for Active; 'I' for Inactive)
REMARK    1  A    between atoms: C_5  and  C_1 
REMARK    2  A    between atoms: C_12  and  C_5 
REMARK    3  A    between atoms: C_7  and  C_22 
REMARK       I    between atoms: N_21  and  C_12 
REMARK    4  A    between atoms: C_23  and  N_21 
REMARK    5  A    between atoms: C_22  and  C_23 
ROOT
ATOM      1  C   UNL d   1      45.506 -17.630  43.916  0.00  0.00     0.102 C 
ENDROOT
BRANCH   1   2
ATOM      2  C   UNL d   1      45.363 -17.115  44.544  0.00  0.00     0.026 C 
BRANCH   2   3
ATOM      3  C   UNL d   1      45.242 -16.301  44.396  0.00  0.00     0.059 A 
ATOM      4  C   UNL d   1      44.577 -16.053  43.977  0.00  0.00     0.279 A 
ATOM      5  N   UNL d   1      44.456 -15.252  43.830  0.00  0.00    -0.208 NA
ATOM      6  O   UNL d   1      44.027 -16.618  43.703  0.00  0.00    -0.265 OA
ATOM      7  C   UNL d   1      44.994 -14.697  44.098  0.00  0.00     0.085 A 
ATOM      8  C   UNL d   1      45.665 -14.946  44.521  0.00  0.00     0.018 A 
ATOM      9  C   UNL d   1      44.877 -13.897  43.954  0.00  0.00     0.019 A 
ATOM     10  C   UNL d   1      45.790 -15.749  44.670  0.00  0.00     0.006 A 
ATOM     11  C   UNL d   1      46.210 -14.393  44.793  0.00  0.00     0.002 A 
ATOM     12  C   UNL d   1      46.086 -13.591  44.644  0.00  0.00     0.000 A 
ATOM     13  C   UNL d   1      45.417 -13.343  44.223  0.00  0.00     0.002 A 
ATOM     14  C   UNL d   1      46.637 -13.026  44.919  0.00  0.00     0.000 C 
ATOM     15  C   UNL d   1      45.294 -12.541  44.074  0.00  0.00     0.000 C 
ENDBRANCH   2   3
ENDBRANCH   1   2
BRANCH   1  16
ATOM     16  N   UNL d   1      45.449 -18.439  44.035  0.00  0.00    -0.204 NA
ATOM     17  C   UNL d   1      45.836 -18.955  43.524  0.00  0.00     0.318 C 
ATOM     18  O   UNL d   1      45.780 -19.768  43.641  0.00  0.00    -0.262 OA
BRANCH  17  19
ATOM     19  C   UNL d   1      46.283 -18.656  42.888  0.00  0.00     0.254 C 
ATOM     20  O   UNL d   1      46.635 -17.912  42.952  0.00  0.00    -0.281 OA
BRANCH  19  21
ATOM     21  C   UNL d   1      46.371 -19.102  42.206  0.00  0.00     0.064 A 
ATOM     22  C   UNL d   1      46.389 -19.926  42.148  0.00  0.00     0.102 A 
ATOM     23  N   UNL d   1      46.486 -20.138  41.360  0.00  0.00    -0.244 NA
ATOM     24  C   UNL d   1      46.529 -19.442  40.918  0.00  0.00     0.082 A 
ATOM     25  C   UNL d   1      46.457 -18.803  41.439  0.00  0.00     0.022 A 
ATOM     26  C   UNL d   1      46.622 -19.306  40.111  0.00  0.00     0.019 A 
ATOM     27  C   UNL d   1      46.480 -18.033  41.151  0.00  0.00     0.002 A 
ATOM     28  C   UNL d   1      46.575 -17.898  40.335  0.00  0.00     0.000 A 
ATOM     29  C   UNL d   1      46.645 -18.536  39.823  0.00  0.00     0.002 A 
ENDBRANCH  19  21
ENDBRANCH  17  19
ENDBRANCH   1  16
TORSDOF 5
ENDMDL
