MODEL 1
REMARK VINA RESULT:       9.4      0.000      0.000
REMARK  6 active torsions:
REMARK  status: ('A' for Active; 'I' for Inactive)
REMARK    1  A    between atoms: C_6  and  C_1 
REMARK    2  A    between atoms: C_7  and  C_3 
REMARK    3  A    between atoms: O_11  and  C_6 
REMARK    4  A    between atoms: O_12  and  C_7 
REMARK    5  A    between atoms: C_14  and  O_11 
REMARK    6  A    between atoms: C_15  and  O_12 
ROOT
ATOM      1  C   UNL d   1      45.409 -14.607  44.528  0.00  0.00     0.083 A 
ATOM      2  C   UNL d   1      45.802 -13.904  44.290  0.00  0.00     0.030 A 
ATOM      3  C   UNL d   1      45.241 -13.298  44.326  0.00  0.00     0.145 A 
ATOM      4  N   UNL d   1      44.527 -13.599  44.574  0.00  0.00    -0.240 NA
ATOM      5  C   UNL d   1      44.633 -14.416  44.699  0.00  0.00     0.087 A 
ATOM      6  C   UNL d   1      46.578 -13.850  44.072  0.00  0.00     0.002 C 
ATOM      7  C   UNL d   1      44.063 -14.958  44.954  0.00  0.00     0.021 C 
ENDROOT
BRANCH   1   8
ATOM      8  C   UNL d   1      45.732 -15.361  44.583  0.00  0.00     0.302 C 
ATOM      9  O   UNL d   1      46.432 -15.469  44.955  0.00  0.00    -0.259 OA
BRANCH   8  10
ATOM     10  O   UNL d   1      45.315 -16.008  44.244  0.00  0.00    -0.271 OA
BRANCH  10  11
ATOM     11  C   UNL d   1      45.415 -16.754  44.515  0.00  0.00     0.126 C 
ATOM     12  C   UNL d   1      45.693 -17.354  44.019  0.00  0.00     0.029 C 
ENDBRANCH  10  11
ENDBRANCH   8  10
ENDBRANCH   1   8
BRANCH   3  13
ATOM     13  C   UNL d   1      45.413 -12.511  44.132  0.00  0.00     0.318 C 
ATOM     14  O   UNL d   1      45.982 -12.102  44.513  0.00  0.00    -0.257 OA
BRANCH  13  15
ATOM     15  O   UNL d   1      44.991 -12.149  43.539  0.00  0.00    -0.270 OA
BRANCH  15  16
ATOM     16  C   UNL d   1      45.298 -12.080  42.782  0.00  0.00     0.126 C 
ATOM     17  C   UNL d   1      44.858 -12.291  42.133  0.00  0.00     0.029 C 
ENDBRANCH  15  16
ENDBRANCH  13  15
ENDBRANCH   3  13
TORSDOF 6
ENDMDL
MODEL 2
REMARK VINA RESULT:      12.2      2.222      3.817
REMARK  6 active torsions:
REMARK  status: ('A' for Active; 'I' for Inactive)
REMARK    1  A    between atoms: C_6  and  C_1 
REMARK    2  A    between atoms: C_7  and  C_3 
REMARK    3  A    between atoms: O_11  and  C_6 
REMARK    4  A    between atoms: O_12  and  C_7 
REMARK    5  A    between atoms: C_14  and  O_11 
REMARK    6  A    between atoms: C_15  and  O_12 
ROOT
ATOM      1  C   UNL d   1      46.230 -18.013  43.653  0.00  0.00     0.083 A 
ATOM      2  C   UNL d   1      45.928 -17.230  43.639  0.00  0.00     0.030 A 
ATOM      3  C   UNL d   1      45.866 -16.988  44.427  0.00  0.00     0.145 A 
ATOM      4  N   UNL d   1      46.116 -17.586  44.918  0.00  0.00    -0.240 NA
ATOM      5  C   UNL d   1      46.343 -18.225  44.434  0.00  0.00     0.087 A 
ATOM      6  C   UNL d   1      45.740 -16.810  42.974  0.00  0.00     0.002 C 
ATOM      7  C   UNL d   1      46.635 -18.958  44.682  0.00  0.00     0.021 C 
ENDROOT
BRANCH   1   8
ATOM      8  C   UNL d   1      46.390 -18.494  43.005  0.00  0.00     0.302 C 
ATOM      9  O   UNL d   1      46.563 -18.166  42.297  0.00  0.00    -0.259 OA
BRANCH   8  10
ATOM     10  O   UNL d   1      46.368 -19.329  43.104  0.00  0.00    -0.271 OA
BRANCH  10  11
ATOM     11  C   UNL d   1      46.646 -19.821  42.539  0.00  0.00     0.126 C 
ATOM     12  C   UNL d   1      46.137 -20.324  42.124  0.00  0.00     0.029 C 
ENDBRANCH  10  11
ENDBRANCH   8  10
ENDBRANCH   1   8
BRANCH   3  13
ATOM     13  C   UNL d   1      45.586 -16.240  44.650  0.00  0.00     0.318 C 
ATOM     14  O   UNL d   1      44.832 -16.130  44.886  0.00  0.00    -0.257 OA
BRANCH  13  15
ATOM     15  O   UNL d   1      46.093 -15.605  44.626  0.00  0.00    -0.270 OA
BRANCH  15  16
ATOM     16  C   UNL d   1      45.835 -14.850  44.813  0.00  0.00     0.126 C 
ATOM     17  C   UNL d   1      46.359 -14.231  44.864  0.00  0.00     0.029 C 
ENDBRANCH  15  16
ENDBRANCH  13  15
ENDBRANCH   3  13
TORSDOF 6
ENDMDL
