MODEL 1
REMARK VINA RESULT:      -7.9      0.000      0.000
REMARK  4 active torsions:
REMARK  status: ('A' for Active; 'I' for Inactive)
REMARK    1  A    between atoms: C_8  and  C_6 
REMARK    2  A    between atoms: C_9  and  C_8 
REMARK       I    between atoms: N_11  and  C_9 
REMARK       I    between atoms: C_10  and  N_12 
REMARK    3  A    between atoms: C_17  and  N_11 
REMARK    4  A    between atoms: N_12  and  C_18 
ROOT
ATOM      1  N   UNL d   1      50.429  34.148  51.411  0.00  0.00    -0.207 NA
ATOM      2  N   UNL d   1      50.630  34.564  53.024  0.00  0.00    -0.240 NA
ATOM      3  C   UNL d   1      51.050  34.051  51.927  0.00  0.00     0.297 A 
ATOM      4  C   UNL d   1      49.689  34.492  51.533  0.00  0.00     0.086 A 
ATOM      5  C   UNL d   1      49.867  34.846  52.916  0.00  0.00     0.083 A 
ATOM      6  C   UNL d   1      51.115  34.193  52.473  0.00  0.00     0.144 A 
ATOM      7  C   UNL d   1      49.394  34.831  52.236  0.00  0.00     0.035 A 
ATOM      8  O   UNL d   1      51.715  33.680  51.615  0.00  0.00    -0.264 OA
ATOM      9  C   UNL d   1      48.631  35.148  52.244  0.00  0.00     0.003 A 
ATOM     10  C   UNL d   1      49.575  35.182  53.612  0.00  0.00     0.019 A 
ATOM     11  C   UNL d   1      49.219  34.475  50.853  0.00  0.00     0.019 A 
ATOM     12  C   UNL d   1      48.802  35.505  53.627  0.00  0.00     0.002 A 
ATOM     13  C   UNL d   1      48.457  34.794  50.868  0.00  0.00     0.002 A 
ATOM     14  C   UNL d   1      48.165  35.130  51.563  0.00  0.00     0.000 A 
ATOM     15  C   UNL d   1      48.335  35.488  52.947  0.00  0.00     0.000 A 
ENDROOT
BRANCH   6  16
ATOM     16  C   UNL d   1      51.852  33.983  52.777  0.00  0.00     0.086 C 
BRANCH  16  17
ATOM     17  C   UNL d   1      52.347  34.575  53.091  0.00  0.00     0.281 C 
ATOM     18  N   UNL d   1      53.023  34.361  53.518  0.00  0.00    -0.208 NA
ATOM     19  O   UNL d   1      52.167  35.372  52.979  0.00  0.00    -0.265 OA
BRANCH  18  20
ATOM     20  C   UNL d   1      53.208  33.564  53.633  0.00  0.00     0.085 A 
ATOM     21  C   UNL d   1      53.711  33.185  53.106  0.00  0.00     0.021 A 
ATOM     22  C   UNL d   1      53.900  32.391  53.215  0.00  0.00     0.021 A 
ATOM     23  C   UNL d   1      53.580  31.975  53.859  0.00  0.00     0.085 A 
ATOM     24  C   UNL d   1      53.075  32.360  54.386  0.00  0.00     0.021 A 
ATOM     25  C   UNL d   1      52.889  33.154  54.273  0.00  0.00     0.021 A 
BRANCH  23  26
ATOM     26  N   UNL d   1      53.762  31.195  53.969  0.00  0.00    -0.208 NA
ATOM     27  C   UNL d   1      53.341  30.619  53.575  0.00  0.00     0.279 C 
ATOM     28  O   UNL d   1      52.740  30.823  53.072  0.00  0.00    -0.265 OA
ATOM     29  C   UNL d   1      53.525  29.830  53.685  0.00  0.00     0.068 C 
ENDBRANCH  23  26
ENDBRANCH  18  20
ENDBRANCH  16  17
ENDBRANCH   6  16
TORSDOF 4
ENDMDL
MODEL 2
REMARK VINA RESULT:      -7.9      2.738      4.033
REMARK  4 active torsions:
REMARK  status: ('A' for Active; 'I' for Inactive)
REMARK    1  A    between atoms: C_8  and  C_6 
REMARK    2  A    between atoms: C_9  and  C_8 
REMARK       I    between atoms: N_11  and  C_9 
REMARK       I    between atoms: C_10  and  N_12 
REMARK    3  A    between atoms: C_17  and  N_11 
REMARK    4  A    between atoms: N_12  and  C_18 
ROOT
ATOM      1  N   UNL d   1      52.224  33.930  53.911  0.00  0.00    -0.207 NA
ATOM      2  N   UNL d   1      53.467  32.810  54.039  0.00  0.00    -0.240 NA
ATOM      3  C   UNL d   1      52.289  33.156  53.670  0.00  0.00     0.297 A 
ATOM      4  C   UNL d   1      52.770  34.409  54.304  0.00  0.00     0.086 A 
ATOM      5  C   UNL d   1      53.832  33.444  54.410  0.00  0.00     0.083 A 
ATOM      6  C   UNL d   1      52.711  32.779  53.715  0.00  0.00     0.144 A 
ATOM      7  C   UNL d   1      53.540  34.206  54.553  0.00  0.00     0.035 A 
ATOM      8  O   UNL d   1      51.628  32.849  53.289  0.00  0.00    -0.264 OA
ATOM      9  C   UNL d   1      54.002  34.771  54.940  0.00  0.00     0.003 A 
ATOM     10  C   UNL d   1      54.594  33.243  54.656  0.00  0.00     0.019 A 
ATOM     11  C   UNL d   1      52.476  35.169  54.445  0.00  0.00     0.019 A 
ATOM     12  C   UNL d   1      55.068  33.811  55.050  0.00  0.00     0.002 A 
ATOM     13  C   UNL d   1      52.944  35.728  54.833  0.00  0.00     0.002 A 
ATOM     14  C   UNL d   1      53.706  35.528  55.080  0.00  0.00     0.000 A 
ATOM     15  C   UNL d   1      54.773  34.568  55.190  0.00  0.00     0.000 A 
ENDROOT
BRANCH   6  16
ATOM     16  C   UNL d   1      52.528  32.047  53.385  0.00  0.00     0.086 C 
BRANCH  16  17
ATOM     17  C   UNL d   1      52.673  31.916  52.575  0.00  0.00     0.281 C 
ATOM     18  N   UNL d   1      52.888  31.161  52.312  0.00  0.00    -0.208 NA
ATOM     19  O   UNL d   1      52.604  32.535  52.034  0.00  0.00    -0.265 OA
BRANCH  18  20
ATOM     20  C   UNL d   1      52.958  30.538  52.850  0.00  0.00     0.085 A 
ATOM     21  C   UNL d   1      53.701  30.322  53.125  0.00  0.00     0.021 A 
ATOM     22  C   UNL d   1      53.779  29.701  53.660  0.00  0.00     0.021 A 
ATOM     23  C   UNL d   1      53.103  29.295  53.922  0.00  0.00     0.085 A 
ATOM     24  C   UNL d   1      52.359  29.515  53.643  0.00  0.00     0.021 A 
ATOM     25  C   UNL d   1      52.286  30.136  53.107  0.00  0.00     0.021 A 
BRANCH  23  26
ATOM     26  N   UNL d   1      53.176  28.685  54.448  0.00  0.00    -0.208 NA
ATOM     27  C   UNL d   1      53.266  28.843  55.242  0.00  0.00     0.279 C 
ATOM     28  O   UNL d   1      53.284  29.607  55.509  0.00  0.00    -0.265 OA
ATOM     29  C   UNL d   1      53.339  28.227  55.776  0.00  0.00     0.068 C 
ENDBRANCH  23  26
ENDBRANCH  18  20
ENDBRANCH  16  17
ENDBRANCH   6  16
TORSDOF 4
ENDMDL
MODEL 3
REMARK VINA RESULT:      -7.4      1.337      5.234
REMARK  4 active torsions:
REMARK  status: ('A' for Active; 'I' for Inactive)
REMARK    1  A    between atoms: C_8  and  C_6 
REMARK    2  A    between atoms: C_9  and  C_8 
REMARK       I    between atoms: N_11  and  C_9 
REMARK       I    between atoms: C_10  and  N_12 
REMARK    3  A    between atoms: C_17  and  N_11 
REMARK    4  A    between atoms: N_12  and  C_18 
ROOT
ATOM      1  N   UNL d   1      53.591  31.067  55.071  0.00  0.00    -0.207 NA
ATOM      2  N   UNL d   1      53.200  31.511  53.501  0.00  0.00    -0.240 NA
ATOM      3  C   UNL d   1      53.541  31.791  54.704  0.00  0.00     0.297 A 
ATOM      4  C   UNL d   1      53.460  30.311  54.768  0.00  0.00     0.086 A 
ATOM      5  C   UNL d   1      53.125  30.697  53.423  0.00  0.00     0.083 A 
ATOM      6  C   UNL d   1      53.408  31.938  54.172  0.00  0.00     0.144 A 
ATOM      7  C   UNL d   1      53.238  30.104  53.991  0.00  0.00     0.035 A 
ATOM      8  O   UNL d   1      53.711  32.441  55.179  0.00  0.00    -0.264 OA
ATOM      9  C   UNL d   1      53.134  29.308  53.798  0.00  0.00     0.003 A 
ATOM     10  C   UNL d   1      52.905  30.493  52.654  0.00  0.00     0.019 A 
ATOM     11  C   UNL d   1      53.574  29.722  55.337  0.00  0.00     0.019 A 
ATOM     12  C   UNL d   1      52.797  29.686  52.451  0.00  0.00     0.002 A 
ATOM     13  C   UNL d   1      53.467  28.927  55.136  0.00  0.00     0.002 A 
ATOM     14  C   UNL d   1      53.248  28.721  54.367  0.00  0.00     0.000 A 
ATOM     15  C   UNL d   1      52.911  29.100  53.020  0.00  0.00     0.000 A 
ENDROOT
BRANCH   6  16
ATOM     16  C   UNL d   1      53.428  32.752  54.046  0.00  0.00     0.086 C 
BRANCH  16  17
ATOM     17  C   UNL d   1      54.042  33.079  53.588  0.00  0.00     0.281 C 
ATOM     18  N   UNL d   1      53.893  33.739  53.111  0.00  0.00    -0.208 NA
ATOM     19  O   UNL d   1      54.798  32.748  53.606  0.00  0.00    -0.265 OA
BRANCH  18  20
ATOM     20  C   UNL d   1      53.138  34.074  53.088  0.00  0.00     0.085 A 
ATOM     21  C   UNL d   1      52.641  33.912  52.454  0.00  0.00     0.021 A 
ATOM     22  C   UNL d   1      51.888  34.243  52.425  0.00  0.00     0.021 A 
ATOM     23  C   UNL d   1      51.632  34.740  53.039  0.00  0.00     0.085 A 
ATOM     24  C   UNL d   1      52.133  34.900  53.674  0.00  0.00     0.021 A 
ATOM     25  C   UNL d   1      52.886  34.567  53.698  0.00  0.00     0.021 A 
BRANCH  23  26
ATOM     26  N   UNL d   1      50.892  35.066  53.013  0.00  0.00    -0.208 NA
ATOM     27  C   UNL d   1      50.234  34.587  53.056  0.00  0.00     0.279 C 
ATOM     28  O   UNL d   1      50.316  33.784  53.124  0.00  0.00    -0.265 OA
ATOM     29  C   UNL d   1      49.486  34.915  53.031  0.00  0.00     0.068 C 
ENDBRANCH  23  26
ENDBRANCH  18  20
ENDBRANCH  16  17
ENDBRANCH   6  16
TORSDOF 4
ENDMDL
MODEL 4
REMARK VINA RESULT:      -7.2      1.229      5.187
REMARK  4 active torsions:
REMARK  status: ('A' for Active; 'I' for Inactive)
REMARK    1  A    between atoms: C_8  and  C_6 
REMARK    2  A    between atoms: C_9  and  C_8 
REMARK       I    between atoms: N_11  and  C_9 
REMARK       I    between atoms: C_10  and  N_12 
REMARK    3  A    between atoms: C_17  and  N_11 
REMARK    4  A    between atoms: N_12  and  C_18 
ROOT
ATOM      1  N   UNL d   1      52.953  34.616  54.024  0.00  0.00    -0.207 NA
ATOM      2  N   UNL d   1      52.172  33.373  53.213  0.00  0.00    -0.240 NA
ATOM      3  C   UNL d   1      52.295  34.604  53.547  0.00  0.00     0.297 A 
ATOM      4  C   UNL d   1      53.449  33.999  54.257  0.00  0.00     0.086 A 
ATOM      5  C   UNL d   1      52.774  32.936  53.559  0.00  0.00     0.083 A 
ATOM      6  C   UNL d   1      52.032  34.181  53.273  0.00  0.00     0.144 A 
ATOM      7  C   UNL d   1      53.389  33.192  54.053  0.00  0.00     0.035 A 
ATOM      8  O   UNL d   1      51.930  35.332  53.429  0.00  0.00    -0.264 OA
ATOM      9  C   UNL d   1      53.945  32.657  54.348  0.00  0.00     0.003 A 
ATOM     10  C   UNL d   1      52.715  32.138  53.357  0.00  0.00     0.019 A 
ATOM     11  C   UNL d   1      54.060  34.257  54.749  0.00  0.00     0.019 A 
ATOM     12  C   UNL d   1      53.276  31.590  53.653  0.00  0.00     0.002 A 
ATOM     13  C   UNL d   1      54.613  33.716  55.040  0.00  0.00     0.002 A 
ATOM     14  C   UNL d   1      54.555  32.918  54.839  0.00  0.00     0.000 A 
ATOM     15  C   UNL d   1      53.886  31.850  54.144  0.00  0.00     0.000 A 
ENDROOT
BRANCH   6  16
ATOM     16  C   UNL d   1      51.372  34.430  52.847  0.00  0.00     0.086 C 
BRANCH  16  17
ATOM     17  C   UNL d   1      51.263  34.158  52.068  0.00  0.00     0.281 C 
ATOM     18  N   UNL d   1      50.520  34.222  51.710  0.00  0.00    -0.208 NA
ATOM     19  O   UNL d   1      51.893  33.826  51.650  0.00  0.00    -0.265 OA
BRANCH  18  20
ATOM     20  C   UNL d   1      49.886  34.554  52.123  0.00  0.00     0.085 A 
ATOM     21  C   UNL d   1      49.506  35.215  51.819  0.00  0.00     0.021 A 
ATOM     22  C   UNL d   1      48.874  35.551  52.225  0.00  0.00     0.021 A 
ATOM     23  C   UNL d   1      48.622  35.220  52.944  0.00  0.00     0.085 A 
ATOM     24  C   UNL d   1      49.007  34.556  53.246  0.00  0.00     0.021 A 
ATOM     25  C   UNL d   1      49.639  34.223  52.836  0.00  0.00     0.021 A 
BRANCH  23  26
ATOM     26  N   UNL d   1      48.002  35.547  53.346  0.00  0.00    -0.208 NA
ATOM     27  C   UNL d   1      48.120  36.209  53.808  0.00  0.00     0.279 C 
ATOM     28  O   UNL d   1      48.856  36.541  53.866  0.00  0.00    -0.265 OA
ATOM     29  C   UNL d   1      47.494  36.541  54.215  0.00  0.00     0.068 C 
ENDBRANCH  23  26
ENDBRANCH  18  20
ENDBRANCH  16  17
ENDBRANCH   6  16
TORSDOF 4
ENDMDL
MODEL 5
REMARK VINA RESULT:      -6.7      1.476      5.144
REMARK  4 active torsions:
REMARK  status: ('A' for Active; 'I' for Inactive)
REMARK    1  A    between atoms: C_8  and  C_6 
REMARK    2  A    between atoms: C_9  and  C_8 
REMARK       I    between atoms: N_11  and  C_9 
REMARK       I    between atoms: C_10  and  N_12 
REMARK    3  A    between atoms: C_17  and  N_11 
REMARK    4  A    between atoms: N_12  and  C_18 
ROOT
ATOM      1  N   UNL d   1      52.203  32.644  53.622  0.00  0.00    -0.207 NA
ATOM      2  N   UNL d   1      52.021  34.309  53.529  0.00  0.00    -0.240 NA
ATOM      3  C   UNL d   1      51.642  33.113  53.267  0.00  0.00     0.297 A 
ATOM      4  C   UNL d   1      52.872  32.856  54.057  0.00  0.00     0.086 A 
ATOM      5  C   UNL d   1      52.711  34.284  53.973  0.00  0.00     0.083 A 
ATOM      6  C   UNL d   1      51.583  33.677  53.237  0.00  0.00     0.144 A 
ATOM      7  C   UNL d   1      53.138  33.625  54.239  0.00  0.00     0.035 A 
ATOM      8  O   UNL d   1      51.042  32.710  52.874  0.00  0.00    -0.264 OA
ATOM      9  C   UNL d   1      53.827  33.720  54.685  0.00  0.00     0.003 A 
ATOM     10  C   UNL d   1      52.974  35.045  54.154  0.00  0.00     0.019 A 
ATOM     11  C   UNL d   1      53.296  32.198  54.320  0.00  0.00     0.019 A 
ATOM     12  C   UNL d   1      53.673  35.148  54.606  0.00  0.00     0.002 A 
ATOM     13  C   UNL d   1      53.985  32.301  54.766  0.00  0.00     0.002 A 
ATOM     14  C   UNL d   1      54.249  33.061  54.947  0.00  0.00     0.000 A 
ATOM     15  C   UNL d   1      54.094  34.490  54.868  0.00  0.00     0.000 A 
ENDROOT
BRANCH   6  16
ATOM     16  C   UNL d   1      50.917  33.912  52.812  0.00  0.00     0.086 C 
BRANCH  16  17
ATOM     17  C   UNL d   1      51.005  34.161  52.022  0.00  0.00     0.281 C 
ATOM     18  N   UNL d   1      50.415  34.620  51.667  0.00  0.00    -0.208 NA
ATOM     19  O   UNL d   1      51.678  33.952  51.591  0.00  0.00    -0.265 OA
BRANCH  18  20
ATOM     20  C   UNL d   1      49.740  34.832  52.094  0.00  0.00     0.085 A 
ATOM     21  C   UNL d   1      49.008  34.535  51.868  0.00  0.00     0.021 A 
ATOM     22  C   UNL d   1      48.331  34.742  52.289  0.00  0.00     0.021 A 
ATOM     23  C   UNL d   1      48.391  35.251  52.942  0.00  0.00     0.085 A 
ATOM     24  C   UNL d   1      49.128  35.547  53.165  0.00  0.00     0.021 A 
ATOM     25  C   UNL d   1      49.802  35.337  52.742  0.00  0.00     0.021 A 
BRANCH  23  26
ATOM     26  N   UNL d   1      47.729  35.457  53.358  0.00  0.00    -0.208 NA
ATOM     27  C   UNL d   1      47.318  36.132  53.160  0.00  0.00     0.279 C 
ATOM     28  O   UNL d   1      47.568  36.600  52.548  0.00  0.00    -0.265 OA
ATOM     29  C   UNL d   1      46.648  36.341  53.579  0.00  0.00     0.068 C 
ENDBRANCH  23  26
ENDBRANCH  18  20
ENDBRANCH  16  17
ENDBRANCH   6  16
TORSDOF 4
ENDMDL
MODEL 6
REMARK VINA RESULT:      -5.7      1.373      2.243
REMARK  4 active torsions:
REMARK  status: ('A' for Active; 'I' for Inactive)
REMARK    1  A    between atoms: C_8  and  C_6 
REMARK    2  A    between atoms: C_9  and  C_8 
REMARK       I    between atoms: N_11  and  C_9 
REMARK       I    between atoms: C_10  and  N_12 
REMARK    3  A    between atoms: C_17  and  N_11 
REMARK    4  A    between atoms: N_12  and  C_18 
ROOT
ATOM      1  N   UNL d   1      49.130  35.567  53.252  0.00  0.00    -0.207 NA
ATOM      2  N   UNL d   1      49.440  34.609  51.909  0.00  0.00    -0.240 NA
ATOM      3  C   UNL d   1      49.774  35.117  53.038  0.00  0.00     0.297 A 
ATOM      4  C   UNL d   1      48.415  35.688  52.857  0.00  0.00     0.086 A 
ATOM      5  C   UNL d   1      48.686  34.865  51.709  0.00  0.00     0.083 A 
ATOM      6  C   UNL d   1      49.875  34.794  52.582  0.00  0.00     0.144 A 
ATOM      7  C   UNL d   1      48.177  35.369  52.125  0.00  0.00     0.035 A 
ATOM      8  O   UNL d   1      50.401  35.122  53.569  0.00  0.00    -0.264 OA
ATOM      9  C   UNL d   1      47.432  35.561  51.823  0.00  0.00     0.003 A 
ATOM     10  C   UNL d   1      48.450  34.549  50.983  0.00  0.00     0.019 A 
ATOM     11  C   UNL d   1      47.909  36.191  53.275  0.00  0.00     0.019 A 
ATOM     12  C   UNL d   1      47.696  34.740  50.672  0.00  0.00     0.002 A 
ATOM     13  C   UNL d   1      47.166  36.378  52.967  0.00  0.00     0.002 A 
ATOM     14  C   UNL d   1      46.928  36.063  52.242  0.00  0.00     0.000 A 
ATOM     15  C   UNL d   1      47.192  35.241  51.089  0.00  0.00     0.000 A 
ENDROOT
BRANCH   6  16
ATOM     16  C   UNL d   1      50.616  34.434  52.599  0.00  0.00     0.086 C 
BRANCH  16  17
ATOM     17  C   UNL d   1      51.008  34.273  51.882  0.00  0.00     0.281 C 
ATOM     18  N   UNL d   1      51.771  33.952  51.893  0.00  0.00    -0.208 NA
ATOM     19  O   UNL d   1      50.640  34.432  51.160  0.00  0.00    -0.265 OA
BRANCH  18  20
ATOM     20  C   UNL d   1      52.145  33.791  52.612  0.00  0.00     0.085 A 
ATOM     21  C   UNL d   1      52.595  34.375  52.975  0.00  0.00     0.021 A 
ATOM     22  C   UNL d   1      52.969  34.222  53.692  0.00  0.00     0.021 A 
ATOM     23  C   UNL d   1      52.891  33.475  54.047  0.00  0.00     0.085 A 
ATOM     24  C   UNL d   1      52.438  32.892  53.679  0.00  0.00     0.021 A 
ATOM     25  C   UNL d   1      52.065  33.050  52.963  0.00  0.00     0.021 A 
BRANCH  23  26
ATOM     26  N   UNL d   1      53.257  33.321  54.751  0.00  0.00    -0.208 NA
ATOM     27  C   UNL d   1      54.009  33.006  54.758  0.00  0.00     0.279 C 
ATOM     28  O   UNL d   1      54.392  32.846  54.063  0.00  0.00    -0.265 OA
ATOM     29  C   UNL d   1      54.381  32.849  55.469  0.00  0.00     0.068 C 
ENDBRANCH  23  26
ENDBRANCH  18  20
ENDBRANCH  16  17
ENDBRANCH   6  16
TORSDOF 4
ENDMDL
MODEL 7
REMARK VINA RESULT:      -5.3      1.369      5.168
REMARK  4 active torsions:
REMARK  status: ('A' for Active; 'I' for Inactive)
REMARK    1  A    between atoms: C_8  and  C_6 
REMARK    2  A    between atoms: C_9  and  C_8 
REMARK       I    between atoms: N_11  and  C_9 
REMARK       I    between atoms: C_10  and  N_12 
REMARK    3  A    between atoms: C_17  and  N_11 
REMARK    4  A    between atoms: N_12  and  C_18 
ROOT
ATOM      1  N   UNL d   1      51.767  31.524  53.263  0.00  0.00    -0.207 NA
ATOM      2  N   UNL d   1      52.493  33.036  53.221  0.00  0.00    -0.240 NA
ATOM      3  C   UNL d   1      51.461  32.276  53.218  0.00  0.00     0.297 A 
ATOM      4  C   UNL d   1      52.553  31.274  53.302  0.00  0.00     0.086 A 
ATOM      5  C   UNL d   1      53.170  32.573  53.266  0.00  0.00     0.083 A 
ATOM      6  C   UNL d   1      51.710  32.787  53.204  0.00  0.00     0.144 A 
ATOM      7  C   UNL d   1      53.239  31.748  53.305  0.00  0.00     0.035 A 
ATOM      8  O   UNL d   1      50.640  32.323  53.187  0.00  0.00    -0.264 OA
ATOM      9  C   UNL d   1      53.981  31.387  53.348  0.00  0.00     0.003 A 
ATOM     10  C   UNL d   1      53.849  33.043  53.269  0.00  0.00     0.019 A 
ATOM     11  C   UNL d   1      52.618  30.451  53.341  0.00  0.00     0.019 A 
ATOM     12  C   UNL d   1      54.605  32.683  53.312  0.00  0.00     0.002 A 
ATOM     13  C   UNL d   1      53.364  30.097  53.383  0.00  0.00     0.002 A 
ATOM     14  C   UNL d   1      54.043  30.566  53.387  0.00  0.00     0.000 A 
ATOM     15  C   UNL d   1      54.668  31.862  53.351  0.00  0.00     0.000 A 
ENDROOT
BRANCH   6  16
ATOM     16  C   UNL d   1      51.172  33.409  53.157  0.00  0.00     0.086 C 
BRANCH  16  17
ATOM     17  C   UNL d   1      51.387  34.158  53.451  0.00  0.00     0.281 C 
ATOM     18  N   UNL d   1      50.952  34.827  53.230  0.00  0.00    -0.208 NA
ATOM     19  O   UNL d   1      52.032  34.237  53.960  0.00  0.00    -0.265 OA
BRANCH  18  20
ATOM     20  C   UNL d   1      50.306  34.754  52.720  0.00  0.00     0.085 A 
ATOM     21  C   UNL d   1      49.545  34.755  53.029  0.00  0.00     0.021 A 
ATOM     22  C   UNL d   1      48.896  34.683  52.527  0.00  0.00     0.021 A 
ATOM     23  C   UNL d   1      49.014  34.608  51.708  0.00  0.00     0.085 A 
ATOM     24  C   UNL d   1      49.781  34.606  51.403  0.00  0.00     0.021 A 
ATOM     25  C   UNL d   1      50.426  34.679  51.909  0.00  0.00     0.021 A 
BRANCH  23  26
ATOM     26  N   UNL d   1      48.380  34.536  51.212  0.00  0.00    -0.208 NA
ATOM     27  C   UNL d   1      47.825  35.132  51.173  0.00  0.00     0.279 C 
ATOM     28  O   UNL d   1      47.905  35.797  51.628  0.00  0.00    -0.265 OA
ATOM     29  C   UNL d   1      47.183  35.061  50.672  0.00  0.00     0.068 C 
ENDBRANCH  23  26
ENDBRANCH  18  20
ENDBRANCH  16  17
ENDBRANCH   6  16
TORSDOF 4
ENDMDL
