MODEL 1
REMARK VINA RESULT:      -5.2      0.000      0.000
REMARK  6 active torsions:
REMARK  status: ('A' for Active; 'I' for Inactive)
REMARK    1  A    between atoms: C_7  and  S_1 
REMARK    2  A    between atoms: N_11  and  S_1 
REMARK    3  A    between atoms: C_5  and  C_21 
REMARK    4  A    between atoms: C_22  and  N_11 
REMARK    5  A    between atoms: C_20  and  C_13 
REMARK    6  A    between atoms: C_21  and  C_22 
ROOT
ATOM      1  S   UNL d   1     -45.115  12.441  22.676  0.00  0.00     0.285 S 
ATOM      2  O   UNL d   1     -44.433  11.973  22.686  0.00  0.00    -0.198 OA
ATOM      3  O   UNL d   1     -45.449  11.963  23.259  0.00  0.00    -0.198 OA
ENDROOT
BRANCH   1   4
ATOM      4  C   UNL d   1     -45.792  12.903  22.667  0.00  0.00     0.105 A 
ATOM      5  C   UNL d   1     -46.406  12.715  22.142  0.00  0.00     0.013 A 
ATOM      6  C   UNL d   1     -47.090  13.187  22.138  0.00  0.00     0.001 A 
ATOM      7  C   UNL d   1     -47.159  13.825  22.642  0.00  0.00     0.000 A 
ATOM      8  C   UNL d   1     -46.543  14.010  23.165  0.00  0.00     0.001 A 
ATOM      9  C   UNL d   1     -45.859  13.548  23.178  0.00  0.00     0.013 A 
BRANCH   7  10
ATOM     10  C   UNL d   1     -47.834  14.291  22.638  0.00  0.00     0.000 A 
ATOM     11  C   UNL d   1     -47.817  15.046  22.316  0.00  0.00     0.000 A 
ATOM     12  C   UNL d   1     -48.502  15.506  22.317  0.00  0.00     0.000 A 
ATOM     13  C   UNL d   1     -49.199  15.210  22.639  0.00  0.00     0.000 A 
ATOM     14  C   UNL d   1     -49.219  14.450  22.964  0.00  0.00     0.000 A 
ATOM     15  C   UNL d   1     -48.531  13.995  22.960  0.00  0.00     0.000 A 
ENDBRANCH   7  10
ENDBRANCH   1   4
BRANCH   1  16
ATOM     16  N   UNL d   1     -44.777  12.916  22.093  0.00  0.00    -0.157 NA
BRANCH  16  17
ATOM     17  C   UNL d   1     -43.977  12.880  21.946  0.00  0.00     0.114 C 
BRANCH  17  18
ATOM     18  C   UNL d   1     -43.677  13.099  21.203  0.00  0.00     0.042 C 
BRANCH  18  19
ATOM     19  C   UNL d   1     -42.921  13.455  21.156  0.00  0.00     0.102 A 
ATOM     20  N   UNL d   1     -42.768  14.258  21.079  0.00  0.00    -0.227 NA
ATOM     21  C   UNL d   1     -41.952  14.374  21.053  0.00  0.00     0.148 A 
ATOM     22  C   UNL d   1     -41.488  15.045  20.983  0.00  0.00     0.037 A 
ATOM     23  N   UNL d   1     -41.587  13.631  21.115  0.00  0.00    -0.288 N 
ATOM     24  C   UNL d   1     -40.660  14.987  20.973  0.00  0.00     0.005 A 
ATOM     25  C   UNL d   1     -40.301  14.255  21.033  0.00  0.00     0.019 A 
ATOM     26  C   UNL d   1     -40.760  13.572  21.105  0.00  0.00     0.082 A 
ATOM     27  C   UNL d   1     -42.180  13.055  21.179  0.00  0.00     0.101 A 
ENDBRANCH  18  19
ENDBRANCH  17  18
ENDBRANCH  16  17
ENDBRANCH   1  16
TORSDOF 6
ENDMDL
MODEL 2
REMARK VINA RESULT:      -4.5      2.594      6.460
REMARK  6 active torsions:
REMARK  status: ('A' for Active; 'I' for Inactive)
REMARK    1  A    between atoms: C_7  and  S_1 
REMARK    2  A    between atoms: N_11  and  S_1 
REMARK    3  A    between atoms: C_5  and  C_21 
REMARK    4  A    between atoms: C_22  and  N_11 
REMARK    5  A    between atoms: C_20  and  C_13 
REMARK    6  A    between atoms: C_21  and  C_22 
ROOT
ATOM      1  S   UNL d   1     -40.975  14.180  20.968  0.00  0.00     0.285 S 
ATOM      2  O   UNL d   1     -41.106  13.890  21.731  0.00  0.00    -0.198 OA
ATOM      3  O   UNL d   1     -40.276  14.533  21.225  0.00  0.00    -0.198 OA
ENDROOT
BRANCH   1   4
ATOM      4  C   UNL d   1     -40.843  14.469  20.212  0.00  0.00     0.105 A 
ATOM      5  C   UNL d   1     -41.007  15.265  20.047  0.00  0.00     0.013 A 
ATOM      6  C   UNL d   1     -40.871  15.554  19.279  0.00  0.00     0.001 A 
ATOM      7  C   UNL d   1     -40.581  15.062  18.695  0.00  0.00     0.000 A 
ATOM      8  C   UNL d   1     -40.419  14.267  18.864  0.00  0.00     0.001 A 
ATOM      9  C   UNL d   1     -40.550  13.971  19.623  0.00  0.00     0.013 A 
BRANCH   7  10
ATOM     10  C   UNL d   1     -40.447  15.346  17.938  0.00  0.00     0.000 A 
ATOM     11  C   UNL d   1     -41.072  15.444  17.413  0.00  0.00     0.000 A 
ATOM     12  C   UNL d   1     -40.925  15.731  16.654  0.00  0.00     0.000 A 
ATOM     13  C   UNL d   1     -40.159  15.917  16.421  0.00  0.00     0.000 A 
ATOM     14  C   UNL d   1     -39.528  15.819  16.948  0.00  0.00     0.000 A 
ATOM     15  C   UNL d   1     -39.680  15.532  17.706  0.00  0.00     0.000 A 
ENDBRANCH   7  10
ENDBRANCH   1   4
BRANCH   1  16
ATOM     16  N   UNL d   1     -41.676  13.825  20.715  0.00  0.00    -0.157 NA
BRANCH  16  17
ATOM     17  C   UNL d   1     -42.216  13.550  21.258  0.00  0.00     0.114 C 
BRANCH  17  18
ATOM     18  C   UNL d   1     -42.749  12.947  21.051  0.00  0.00     0.042 C 
BRANCH  18  19
ATOM     19  C   UNL d   1     -43.479  12.892  21.454  0.00  0.00     0.102 A 
ATOM     20  N   UNL d   1     -43.735  12.257  21.909  0.00  0.00    -0.227 NA
ATOM     21  C   UNL d   1     -44.484  12.426  22.207  0.00  0.00     0.148 A 
ATOM     22  C   UNL d   1     -45.000  12.005  22.686  0.00  0.00     0.037 A 
ATOM     23  N   UNL d   1     -44.703  13.179  21.936  0.00  0.00    -0.288 N 
ATOM     24  C   UNL d   1     -45.734  12.327  22.899  0.00  0.00     0.005 A 
ATOM     25  C   UNL d   1     -45.949  13.069  22.632  0.00  0.00     0.019 A 
ATOM     26  C   UNL d   1     -45.437  13.501  22.150  0.00  0.00     0.082 A 
ATOM     27  C   UNL d   1     -44.086  13.476  21.469  0.00  0.00     0.101 A 
ENDBRANCH  18  19
ENDBRANCH  17  18
ENDBRANCH  16  17
ENDBRANCH   1  16
TORSDOF 6
ENDMDL
MODEL 3
REMARK VINA RESULT:      -4.5      1.378      5.919
REMARK  6 active torsions:
REMARK  status: ('A' for Active; 'I' for Inactive)
REMARK    1  A    between atoms: C_7  and  S_1 
REMARK    2  A    between atoms: N_11  and  S_1 
REMARK    3  A    between atoms: C_5  and  C_21 
REMARK    4  A    between atoms: C_22  and  N_11 
REMARK    5  A    between atoms: C_20  and  C_13 
REMARK    6  A    between atoms: C_21  and  C_22 
ROOT
ATOM      1  S   UNL d   1     -43.203  12.419  21.780  0.00  0.00     0.285 S 
ATOM      2  O   UNL d   1     -43.730  11.873  22.108  0.00  0.00    -0.198 OA
ATOM      3  O   UNL d   1     -42.603  11.854  21.808  0.00  0.00    -0.198 OA
ENDROOT
BRANCH   1   4
ATOM      4  C   UNL d   1     -42.678  12.959  21.455  0.00  0.00     0.105 A 
ATOM      5  C   UNL d   1     -42.041  13.232  21.910  0.00  0.00     0.013 A 
ATOM      6  C   UNL d   1     -41.512  13.778  21.576  0.00  0.00     0.001 A 
ATOM      7  C   UNL d   1     -41.616  14.044  20.811  0.00  0.00     0.000 A 
ATOM      8  C   UNL d   1     -42.254  13.769  20.358  0.00  0.00     0.001 A 
ATOM      9  C   UNL d   1     -42.785  13.226  20.681  0.00  0.00     0.013 A 
BRANCH   7  10
ATOM     10  C   UNL d   1     -41.094  14.583  20.480  0.00  0.00     0.000 A 
ATOM     11  C   UNL d   1     -40.567  14.349  19.896  0.00  0.00     0.000 A 
ATOM     12  C   UNL d   1     -40.046  14.900  19.571  0.00  0.00     0.000 A 
ATOM     13  C   UNL d   1     -40.054  15.681  19.829  0.00  0.00     0.000 A 
ATOM     14  C   UNL d   1     -40.584  15.919  20.418  0.00  0.00     0.000 A 
ATOM     15  C   UNL d   1     -41.102  15.364  20.740  0.00  0.00     0.000 A 
ENDBRANCH   7  10
ENDBRANCH   1   4
BRANCH   1  16
ATOM     16  N   UNL d   1     -43.805  12.982  21.753  0.00  0.00    -0.157 NA
BRANCH  16  17
ATOM     17  C   UNL d   1     -44.552  12.797  22.020  0.00  0.00     0.114 C 
BRANCH  17  18
ATOM     18  C   UNL d   1     -45.110  13.398  22.155  0.00  0.00     0.042 C 
BRANCH  18  19
ATOM     19  C   UNL d   1     -45.879  13.191  22.410  0.00  0.00     0.102 A 
ATOM     20  N   UNL d   1     -46.067  12.764  23.086  0.00  0.00    -0.227 NA
ATOM     21  C   UNL d   1     -46.885  12.682  23.133  0.00  0.00     0.148 A 
ATOM     22  C   UNL d   1     -47.378  12.316  23.676  0.00  0.00     0.037 A 
ATOM     23  N   UNL d   1     -47.217  13.064  22.475  0.00  0.00    -0.288 N 
ATOM     24  C   UNL d   1     -48.201  12.326  23.573  0.00  0.00     0.005 A 
ATOM     25  C   UNL d   1     -48.528  12.703  22.925  0.00  0.00     0.019 A 
ATOM     26  C   UNL d   1     -48.041  13.074  22.372  0.00  0.00     0.082 A 
ATOM     27  C   UNL d   1     -46.601  13.383  22.021  0.00  0.00     0.101 A 
ENDBRANCH  18  19
ENDBRANCH  17  18
ENDBRANCH  16  17
ENDBRANCH   1  16
TORSDOF 6
ENDMDL
