MODEL 1
REMARK VINA RESULT:      -2.4      0.000      0.000
REMARK  6 active torsions:
REMARK  status: ('A' for Active; 'I' for Inactive)
REMARK    1  A    between atoms: C_12  and  N_1 
REMARK    2  A    between atoms: N_8  and  C_2 
REMARK    3  A    between atoms: C_6  and  C_5 
REMARK    4  A    between atoms: C_7  and  C_6 
REMARK       I    between atoms: N_9  and  C_7 
REMARK    5  A    between atoms: C_19  and  N_8 
REMARK    6  A    between atoms: C_13  and  N_9 
ROOT
ATOM      1  N   UNL d   1      32.995  22.527 -22.376  0.00  0.00    -0.252 N 
ATOM      2  C   UNL d   1      32.946  22.254 -21.593  0.00  0.00     0.182 A 
ATOM      3  C   UNL d   1      33.120  21.868 -22.867  0.00  0.00     0.272 A 
ATOM      4  S   UNL d   1      33.040  21.431 -21.598  0.00  0.00    -0.045 SA
ATOM      5  C   UNL d   1      33.147  21.196 -22.387  0.00  0.00     0.093 A 
ATOM      6  O   UNL d   1      33.203  21.886 -23.698  0.00  0.00    -0.266 OA
ENDROOT
BRANCH   5   7
ATOM      7  C   UNL d   1      33.240  20.382 -22.390  0.00  0.00     0.074 C 
BRANCH   7   8
ATOM      8  C   UNL d   1      33.088  19.781 -22.932  0.00  0.00     0.280 C 
ATOM      9  N   UNL d   1      32.785  19.062 -22.673  0.00  0.00    -0.208 NA
ATOM     10  O   UNL d   1      33.240  19.901 -23.734  0.00  0.00    -0.265 OA
BRANCH   9  11
ATOM     11  C   UNL d   1      32.636  18.463 -23.228  0.00  0.00     0.085 A 
ATOM     12  C   UNL d   1      33.176  17.846 -23.307  0.00  0.00     0.019 A 
ATOM     13  C   UNL d   1      33.043  17.247 -23.851  0.00  0.00     0.002 A 
ATOM     14  C   UNL d   1      32.368  17.265 -24.316  0.00  0.00     0.000 A 
ATOM     15  C   UNL d   1      31.826  17.885 -24.235  0.00  0.00     0.002 A 
ATOM     16  C   UNL d   1      32.225  16.666 -24.866  0.00  0.00     0.000 C 
ATOM     17  C   UNL d   1      31.967  18.480 -23.689  0.00  0.00     0.019 A 
ENDBRANCH   9  11
ENDBRANCH   7   8
ENDBRANCH   5   7
BRANCH   1  18
ATOM     18  C   UNL d   1      32.927  23.327 -22.593  0.00  0.00     0.085 C 
ATOM     19  C   UNL d   1      32.935  23.554 -23.386  0.00  0.00     0.021 C 
ENDBRANCH   1  18
BRANCH   2  20
ATOM     20  N   UNL d   1      32.827  22.656 -20.875  0.00  0.00    -0.221 NA
BRANCH  20  21
ATOM     21  C   UNL d   1      33.046  22.520 -20.091  0.00  0.00     0.101 C 
ATOM     22  C   UNL d   1      32.946  23.114 -19.527  0.00  0.00     0.022 C 
ENDBRANCH  20  21
ENDBRANCH   2  20
TORSDOF 6
ENDMDL
MODEL 2
REMARK VINA RESULT:      -1.4      1.620      4.920
REMARK  6 active torsions:
REMARK  status: ('A' for Active; 'I' for Inactive)
REMARK    1  A    between atoms: C_12  and  N_1 
REMARK    2  A    between atoms: N_8  and  C_2 
REMARK    3  A    between atoms: C_6  and  C_5 
REMARK    4  A    between atoms: C_7  and  C_6 
REMARK       I    between atoms: N_9  and  C_7 
REMARK    5  A    between atoms: C_19  and  N_8 
REMARK    6  A    between atoms: C_13  and  N_9 
ROOT
ATOM      1  N   UNL d   1      31.912  18.042 -24.449  0.00  0.00    -0.252 N 
ATOM      2  C   UNL d   1      32.259  17.534 -23.891  0.00  0.00     0.182 A 
ATOM      3  C   UNL d   1      32.202  18.808 -24.308  0.00  0.00     0.272 A 
ATOM      4  S   UNL d   1      32.760  17.981 -23.407  0.00  0.00    -0.045 SA
ATOM      5  C   UNL d   1      32.723  18.768 -23.667  0.00  0.00     0.093 A 
ATOM      6  O   UNL d   1      32.001  19.495 -24.739  0.00  0.00    -0.266 OA
ENDROOT
BRANCH   5   7
ATOM      7  C   UNL d   1      33.218  19.209 -23.187  0.00  0.00     0.074 C 
BRANCH   7   8
ATOM      8  C   UNL d   1      33.109  19.724 -22.554  0.00  0.00     0.280 C 
ATOM      9  N   UNL d   1      32.869  20.499 -22.691  0.00  0.00    -0.208 NA
ATOM     10  O   UNL d   1      33.240  19.463 -21.782  0.00  0.00    -0.265 OA
BRANCH   9  11
ATOM     11  C   UNL d   1      32.761  21.009 -22.046  0.00  0.00     0.085 A 
ATOM     12  C   UNL d   1      32.162  20.850 -21.505  0.00  0.00     0.019 A 
ATOM     13  C   UNL d   1      32.043  21.344 -20.862  0.00  0.00     0.002 A 
ATOM     14  C   UNL d   1      32.525  22.000 -20.760  0.00  0.00     0.000 A 
ATOM     15  C   UNL d   1      33.127  22.159 -21.306  0.00  0.00     0.002 A 
ATOM     16  C   UNL d   1      32.413  22.504 -20.117  0.00  0.00     0.000 C 
ATOM     17  C   UNL d   1      33.238  21.659 -21.945  0.00  0.00     0.019 A 
ENDBRANCH   9  11
ENDBRANCH   7   8
ENDBRANCH   5   7
BRANCH   1  18
ATOM     18  C   UNL d   1      31.374  17.793 -25.032  0.00  0.00     0.085 C 
ATOM     19  C   UNL d   1      30.578  18.005 -24.994  0.00  0.00     0.021 C 
ENDBRANCH   1  18
BRANCH   2  20
ATOM     20  N   UNL d   1      32.178  16.716 -23.766  0.00  0.00    -0.221 NA
BRANCH  20  21
ATOM     21  C   UNL d   1      32.406  16.196 -23.167  0.00  0.00     0.101 C 
ATOM     22  C   UNL d   1      32.839  15.518 -23.352  0.00  0.00     0.022 C 
ENDBRANCH  20  21
ENDBRANCH   2  20
TORSDOF 6
ENDMDL
MODEL 3
REMARK VINA RESULT:       0.2      2.063      5.314
REMARK  6 active torsions:
REMARK  status: ('A' for Active; 'I' for Inactive)
REMARK    1  A    between atoms: C_12  and  N_1 
REMARK    2  A    between atoms: N_8  and  C_2 
REMARK    3  A    between atoms: C_6  and  C_5 
REMARK    4  A    between atoms: C_7  and  C_6 
REMARK       I    between atoms: N_9  and  C_7 
REMARK    5  A    between atoms: C_19  and  N_8 
REMARK    6  A    between atoms: C_13  and  N_9 
ROOT
ATOM      1  N   UNL d   1      31.236  16.638 -23.929  0.00  0.00    -0.252 N 
ATOM      2  C   UNL d   1      30.993  17.196 -24.495  0.00  0.00     0.182 A 
ATOM      3  C   UNL d   1      31.940  16.915 -23.586  0.00  0.00     0.272 A 
ATOM      4  S   UNL d   1      31.543  17.815 -24.502  0.00  0.00    -0.045 SA
ATOM      5  C   UNL d   1      32.127  17.639 -23.939  0.00  0.00     0.093 A 
ATOM      6  O   UNL d   1      32.379  16.529 -22.989  0.00  0.00    -0.266 OA
ENDROOT
BRANCH   5   7
ATOM      7  C   UNL d   1      32.670  18.252 -23.948  0.00  0.00     0.074 C 
BRANCH   7   8
ATOM      8  C   UNL d   1      32.722  18.988 -23.583  0.00  0.00     0.280 C 
ATOM      9  N   UNL d   1      33.050  19.051 -22.831  0.00  0.00    -0.208 NA
ATOM     10  O   UNL d   1      32.446  19.662 -23.971  0.00  0.00    -0.265 OA
BRANCH   9  11
ATOM     11  C   UNL d   1      33.097  19.798 -22.472  0.00  0.00     0.085 A 
ATOM     12  C   UNL d   1      33.045  19.853 -21.653  0.00  0.00     0.019 A 
ATOM     13  C   UNL d   1      33.090  20.583 -21.283  0.00  0.00     0.002 A 
ATOM     14  C   UNL d   1      33.188  21.260 -21.735  0.00  0.00     0.000 A 
ATOM     15  C   UNL d   1      33.241  21.203 -22.558  0.00  0.00     0.002 A 
ATOM     16  C   UNL d   1      33.235  22.000 -21.372  0.00  0.00     0.000 C 
ATOM     17  C   UNL d   1      33.194  20.469 -22.920  0.00  0.00     0.019 A 
ENDBRANCH   9  11
ENDBRANCH   7   8
ENDBRANCH   5   7
BRANCH   1  18
ATOM     18  C   UNL d   1      30.821  15.937 -23.763  0.00  0.00     0.085 C 
ATOM     19  C   UNL d   1      30.969  15.510 -23.073  0.00  0.00     0.021 C 
ENDBRANCH   1  18
BRANCH   2  20
ATOM     20  N   UNL d   1      30.337  17.215 -25.005  0.00  0.00    -0.221 NA
BRANCH  20  21
ATOM     21  C   UNL d   1      29.579  17.539 -24.963  0.00  0.00     0.101 C 
ATOM     22  C   UNL d   1      28.926  17.046 -24.854  0.00  0.00     0.022 C 
ENDBRANCH  20  21
ENDBRANCH   2  20
TORSDOF 6
ENDMDL
