MODEL 1
REMARK VINA RESULT:       0.2      0.000      0.000
REMARK  3 active torsions:
REMARK  status: ('A' for Active; 'I' for Inactive)
REMARK    1  A    between atoms: N_5  and  S_1 
REMARK    2  A    between atoms: C_6  and  S_1 
REMARK    3  A    between atoms: C_2  and  C_13 
ROOT
ATOM      1  N   UNL d   1      57.330  -0.302  31.746  0.00  0.00    -0.229 N 
ATOM      2  C   UNL d   1      56.201   0.044  33.226  0.00  0.00     0.039 A 
ATOM      3  C   UNL d   1      56.571  -0.849  31.899  0.00  0.00     0.092 A 
ATOM      4  C   UNL d   1      57.524   0.420  32.334  0.00  0.00     0.092 A 
ATOM      5  C   UNL d   1      56.002  -0.677  32.643  0.00  0.00     0.023 A 
ATOM      6  C   UNL d   1      56.960   0.591  33.072  0.00  0.00     0.023 A 
ENDROOT
BRANCH   1   7
ATOM      7  S   UNL d   1      57.844  -0.456  31.074  0.00  0.00     0.271 S 
ATOM      8  O   UNL d   1      57.359  -1.080  30.839  0.00  0.00    -0.200 OA
ATOM      9  O   UNL d   1      58.331   0.168  31.308  0.00  0.00    -0.200 OA
BRANCH   7  10
ATOM     10  C   UNL d   1      58.341  -0.601  30.431  0.00  0.00     0.106 A 
ATOM     11  C   UNL d   1      59.127  -0.830  30.570  0.00  0.00     0.040 A 
ATOM     12  C   UNL d   1      59.613  -0.971  29.927  0.00  0.00     0.123 A 
ATOM     13  O   UNL d   1      60.401  -1.200  30.046  0.00  0.00    -0.301 OA
ATOM     14  C   UNL d   1      59.331  -0.889  29.148  0.00  0.00     0.123 A 
ATOM     15  C   UNL d   1      61.110  -1.406  29.372  0.00  0.00     0.149 A 
ATOM     16  C   UNL d   1      60.680  -1.282  28.455  0.00  0.00     0.149 A 
ATOM     17  O   UNL d   1      59.823  -1.033  28.511  0.00  0.00    -0.301 OA
ATOM     18  C   UNL d   1      58.536  -0.658  29.033  0.00  0.00     0.028 A 
ATOM     19  C   UNL d   1      58.047  -0.516  29.667  0.00  0.00     0.015 A 
ENDBRANCH   7  10
ENDBRANCH   1   7
BRANCH   2  20
ATOM     20  C   UNL d   1      55.632   0.216  33.970  0.00  0.00     0.163 A 
ATOM     21  N   UNL d   1      55.876   0.301  34.713  0.00  0.00    -0.225 NA
ATOM     22  C   UNL d   1      55.242   0.436  35.159  0.00  0.00     0.101 A 
ATOM     23  C   UNL d   1      55.179   0.559  35.940  0.00  0.00     0.021 A 
ATOM     24  C   UNL d   1      54.609   0.435  34.695  0.00  0.00     0.101 A 
ATOM     25  C   UNL d   1      54.459   0.682  36.240  0.00  0.00     0.002 A 
ATOM     26  C   UNL d   1      53.820   0.682  35.777  0.00  0.00     0.002 A 
ATOM     27  C   UNL d   1      53.901   0.559  35.014  0.00  0.00     0.021 A 
ATOM     28  N   UNL d   1      54.848   0.299  33.958  0.00  0.00    -0.225 NA
ENDBRANCH   2  20
TORSDOF 3
ENDMDL
MODEL 2
REMARK VINA RESULT:       0.5      2.107      6.485
REMARK  3 active torsions:
REMARK  status: ('A' for Active; 'I' for Inactive)
REMARK    1  A    between atoms: N_5  and  S_1 
REMARK    2  A    between atoms: C_6  and  S_1 
REMARK    3  A    between atoms: C_2  and  C_13 
ROOT
ATOM      1  N   UNL d   1      56.349  -0.003  32.579  0.00  0.00    -0.229 N 
ATOM      2  C   UNL d   1      57.569  -0.298  31.161  0.00  0.00     0.039 A 
ATOM      3  C   UNL d   1      56.342  -0.829  32.114  0.00  0.00     0.092 A 
ATOM      4  C   UNL d   1      56.968   0.677  32.334  0.00  0.00     0.092 A 
ATOM      5  C   UNL d   1      56.955  -0.979  31.401  0.00  0.00     0.023 A 
ATOM      6  C   UNL d   1      57.576   0.529  31.627  0.00  0.00     0.023 A 
ENDROOT
BRANCH   1   7
ATOM      7  S   UNL d   1      55.796   0.134  33.224  0.00  0.00     0.271 S 
ATOM      8  O   UNL d   1      55.170   0.163  32.687  0.00  0.00    -0.200 OA
ATOM      9  O   UNL d   1      56.421   0.105  33.761  0.00  0.00    -0.200 OA
BRANCH   7  10
ATOM     10  C   UNL d   1      55.269   0.265  33.845  0.00  0.00     0.106 A 
ATOM     11  C   UNL d   1      54.452   0.251  33.694  0.00  0.00     0.040 A 
ATOM     12  C   UNL d   1      53.936   0.381  34.314  0.00  0.00     0.123 A 
ATOM     13  O   UNL d   1      53.118   0.371  34.182  0.00  0.00    -0.301 OA
ATOM     14  C   UNL d   1      54.218   0.526  35.084  0.00  0.00     0.123 A 
ATOM     15  C   UNL d   1      52.370   0.512  34.830  0.00  0.00     0.149 A 
ATOM     16  C   UNL d   1      52.803   0.680  35.739  0.00  0.00     0.149 A 
ATOM     17  O   UNL d   1      53.696   0.656  35.700  0.00  0.00    -0.301 OA
ATOM     18  C   UNL d   1      55.044   0.535  35.213  0.00  0.00     0.028 A 
ATOM     19  C   UNL d   1      55.563   0.406  34.600  0.00  0.00     0.015 A 
ENDBRANCH   7  10
ENDBRANCH   1   7
BRANCH   2  20
ATOM     20  C   UNL d   1      58.182  -0.447  30.448  0.00  0.00     0.163 A 
ATOM     21  N   UNL d   1      58.710   0.076  30.191  0.00  0.00    -0.225 NA
ATOM     22  C   UNL d   1      59.108  -0.256  29.600  0.00  0.00     0.101 A 
ATOM     23  C   UNL d   1      59.696   0.029  29.151  0.00  0.00     0.021 A 
ATOM     24  C   UNL d   1      58.828  -0.981  29.491  0.00  0.00     0.101 A 
ATOM     25  C   UNL d   1      59.994  -0.438  28.588  0.00  0.00     0.002 A 
ATOM     26  C   UNL d   1      59.716  -1.167  28.475  0.00  0.00     0.002 A 
ATOM     27  C   UNL d   1      59.139  -1.430  28.925  0.00  0.00     0.021 A 
ATOM     28  N   UNL d   1      58.255  -1.102  30.015  0.00  0.00    -0.225 NA
ENDBRANCH   2  20
TORSDOF 3
ENDMDL
MODEL 3
REMARK VINA RESULT:       3.0      4.977      8.057
REMARK  3 active torsions:
REMARK  status: ('A' for Active; 'I' for Inactive)
REMARK    1  A    between atoms: N_5  and  S_1 
REMARK    2  A    between atoms: C_6  and  S_1 
REMARK    3  A    between atoms: C_2  and  C_13 
ROOT
ATOM      1  N   UNL d   1      59.913  -4.253  28.714  0.00  0.00    -0.229 N 
ATOM      2  C   UNL d   1      60.095  -6.135  28.624  0.00  0.00     0.039 A 
ATOM      3  C   UNL d   1      60.755  -4.654  28.883  0.00  0.00     0.092 A 
ATOM      4  C   UNL d   1      59.161  -4.795  28.500  0.00  0.00     0.092 A 
ATOM      5  C   UNL d   1      60.848  -5.600  28.838  0.00  0.00     0.023 A 
ATOM      6  C   UNL d   1      59.253  -5.733  28.456  0.00  0.00     0.023 A 
ENDROOT
BRANCH   1   7
ATOM      7  S   UNL d   1      59.826  -3.398  28.755  0.00  0.00     0.271 S 
ATOM      8  O   UNL d   1      59.015  -3.469  28.629  0.00  0.00    -0.200 OA
ATOM      9  O   UNL d   1      60.639  -3.326  28.881  0.00  0.00    -0.200 OA
BRANCH   7  10
ATOM     10  C   UNL d   1      59.748  -2.577  28.794  0.00  0.00     0.106 A 
ATOM     11  C   UNL d   1      59.083  -2.251  29.170  0.00  0.00     0.040 A 
ATOM     12  C   UNL d   1      59.013  -1.437  29.205  0.00  0.00     0.123 A 
ATOM     13  O   UNL d   1      58.357  -1.093  29.576  0.00  0.00    -0.301 OA
ATOM     14  C   UNL d   1      59.593  -0.941  28.872  0.00  0.00     0.123 A 
ATOM     15  C   UNL d   1      58.131  -0.127  29.698  0.00  0.00     0.149 A 
ATOM     16  C   UNL d   1      58.889   0.402  29.264  0.00  0.00     0.149 A 
ATOM     17  O   UNL d   1      59.516  -0.128  28.911  0.00  0.00    -0.301 OA
ATOM     18  C   UNL d   1      60.254  -1.292  28.499  0.00  0.00     0.028 A 
ATOM     19  C   UNL d   1      60.331  -2.101  28.460  0.00  0.00     0.015 A 
ENDBRANCH   7  10
ENDBRANCH   1   7
BRANCH   2  20
ATOM     20  C   UNL d   1      60.189  -7.082  28.579  0.00  0.00     0.163 A 
ATOM     21  N   UNL d   1      59.592  -7.593  28.556  0.00  0.00    -0.225 NA
ATOM     22  C   UNL d   1      59.897  -8.316  28.521  0.00  0.00     0.101 A 
ATOM     23  C   UNL d   1      59.541  -9.025  28.489  0.00  0.00     0.021 A 
ATOM     24  C   UNL d   1      60.679  -8.255  28.523  0.00  0.00     0.101 A 
ATOM     25  C   UNL d   1      59.996  -9.669  28.457  0.00  0.00     0.002 A 
ATOM     26  C   UNL d   1      60.783  -9.612  28.458  0.00  0.00     0.002 A 
ATOM     27  C   UNL d   1      61.114  -8.909  28.491  0.00  0.00     0.021 A 
ATOM     28  N   UNL d   1      60.863  -7.491  28.558  0.00  0.00    -0.225 NA
ENDBRANCH   2  20
TORSDOF 3
ENDMDL
