MODEL 1
REMARK VINA RESULT:      -4.2      0.000      0.000
REMARK  7 active torsions:
REMARK  status: ('A' for Active; 'I' for Inactive)
REMARK    1  A    between atoms: C_13  and  N_1 
REMARK    2  A    between atoms: C_2  and  N_6 
REMARK    3  A    between atoms: C_9  and  C_5 
REMARK       I    between atoms: N_6  and  C_9 
REMARK    4  A    between atoms: S_14  and  C_7 
REMARK    5  A    between atoms: C_21  and  S_14 
REMARK    6  A    between atoms: C_15  and  C_21 
REMARK    7  A    between atoms: O_25  and  C_15 
ROOT
ATOM      1  N   UNL d   1      57.788  -0.383  31.138  0.00  0.00    -0.181 NA
ATOM      2  C   UNL d   1      57.307   0.197  31.337  0.00  0.00     0.283 C 
ATOM      3  O   UNL d   1      57.032   0.679  30.790  0.00  0.00    -0.265 OA
ENDROOT
BRANCH   2   4
ATOM      4  C   UNL d   1      57.102   0.293  32.078  0.00  0.00     0.080 A 
ATOM      5  C   UNL d   1      56.379   0.325  32.356  0.00  0.00     0.088 A 
ATOM      6  N   UNL d   1      56.422   0.426  33.127  0.00  0.00    -0.273 N 
ATOM      7  C   UNL d   1      57.168   0.457  33.322  0.00  0.00     0.265 A 
ATOM      8  C   UNL d   1      57.596   0.375  32.673  0.00  0.00     0.067 A 
ATOM      9  O   UNL d   1      57.451   0.554  34.045  0.00  0.00    -0.267 OA
BRANCH   6  10
ATOM     10  C   UNL d   1      55.769   0.491  33.649  0.00  0.00     0.067 A 
ATOM     11  C   UNL d   1      55.002   0.590  33.338  0.00  0.00     0.020 A 
ATOM     12  C   UNL d   1      54.356   0.653  33.867  0.00  0.00     0.031 A 
ATOM     13  C   UNL d   1      54.473   0.618  34.685  0.00  0.00     0.140 A 
ATOM     14  C   UNL d   1      55.248   0.518  34.992  0.00  0.00     0.031 A 
ATOM     15  F   UNL d   1      53.822   0.682  35.216  0.00  0.00    -0.204 F 
ATOM     16  C   UNL d   1      55.888   0.455  34.479  0.00  0.00     0.020 A 
ENDBRANCH   6  10
ENDBRANCH   2   4
BRANCH   1  17
ATOM     17  C   UNL d   1      57.995  -0.482  30.396  0.00  0.00     0.219 A 
ATOM     18  S   UNL d   1      58.416  -1.071  30.111  0.00  0.00    -0.019 SA
ATOM     19  C   UNL d   1      58.498  -0.963  29.353  0.00  0.00     0.165 A 
ATOM     20  N   UNL d   1      58.131  -0.306  29.151  0.00  0.00    -0.133 NA
ATOM     21  N   UNL d   1      57.814  -0.004  29.808  0.00  0.00    -0.120 NA
BRANCH  19  22
ATOM     22  S   UNL d   1      59.398  -2.145  28.497  0.00  0.00    -0.053 SA
BRANCH  22  23
ATOM     23  C   UNL d   1      60.004  -2.569  28.883  0.00  0.00     0.106 C 
BRANCH  23  24
ATOM     24  C   UNL d   1      60.030  -3.413  28.831  0.00  0.00     0.303 C 
ATOM     25  O   UNL d   1      59.343  -3.846  28.638  0.00  0.00    -0.259 OA
BRANCH  24  26
ATOM     26  O   UNL d   1      60.763  -3.804  28.979  0.00  0.00    -0.295 OA
ATOM     27  C   UNL d   1      60.912  -4.530  28.597  0.00  0.00     0.185 C 
ENDBRANCH  24  26
ENDBRANCH  23  24
ENDBRANCH  22  23
ENDBRANCH  19  22
ENDBRANCH   1  17
TORSDOF 7
ENDMDL
