MODEL 1
REMARK VINA RESULT:      -7.9      0.000      0.000
REMARK  2 active torsions:
REMARK  status: ('A' for Active; 'I' for Inactive)
REMARK    1  A    between atoms: N_8  and  C_3 
REMARK    2  A    between atoms: C_7  and  N_9 
ROOT
ATOM      1  N   UNL d   1     -47.545  13.397  22.845  0.00  0.00    -0.286 N 
ATOM      2  N   UNL d   1     -46.348  12.267  23.121  0.00  0.00    -0.135 N 
ATOM      3  C   UNL d   1     -47.534  12.930  23.525  0.00  0.00     0.101 A 
ATOM      4  C   UNL d   1     -46.948  13.298  22.293  0.00  0.00     0.101 A 
ATOM      5  C   UNL d   1     -46.339  12.745  22.402  0.00  0.00     0.117 A 
ATOM      6  C   UNL d   1     -46.939  12.369  23.662  0.00  0.00     0.117 A 
ENDROOT
BRANCH   1   7
ATOM      7  C   UNL d   1     -48.117  13.936  22.713  0.00  0.00     0.152 A 
ATOM      8  C   UNL d   1     -48.832  13.735  22.356  0.00  0.00     0.059 A 
ATOM      9  C   UNL d   1     -49.427  14.296  22.219  0.00  0.00     0.115 A 
ATOM     10  C   UNL d   1     -49.096  13.019  22.084  0.00  0.00     0.011 A 
ATOM     11  S   UNL d   1     -50.049  13.919  21.864  0.00  0.00    -0.068 SA
ATOM     12  N   UNL d   1     -49.314  15.065  22.438  0.00  0.00    -0.217 NA
ATOM     13  C   UNL d   1     -49.851  13.152  21.782  0.00  0.00     0.031 A 
ATOM     14  C   UNL d   1     -50.334  12.555  21.440  0.00  0.00     0.007 C 
ATOM     15  C   UNL d   1     -48.596  15.320  22.808  0.00  0.00     0.201 A 
ATOM     16  N   UNL d   1     -47.978  14.738  22.950  0.00  0.00    -0.206 NA
ATOM     17  C   UNL d   1     -48.697  12.257  22.090  0.00  0.00     0.001 C 
ENDBRANCH   1   7
BRANCH   2  18
ATOM     18  C   UNL d   1     -45.709  11.690  23.230  0.00  0.00     0.735 A 
ATOM     19  N   UNL d   1     -44.998  11.882  22.955  0.00  0.00    -0.059 NA
ATOM     20  C   UNL d   1     -44.355  11.347  23.044  0.00  0.00     0.120 A 
ATOM     21  C   UNL d   1     -44.486  10.635  23.416  0.00  0.00     0.043 A 
ATOM     22  C   UNL d   1     -45.238  10.456  23.696  0.00  0.00     0.120 A 
ATOM     23  N   UNL d   1     -45.851  10.966  23.611  0.00  0.00    -0.059 NA
ENDBRANCH   2  18
TORSDOF 2
ENDMDL
MODEL 2
REMARK VINA RESULT:      -7.4      1.431      2.128
REMARK  2 active torsions:
REMARK  status: ('A' for Active; 'I' for Inactive)
REMARK    1  A    between atoms: N_8  and  C_3 
REMARK    2  A    between atoms: C_7  and  N_9 
ROOT
ATOM      1  N   UNL d   1     -48.403  12.854  23.104  0.00  0.00    -0.286 N 
ATOM      2  N   UNL d   1     -46.771  12.817  22.757  0.00  0.00    -0.135 N 
ATOM      3  C   UNL d   1     -47.830  12.881  23.696  0.00  0.00     0.101 A 
ATOM      4  C   UNL d   1     -48.156  12.806  22.323  0.00  0.00     0.101 A 
ATOM      5  C   UNL d   1     -47.353  12.786  22.120  0.00  0.00     0.117 A 
ATOM      6  C   UNL d   1     -47.019  12.863  23.524  0.00  0.00     0.117 A 
ENDROOT
BRANCH   1   7
ATOM      7  C   UNL d   1     -49.182  12.871  23.269  0.00  0.00     0.152 A 
ATOM      8  C   UNL d   1     -49.602  13.580  23.313  0.00  0.00     0.059 A 
ATOM      9  C   UNL d   1     -50.413  13.598  23.486  0.00  0.00     0.115 A 
ATOM     10  C   UNL d   1     -49.351  14.342  23.211  0.00  0.00     0.011 A 
ATOM     11  S   UNL d   1     -50.651  14.372  23.487  0.00  0.00    -0.068 SA
ATOM     12  N   UNL d   1     -50.814  12.909  23.616  0.00  0.00    -0.217 NA
ATOM     13  C   UNL d   1     -50.013  14.819  23.321  0.00  0.00     0.031 A 
ATOM     14  C   UNL d   1     -50.006  15.659  23.266  0.00  0.00     0.007 C 
ATOM     15  C   UNL d   1     -50.426  12.156  23.582  0.00  0.00     0.201 A 
ATOM     16  N   UNL d   1     -49.584  12.137  23.403  0.00  0.00    -0.206 NA
ATOM     17  C   UNL d   1     -48.563  14.633  23.023  0.00  0.00     0.001 C 
ENDBRANCH   1   7
BRANCH   2  18
ATOM     18  C   UNL d   1     -45.931  12.795  22.538  0.00  0.00     0.735 A 
ATOM     19  N   UNL d   1     -45.516  12.165  22.759  0.00  0.00    -0.059 NA
ATOM     20  C   UNL d   1     -44.700  12.111  22.565  0.00  0.00     0.120 A 
ATOM     21  C   UNL d   1     -44.355  12.719  22.148  0.00  0.00     0.043 A 
ATOM     22  C   UNL d   1     -44.808  13.368  21.927  0.00  0.00     0.120 A 
ATOM     23  N   UNL d   1     -45.587  13.420  22.113  0.00  0.00    -0.059 NA
ENDBRANCH   2  18
TORSDOF 2
ENDMDL
MODEL 3
REMARK VINA RESULT:      -6.7      1.610      4.373
REMARK  2 active torsions:
REMARK  status: ('A' for Active; 'I' for Inactive)
REMARK    1  A    between atoms: N_8  and  C_3 
REMARK    2  A    between atoms: C_7  and  N_9 
ROOT
ATOM      1  N   UNL d   1     -47.086  13.520  22.551  0.00  0.00    -0.286 N 
ATOM      2  N   UNL d   1     -48.624  14.165  22.599  0.00  0.00    -0.135 N 
ATOM      3  C   UNL d   1     -47.331  14.019  23.160  0.00  0.00     0.101 A 
ATOM      4  C   UNL d   1     -47.618  13.339  21.955  0.00  0.00     0.101 A 
ATOM      5  C   UNL d   1     -48.390  13.645  21.951  0.00  0.00     0.117 A 
ATOM      6  C   UNL d   1     -48.095  14.339  23.184  0.00  0.00     0.117 A 
ENDROOT
BRANCH   1   7
ATOM      7  C   UNL d   1     -46.351  13.211  22.528  0.00  0.00     0.152 A 
ATOM      8  C   UNL d   1     -46.186  12.457  22.817  0.00  0.00     0.059 A 
ATOM      9  C   UNL d   1     -45.422  12.136  22.794  0.00  0.00     0.115 A 
ATOM     10  C   UNL d   1     -46.676  11.909  23.156  0.00  0.00     0.011 A 
ATOM     11  S   UNL d   1     -45.451  11.395  23.118  0.00  0.00    -0.068 SA
ATOM     12  N   UNL d   1     -44.813  12.566  22.481  0.00  0.00    -0.217 NA
ATOM     13  C   UNL d   1     -46.205  11.258  23.336  0.00  0.00     0.031 A 
ATOM     14  C   UNL d   1     -46.489  10.554  23.698  0.00  0.00     0.007 C 
ATOM     15  C   UNL d   1     -44.934  13.346  22.172  0.00  0.00     0.201 A 
ATOM     16  N   UNL d   1     -45.727  13.679  22.196  0.00  0.00    -0.206 NA
ATOM     17  C   UNL d   1     -47.521  11.961  23.312  0.00  0.00     0.001 C 
ENDBRANCH   1   7
BRANCH   2  18
ATOM     18  C   UNL d   1     -49.432  14.482  22.590  0.00  0.00     0.735 A 
ATOM     19  N   UNL d   1     -49.996  14.025  22.288  0.00  0.00    -0.059 NA
ATOM     20  C   UNL d   1     -50.790  14.300  22.264  0.00  0.00     0.120 A 
ATOM     21  C   UNL d   1     -50.958  15.040  22.557  0.00  0.00     0.043 A 
ATOM     22  C   UNL d   1     -50.352  15.500  22.868  0.00  0.00     0.120 A 
ATOM     23  N   UNL d   1     -49.595  15.238  22.891  0.00  0.00    -0.059 NA
ENDBRANCH   2  18
TORSDOF 2
ENDMDL
MODEL 4
REMARK VINA RESULT:      -6.3      8.309      9.076
REMARK  2 active torsions:
REMARK  status: ('A' for Active; 'I' for Inactive)
REMARK    1  A    between atoms: N_8  and  C_3 
REMARK    2  A    between atoms: C_7  and  N_9 
ROOT
ATOM      1  N   UNL d   1     -40.079  15.282  19.422  0.00  0.00    -0.286 N 
ATOM      2  N   UNL d   1     -39.571  15.234  21.011  0.00  0.00    -0.135 N 
ATOM      3  C   UNL d   1     -40.419  14.772  19.974  0.00  0.00     0.101 A 
ATOM      4  C   UNL d   1     -39.474  15.777  19.668  0.00  0.00     0.101 A 
ATOM      5  C   UNL d   1     -39.200  15.777  20.451  0.00  0.00     0.117 A 
ATOM      6  C   UNL d   1     -40.167  14.748  20.763  0.00  0.00     0.117 A 
ENDROOT
BRANCH   1   7
ATOM      7  C   UNL d   1     -40.322  15.304  18.663  0.00  0.00     0.152 A 
ATOM      8  C   UNL d   1     -39.995  14.814  18.086  0.00  0.00     0.059 A 
ATOM      9  C   UNL d   1     -40.247  14.838  17.297  0.00  0.00     0.115 A 
ATOM     10  C   UNL d   1     -39.413  14.255  18.146  0.00  0.00     0.011 A 
ATOM     11  S   UNL d   1     -39.817  14.292  16.881  0.00  0.00    -0.068 SA
ATOM     12  N   UNL d   1     -40.830  15.351  17.074  0.00  0.00    -0.217 NA
ATOM     13  C   UNL d   1     -39.316  13.942  17.390  0.00  0.00     0.031 A 
ATOM     14  C   UNL d   1     -38.763  13.338  17.196  0.00  0.00     0.007 C 
ATOM     15  C   UNL d   1     -41.196  15.875  17.631  0.00  0.00     0.201 A 
ATOM     16  N   UNL d   1     -40.934  15.850  18.451  0.00  0.00    -0.206 NA
ATOM     17  C   UNL d   1     -38.965  14.010  18.839  0.00  0.00     0.001 C 
ENDBRANCH   1   7
BRANCH   2  18
ATOM     18  C   UNL d   1     -39.280  15.238  21.829  0.00  0.00     0.735 A 
ATOM     19  N   UNL d   1     -38.963  14.573  22.102  0.00  0.00    -0.059 NA
ATOM     20  C   UNL d   1     -38.672  14.540  22.890  0.00  0.00     0.120 A 
ATOM     21  C   UNL d   1     -38.725  15.204  23.356  0.00  0.00     0.043 A 
ATOM     22  C   UNL d   1     -39.061  15.889  23.049  0.00  0.00     0.120 A 
ATOM     23  N   UNL d   1     -39.339  15.921  22.297  0.00  0.00    -0.059 NA
ENDBRANCH   2  18
TORSDOF 2
ENDMDL
MODEL 5
REMARK VINA RESULT:      -5.8      8.447      9.614
REMARK  2 active torsions:
REMARK  status: ('A' for Active; 'I' for Inactive)
REMARK    1  A    between atoms: N_8  and  C_3 
REMARK    2  A    between atoms: C_7  and  N_9 
ROOT
ATOM      1  N   UNL d   1     -38.850  14.896  18.491  0.00  0.00    -0.286 N 
ATOM      2  N   UNL d   1     -38.862  14.319  20.057  0.00  0.00    -0.135 N 
ATOM      3  C   UNL d   1     -39.012  14.106  18.663  0.00  0.00     0.101 A 
ATOM      4  C   UNL d   1     -38.691  15.407  19.111  0.00  0.00     0.101 A 
ATOM      5  C   UNL d   1     -38.690  15.150  19.900  0.00  0.00     0.117 A 
ATOM      6  C   UNL d   1     -39.018  13.819  19.440  0.00  0.00     0.117 A 
ENDROOT
BRANCH   1   7
ATOM      7  C   UNL d   1     -38.844  15.172  17.743  0.00  0.00     0.152 A 
ATOM      8  C   UNL d   1     -39.531  15.430  17.368  0.00  0.00     0.059 A 
ATOM      9  C   UNL d   1     -39.525  15.718  16.591  0.00  0.00     0.115 A 
ATOM     10  C   UNL d   1     -40.293  15.462  17.640  0.00  0.00     0.011 A 
ATOM     11  S   UNL d   1     -40.283  15.922  16.393  0.00  0.00    -0.068 SA
ATOM     12  N   UNL d   1     -38.831  15.750  16.177  0.00  0.00    -0.217 NA
ATOM     13  C   UNL d   1     -40.745  15.769  17.024  0.00  0.00     0.031 A 
ATOM     14  C   UNL d   1     -41.575  15.897  17.065  0.00  0.00     0.007 C 
ATOM     15  C   UNL d   1     -38.099  15.496  16.520  0.00  0.00     0.201 A 
ATOM     16  N   UNL d   1     -38.105  15.198  17.328  0.00  0.00    -0.206 NA
ATOM     17  C   UNL d   1     -40.604  15.231  18.409  0.00  0.00     0.001 C 
ENDBRANCH   1   7
BRANCH   2  18
ATOM     18  C   UNL d   1     -38.860  14.054  20.883  0.00  0.00     0.735 A 
ATOM     19  N   UNL d   1     -38.268  13.591  21.112  0.00  0.00    -0.059 NA
ATOM     20  C   UNL d   1     -38.233  13.316  21.906  0.00  0.00     0.120 A 
ATOM     21  C   UNL d   1     -38.821  13.538  22.424  0.00  0.00     0.043 A 
ATOM     22  C   UNL d   1     -39.430  14.023  22.162  0.00  0.00     0.120 A 
ATOM     23  N   UNL d   1     -39.463  14.285  21.405  0.00  0.00    -0.059 NA
ENDBRANCH   2  18
TORSDOF 2
ENDMDL
