MODEL 1
REMARK VINA RESULT:      38.2      0.000      0.000
REMARK  4 active torsions:
REMARK  status: ('A' for Active; 'I' for Inactive)
REMARK    1  A    between atoms: N_7  and  C_1 
REMARK    2  A    between atoms: C_8  and  C_4 
REMARK    3  A    between atoms: C_10  and  N_7 
REMARK    4  A    between atoms: C_12  and  C_8 
ROOT
ATOM      1  C   UNL d   1      13.407  12.525  -3.281  0.00  0.00     0.184 A 
ATOM      2  N   UNL d   1      13.533  13.252  -2.901  0.00  0.00    -0.129 NA
ATOM      3  N   UNL d   1      13.444  13.957  -3.322  0.00  0.00    -0.147 NA
ATOM      4  C   UNL d   1      13.234  13.945  -4.111  0.00  0.00     0.103 A 
ATOM      5  C   UNL d   1      13.196  12.520  -4.075  0.00  0.00     0.039 A 
ATOM      6  C   UNL d   1      13.107  13.226  -4.496  0.00  0.00     0.022 A 
ATOM      7  C   UNL d   1      13.072  11.784  -4.450  0.00  0.00     0.003 A 
ATOM      8  C   UNL d   1      12.894  13.204  -5.298  0.00  0.00     0.002 A 
ATOM      9  C   UNL d   1      12.772  12.486  -5.665  0.00  0.00     0.000 A 
ATOM     10  C   UNL d   1      12.861  11.780  -5.244  0.00  0.00     0.000 A 
ENDROOT
BRANCH   1  11
ATOM     11  N   UNL d   1      13.495  11.827  -2.864  0.00  0.00    -0.225 NA
BRANCH  11  12
ATOM     12  C   UNL d   1      13.897  11.819  -2.153  0.00  0.00     0.083 A 
ATOM     13  C   UNL d   1      13.485  11.793  -1.442  0.00  0.00     0.020 A 
ATOM     14  C   UNL d   1      13.889  11.785  -0.736  0.00  0.00     0.013 A 
ATOM     15  C   UNL d   1      14.709  11.801  -0.714  0.00  0.00     0.058 A 
ATOM     16  C   UNL d   1      15.124  11.827  -1.429  0.00  0.00     0.013 A 
ATOM     17 CL   UNL d   1      15.120  11.793  -0.021  0.00  0.00    -0.082 Cl
ATOM     18  C   UNL d   1      14.722  11.836  -2.151  0.00  0.00     0.020 A 
ENDBRANCH  11  12
ENDBRANCH   1  11
BRANCH   4  19
ATOM     19  C   UNL d   1      13.145  14.651  -4.532  0.00  0.00     0.021 C 
BRANCH  19  20
ATOM     20  C   UNL d   1      13.737  15.232  -4.494  0.00  0.00     0.005 A 
ATOM     21  C   UNL d   1      14.027  15.561  -5.182  0.00  0.00     0.021 A 
ATOM     22  C   UNL d   1      14.612  16.135  -5.139  0.00  0.00     0.099 A 
ATOM     23  N   UNL d   1      14.902  16.377  -4.408  0.00  0.00    -0.242 NA
ATOM     24  C   UNL d   1      14.607  16.044  -3.717  0.00  0.00     0.099 A 
ATOM     25  C   UNL d   1      14.016  15.464  -3.767  0.00  0.00     0.021 A 
ENDBRANCH  19  20
ENDBRANCH   4  19
TORSDOF 4
ENDMDL
