MODEL 1
REMARK VINA RESULT:      17.1      0.000      0.000
REMARK  5 active torsions:
REMARK  status: ('A' for Active; 'I' for Inactive)
REMARK    1  A    between atoms: C_7  and  N_1 
REMARK    2  A    between atoms: C_23  and  C_5 
REMARK    3  A    between atoms: C_22  and  C_6 
REMARK    4  A    between atoms: C_8  and  C_7 
REMARK       I    between atoms: N_11  and  C_8 
REMARK    5  A    between atoms: C_17  and  N_11 
ROOT
ATOM      1  C   UNL d   1      45.175 -17.477  43.604  0.00  0.00     0.148 C 
ENDROOT
BRANCH   1   2
ATOM      2  N   UNL d   1      45.663 -18.119  43.429  0.00  0.00    -0.235 N 
ATOM      3  C   UNL d   1      45.913 -18.247  42.648  0.00  0.00     0.273 A 
ATOM      4  C   UNL d   1      46.397 -18.883  42.475  0.00  0.00     0.086 A 
ATOM      5  O   UNL d   1      45.672 -17.731  42.048  0.00  0.00    -0.266 OA
ATOM      6  S   UNL d   1      46.642 -19.401  43.063  0.00  0.00    -0.077 SA
ATOM      7  C   UNL d   1      46.397 -19.278  43.839  0.00  0.00     0.086 A 
ATOM      8  C   UNL d   1      45.908 -18.640  44.029  0.00  0.00     0.273 A 
ATOM      9  O   UNL d   1      45.660 -18.514  44.805  0.00  0.00    -0.266 OA
BRANCH   4  10
ATOM     10  C   UNL d   1      46.647 -19.010  41.690  0.00  0.00     0.011 C 
ATOM     11  C   UNL d   1      46.638 -19.773  41.373  0.00  0.00     0.001 C 
ENDBRANCH   4  10
BRANCH   7  12
ATOM     12  C   UNL d   1      46.639 -19.794  44.435  0.00  0.00     0.011 C 
ATOM     13  C   UNL d   1      46.093 -20.308  44.782  0.00  0.00     0.001 C 
ENDBRANCH   7  12
ENDBRANCH   1   2
BRANCH   1  14
ATOM     14  C   UNL d   1      45.501 -16.784  43.908  0.00  0.00     0.297 C 
ATOM     15  N   UNL d   1      45.105 -16.076  43.813  0.00  0.00    -0.207 NA
ATOM     16  O   UNL d   1      46.225 -16.816  44.305  0.00  0.00    -0.264 OA
BRANCH  15  17
ATOM     17  C   UNL d   1      45.432 -15.382  44.117  0.00  0.00     0.087 A 
ATOM     18  C   UNL d   1      45.067 -14.658  43.971  0.00  0.00     0.045 A 
ATOM     19  C   UNL d   1      45.383 -13.964  44.268  0.00  0.00     0.121 A 
ATOM     20  O   UNL d   1      45.145 -13.171  44.215  0.00  0.00    -0.299 OA
ATOM     21  C   UNL d   1      46.075 -13.988  44.719  0.00  0.00     0.119 A 
ATOM     22  C   UNL d   1      45.695 -12.711  44.635  0.00  0.00     0.304 A 
ATOM     23  O   UNL d   1      46.260 -13.222  44.939  0.00  0.00    -0.300 OA
ATOM     24  C   UNL d   1      46.437 -14.721  44.861  0.00  0.00     0.028 A 
ATOM     25  C   UNL d   1      46.118 -15.414  44.562  0.00  0.00     0.021 A 
ENDBRANCH  15  17
ENDBRANCH   1  14
TORSDOF 5
ENDMDL
