MODEL 1
REMARK VINA RESULT:      -5.5      0.000      0.000
REMARK  3 active torsions:
REMARK  status: ('A' for Active; 'I' for Inactive)
REMARK    1  A    between atoms: C_10  and  N_4 
REMARK    2  A    between atoms: C_11  and  N_6 
REMARK    3  A    between atoms: C_16  and  C_11 
ROOT
ATOM      1  C   UNL d   1      57.706  -0.351  31.009  0.00  0.00     0.172 A 
ATOM      2  C   UNL d   1      58.381   0.043  30.745  0.00  0.00     0.113 A 
ATOM      3  N   UNL d   1      57.433  -1.015  30.611  0.00  0.00    -0.206 NA
ATOM      4  N   UNL d   1      57.430   0.052  31.680  0.00  0.00    -0.212 N 
ATOM      5  C   UNL d   1      58.783  -0.226  30.083  0.00  0.00     0.270 A 
ATOM      6  N   UNL d   1      58.511  -0.896  29.678  0.00  0.00    -0.254 N 
ATOM      7  N   UNL d   1      57.935   0.681  31.818  0.00  0.00    -0.162 NA
ATOM      8  C   UNL d   1      57.836  -1.290  29.942  0.00  0.00     0.187 A 
ATOM      9  C   UNL d   1      58.510   0.682  31.258  0.00  0.00     0.129 A 
ATOM     10  O   UNL d   1      59.457   0.168  29.819  0.00  0.00    -0.266 OA
ENDROOT
BRANCH   4  11
ATOM     11  C   UNL d   1      56.783  -0.115  32.145  0.00  0.00     0.085 A 
ATOM     12  C   UNL d   1      56.677  -0.882  32.454  0.00  0.00     0.021 A 
ATOM     13  C   UNL d   1      56.024  -1.043  32.920  0.00  0.00     0.031 A 
ATOM     14  C   UNL d   1      55.462  -0.439  33.089  0.00  0.00     0.140 A 
ATOM     15  C   UNL d   1      55.578   0.305  32.782  0.00  0.00     0.031 A 
ATOM     16  F   UNL d   1      54.790  -0.594  33.566  0.00  0.00    -0.204 F 
ATOM     17  C   UNL d   1      56.230   0.476  32.312  0.00  0.00     0.021 A 
ENDBRANCH   4  11
BRANCH   6  18
ATOM     18  C   UNL d   1      58.914  -1.176  29.003  0.00  0.00     0.104 C 
BRANCH  18  19
ATOM     19  C   UNL d   1      59.105  -1.982  28.938  0.00  0.00     0.099 A 
ATOM     20  N   UNL d   1      59.816  -2.253  29.257  0.00  0.00    -0.242 NA
ATOM     21  C   UNL d   1      60.013  -3.065  29.193  0.00  0.00     0.099 A 
ATOM     22  C   UNL d   1      59.487  -3.563  28.813  0.00  0.00     0.021 A 
ATOM     23  C   UNL d   1      58.770  -3.287  28.492  0.00  0.00     0.003 A 
ATOM     24  C   UNL d   1      58.590  -2.492  28.561  0.00  0.00     0.021 A 
ENDBRANCH  18  19
ENDBRANCH   6  18
TORSDOF 3
ENDMDL
MODEL 2
REMARK VINA RESULT:      -2.5      8.230      9.736
REMARK  3 active torsions:
REMARK  status: ('A' for Active; 'I' for Inactive)
REMARK    1  A    between atoms: C_10  and  N_4 
REMARK    2  A    between atoms: C_11  and  N_6 
REMARK    3  A    between atoms: C_16  and  C_11 
ROOT
ATOM      1  C   UNL d   1      59.729  -9.063  33.807  0.00  0.00     0.172 A 
ATOM      2  C   UNL d   1      59.118  -9.115  34.359  0.00  0.00     0.113 A 
ATOM      3  N   UNL d   1      60.434  -8.692  34.004  0.00  0.00    -0.206 NA
ATOM      4  N   UNL d   1      59.467  -9.432  33.111  0.00  0.00    -0.212 N 
ATOM      5  C   UNL d   1      59.212  -8.797  35.109  0.00  0.00     0.270 A 
ATOM      6  N   UNL d   1      59.921  -8.422  35.313  0.00  0.00    -0.254 N 
ATOM      7  N   UNL d   1      58.707  -9.704  33.244  0.00  0.00    -0.162 NA
ATOM      8  C   UNL d   1      60.532  -8.370  34.761  0.00  0.00     0.187 A 
ATOM      9  C   UNL d   1      58.490  -9.516  33.995  0.00  0.00     0.129 A 
ATOM     10  O   UNL d   1      58.601  -8.849  35.661  0.00  0.00    -0.266 OA
ENDROOT
BRANCH   4  11
ATOM     11  C   UNL d   1      59.861  -9.529  32.405  0.00  0.00     0.085 A 
ATOM     12  C   UNL d   1      60.674  -9.714  32.403  0.00  0.00     0.021 A 
ATOM     13  C   UNL d   1      61.064  -9.809  31.690  0.00  0.00     0.031 A 
ATOM     14  C   UNL d   1      60.648  -9.722  30.962  0.00  0.00     0.140 A 
ATOM     15  C   UNL d   1      59.857  -9.541  30.979  0.00  0.00     0.031 A 
ATOM     16  F   UNL d   1      61.040  -9.818  30.226  0.00  0.00    -0.204 F 
ATOM     17  C   UNL d   1      59.456  -9.443  31.690  0.00  0.00     0.021 A 
ENDBRANCH   4  11
BRANCH   6  18
ATOM     18  C   UNL d   1      60.025  -8.095  36.074  0.00  0.00     0.104 C 
BRANCH  18  19
ATOM     19  C   UNL d   1      60.189  -7.285  36.161  0.00  0.00     0.099 A 
ATOM     20  N   UNL d   1      59.562  -6.749  36.171  0.00  0.00    -0.242 NA
ATOM     21  C   UNL d   1      59.724  -5.930  36.258  0.00  0.00     0.099 A 
ATOM     22  C   UNL d   1      60.503  -5.694  36.330  0.00  0.00     0.021 A 
ATOM     23  C   UNL d   1      61.133  -6.238  36.319  0.00  0.00     0.003 A 
ATOM     24  C   UNL d   1      60.963  -7.033  36.233  0.00  0.00     0.021 A 
ENDBRANCH  18  19
ENDBRANCH   6  18
TORSDOF 3
ENDMDL
