MODEL 1
REMARK VINA RESULT:      43.2      0.000      0.000
REMARK  6 active torsions:
REMARK  status: ('A' for Active; 'I' for Inactive)
REMARK    1  A    between atoms: C_3  and  C_1 
REMARK    2  A    between atoms: C_5  and  C_1 
REMARK    3  A    between atoms: C_2  and  C_5 
REMARK    4  A    between atoms: C_4  and  C_2 
REMARK    5  A    between atoms: C_8  and  C_3 
REMARK    6  A    between atoms: C_7  and  C_4 
ROOT
ATOM      1  C   UNL d   1     -55.234-102.142 -42.047  0.00  0.00     0.196 C 
ATOM      2  O   UNL d   1     -55.811-102.225 -42.642  0.00  0.00    -0.287 OA
ENDROOT
BRANCH   1   3
ATOM      3  C   UNL d   1     -54.732-101.492 -42.050  0.00  0.00     0.042 C 
BRANCH   3   4
ATOM      4  C   UNL d   1     -55.000-100.746 -42.277  0.00  0.00     0.003 C 
BRANCH   4   5
ATOM      5  C   UNL d   1     -54.928-100.463 -43.082  0.00  0.00     0.000 A 
ATOM      6  C   UNL d   1     -55.002 -99.660 -43.257  0.00  0.00     0.002 A 
ATOM      7  C   UNL d   1     -54.932 -99.399 -44.027  0.00  0.00     0.030 A 
ATOM      8  C   UNL d   1     -54.787 -99.939 -44.627  0.00  0.00     0.140 A 
ATOM      9  C   UNL d   1     -54.713-100.742 -44.453  0.00  0.00     0.030 A 
ATOM     10  F   UNL d   1     -54.714 -99.682 -45.419  0.00  0.00    -0.204 F 
ATOM     11  C   UNL d   1     -54.781-101.029 -43.672  0.00  0.00     0.002 A 
ENDBRANCH   4   5
ENDBRANCH   3   4
ENDBRANCH   1   3
BRANCH   1  12
ATOM     12  C   UNL d   1     -55.164-102.705 -41.460  0.00  0.00     0.042 C 
BRANCH  12  13
ATOM     13  C   UNL d   1     -54.755-102.532 -40.765  0.00  0.00     0.003 C 
BRANCH  13  14
ATOM     14  C   UNL d   1     -55.144-102.619 -40.022  0.00  0.00     0.000 A 
ATOM     15  C   UNL d   1     -55.968-102.523 -40.000  0.00  0.00     0.002 A 
ATOM     16  C   UNL d   1     -56.358-102.606 -39.281  0.00  0.00     0.030 A 
ATOM     17  C   UNL d   1     -55.925-102.784 -38.588  0.00  0.00     0.140 A 
ATOM     18  C   UNL d   1     -55.101-102.875 -38.630  0.00  0.00     0.030 A 
ATOM     19  F   UNL d   1     -56.332-102.864 -37.873  0.00  0.00    -0.204 F 
ATOM     20  C   UNL d   1     -54.712-102.792 -39.349  0.00  0.00     0.002 A 
ENDBRANCH  13  14
ENDBRANCH  12  13
ENDBRANCH   1  12
TORSDOF 6
ENDMDL
