MODEL 1
REMARK VINA RESULT:      -9.7      0.000      0.000
REMARK  4 active torsions:
REMARK  status: ('A' for Active; 'I' for Inactive)
REMARK    1  A    between atoms: C_2  and  C_1 
REMARK       I    between atoms: N_3  and  C_1 
REMARK    2  A    between atoms: C_14  and  N_3 
REMARK    3  A    between atoms: C_6  and  S_7 
REMARK    4  A    between atoms: S_7  and  C_15 
ROOT
ATOM      1  C   UNL d   1      54.433  33.790  54.958  0.00  0.00     0.279 C 
ATOM      2  N   UNL d   1      53.920  34.430  54.895  0.00  0.00    -0.208 NA
ATOM      3  O   UNL d   1      55.063  33.813  55.500  0.00  0.00    -0.265 OA
ENDROOT
BRANCH   1   4
ATOM      4  C   UNL d   1      54.324  33.121  54.484  0.00  0.00     0.059 A 
ATOM      5  C   UNL d   1      53.894  32.474  54.777  0.00  0.00     0.025 A 
ATOM      6  C   UNL d   1      53.788  31.804  54.295  0.00  0.00     0.099 A 
ATOM      7  N   UNL d   1      53.356  31.157  54.591  0.00  0.00    -0.241 NA
ATOM      8  C   UNL d   1      54.104  31.779  53.536  0.00  0.00     0.099 A 
ATOM      9  C   UNL d   1      53.248  30.488  54.113  0.00  0.00     0.120 A 
ATOM     10  C   UNL d   1      53.572  30.467  53.342  0.00  0.00     0.120 A 
ATOM     11  N   UNL d   1      53.998  31.114  53.062  0.00  0.00    -0.241 NA
ATOM     12  C   UNL d   1      54.532  32.423  53.246  0.00  0.00     0.021 A 
ATOM     13  C   UNL d   1      54.644  33.096  53.717  0.00  0.00     0.006 A 
ENDBRANCH   1   4
BRANCH   2  14
ATOM     14  C   UNL d   1      53.296  34.405  54.356  0.00  0.00     0.085 A 
ATOM     15  C   UNL d   1      53.405  34.693  53.593  0.00  0.00     0.020 A 
ATOM     16  C   UNL d   1      52.785  34.669  53.055  0.00  0.00     0.008 A 
ATOM     17  C   UNL d   1      52.055  34.357  53.280  0.00  0.00     0.034 A 
ATOM     18  C   UNL d   1      51.954  34.071  54.045  0.00  0.00     0.008 A 
ATOM     19  C   UNL d   1      52.574  34.095  54.583  0.00  0.00     0.020 A 
BRANCH  17  20
ATOM     20  S   UNL d   1      51.435  34.333  52.742  0.00  0.00    -0.028 SA
BRANCH  20  21
ATOM     21  C   UNL d   1      50.816  34.308  52.203  0.00  0.00     0.309 C 
ATOM     22  F   UNL d   1      50.975  34.214  51.400  0.00  0.00    -0.165 F 
ATOM     23  F   UNL d   1      50.041  34.378  52.466  0.00  0.00    -0.165 F 
ENDBRANCH  20  21
ENDBRANCH  17  20
ENDBRANCH   2  14
TORSDOF 4
ENDMDL
MODEL 2
REMARK VINA RESULT:      -9.6      2.164      3.464
REMARK  4 active torsions:
REMARK  status: ('A' for Active; 'I' for Inactive)
REMARK    1  A    between atoms: C_2  and  C_1 
REMARK       I    between atoms: N_3  and  C_1 
REMARK    2  A    between atoms: C_14  and  N_3 
REMARK    3  A    between atoms: C_6  and  S_7 
REMARK    4  A    between atoms: S_7  and  C_15 
ROOT
ATOM      1  C   UNL d   1      53.457  34.878  54.409  0.00  0.00     0.279 C 
ATOM      2  N   UNL d   1      53.924  34.274  54.715  0.00  0.00    -0.208 NA
ATOM      3  O   UNL d   1      53.522  35.649  54.712  0.00  0.00    -0.265 OA
ENDROOT
BRANCH   1   4
ATOM      4  C   UNL d   1      52.921  34.721  53.799  0.00  0.00     0.059 A 
ATOM      5  C   UNL d   1      52.127  34.559  53.980  0.00  0.00     0.025 A 
ATOM      6  C   UNL d   1      51.592  34.402  53.361  0.00  0.00     0.099 A 
ATOM      7  N   UNL d   1      50.797  34.239  53.546  0.00  0.00    -0.241 NA
ATOM      8  C   UNL d   1      51.844  34.406  52.578  0.00  0.00     0.099 A 
ATOM      9  C   UNL d   1      50.262  34.082  52.932  0.00  0.00     0.120 A 
ATOM     10  C   UNL d   1      50.523  34.088  52.137  0.00  0.00     0.120 A 
ATOM     11  N   UNL d   1      51.313  34.250  51.969  0.00  0.00    -0.241 NA
ATOM     12  C   UNL d   1      52.635  34.568  52.400  0.00  0.00     0.021 A 
ATOM     13  C   UNL d   1      53.176  34.726  53.008  0.00  0.00     0.006 A 
ENDBRANCH   1   4
BRANCH   2  14
ATOM     14  C   UNL d   1      53.858  33.510  54.413  0.00  0.00     0.085 A 
ATOM     15  C   UNL d   1      53.360  32.968  54.782  0.00  0.00     0.020 A 
ATOM     16  C   UNL d   1      53.292  32.206  54.483  0.00  0.00     0.008 A 
ATOM     17  C   UNL d   1      53.722  31.986  53.814  0.00  0.00     0.034 A 
ATOM     18  C   UNL d   1      54.218  32.533  53.450  0.00  0.00     0.008 A 
ATOM     19  C   UNL d   1      54.285  33.295  53.750  0.00  0.00     0.020 A 
BRANCH  17  20
ATOM     20  S   UNL d   1      53.654  31.224  53.515  0.00  0.00    -0.028 SA
BRANCH  20  21
ATOM     21  C   UNL d   1      53.586  30.462  53.215  0.00  0.00     0.309 C 
ATOM     22  F   UNL d   1      53.052  30.309  52.606  0.00  0.00    -0.165 F 
ATOM     23  F   UNL d   1      54.048  29.857  53.523  0.00  0.00    -0.165 F 
ENDBRANCH  20  21
ENDBRANCH  17  20
ENDBRANCH   2  14
TORSDOF 4
ENDMDL
MODEL 3
REMARK VINA RESULT:      -8.3      2.899      4.083
REMARK  4 active torsions:
REMARK  status: ('A' for Active; 'I' for Inactive)
REMARK    1  A    between atoms: C_2  and  C_1 
REMARK       I    between atoms: N_3  and  C_1 
REMARK    2  A    between atoms: C_14  and  N_3 
REMARK    3  A    between atoms: C_6  and  S_7 
REMARK    4  A    between atoms: S_7  and  C_15 
ROOT
ATOM      1  C   UNL d   1      52.600  32.605  52.545  0.00  0.00     0.279 C 
ATOM      2  N   UNL d   1      52.267  31.858  52.454  0.00  0.00    -0.208 NA
ATOM      3  O   UNL d   1      52.342  33.236  52.071  0.00  0.00    -0.265 OA
ENDROOT
BRANCH   1   4
ATOM      4  C   UNL d   1      53.193  32.730  53.108  0.00  0.00     0.059 A 
ATOM      5  C   UNL d   1      53.002  33.079  53.837  0.00  0.00     0.025 A 
ATOM      6  C   UNL d   1      53.603  33.202  54.400  0.00  0.00     0.099 A 
ATOM      7  N   UNL d   1      53.408  33.553  55.130  0.00  0.00    -0.241 NA
ATOM      8  C   UNL d   1      54.379  32.982  54.240  0.00  0.00     0.099 A 
ATOM      9  C   UNL d   1      54.005  33.677  55.692  0.00  0.00     0.120 A 
ATOM     10  C   UNL d   1      54.792  33.451  55.525  0.00  0.00     0.120 A 
ATOM     11  N   UNL d   1      54.971  33.105  54.798  0.00  0.00    -0.241 NA
ATOM     12  C   UNL d   1      54.567  32.634  53.514  0.00  0.00     0.021 A 
ATOM     13  C   UNL d   1      53.977  32.507  52.947  0.00  0.00     0.006 A 
ENDBRANCH   1   4
BRANCH   2  14
ATOM     14  C   UNL d   1      52.524  31.232  52.926  0.00  0.00     0.085 A 
ATOM     15  C   UNL d   1      52.108  31.040  53.609  0.00  0.00     0.020 A 
ATOM     16  C   UNL d   1      52.362  30.417  54.081  0.00  0.00     0.008 A 
ATOM     17  C   UNL d   1      53.034  29.987  53.869  0.00  0.00     0.034 A 
ATOM     18  C   UNL d   1      53.446  30.186  53.184  0.00  0.00     0.008 A 
ATOM     19  C   UNL d   1      53.191  30.808  52.713  0.00  0.00     0.020 A 
BRANCH  17  20
ATOM     20  S   UNL d   1      53.288  29.364  54.340  0.00  0.00    -0.028 SA
BRANCH  20  21
ATOM     21  C   UNL d   1      53.543  28.742  54.813  0.00  0.00     0.309 C 
ATOM     22  F   UNL d   1      53.784  28.036  54.463  0.00  0.00    -0.165 F 
ATOM     23  F   UNL d   1      53.557  28.827  55.629  0.00  0.00    -0.165 F 
ENDBRANCH  20  21
ENDBRANCH  17  20
ENDBRANCH   2  14
TORSDOF 4
ENDMDL
MODEL 4
REMARK VINA RESULT:      -8.1      1.511      2.654
REMARK  4 active torsions:
REMARK  status: ('A' for Active; 'I' for Inactive)
REMARK    1  A    between atoms: C_2  and  C_1 
REMARK       I    between atoms: N_3  and  C_1 
REMARK    2  A    between atoms: C_14  and  N_3 
REMARK    3  A    between atoms: C_6  and  S_7 
REMARK    4  A    between atoms: S_7  and  C_15 
ROOT
ATOM      1  C   UNL d   1      53.514  31.064  53.252  0.00  0.00     0.279 C 
ATOM      2  N   UNL d   1      52.853  31.195  52.780  0.00  0.00    -0.208 NA
ATOM      3  O   UNL d   1      53.948  30.360  53.174  0.00  0.00    -0.265 OA
ENDROOT
BRANCH   1   4
ATOM      4  C   UNL d   1      53.750  31.632  53.806  0.00  0.00     0.059 A 
ATOM      5  C   UNL d   1      54.331  32.189  53.603  0.00  0.00     0.025 A 
ATOM      6  C   UNL d   1      54.564  32.758  54.164  0.00  0.00     0.099 A 
ATOM      7  N   UNL d   1      55.147  33.315  53.957  0.00  0.00    -0.241 NA
ATOM      8  C   UNL d   1      54.224  32.771  54.913  0.00  0.00     0.099 A 
ATOM      9  C   UNL d   1      55.381  33.883  54.514  0.00  0.00     0.120 A 
ATOM     10  C   UNL d   1      55.033  33.893  55.274  0.00  0.00     0.120 A 
ATOM     11  N   UNL d   1      54.456  33.335  55.465  0.00  0.00    -0.241 NA
ATOM     12  C   UNL d   1      53.646  32.216  55.113  0.00  0.00     0.021 A 
ATOM     13  C   UNL d   1      53.406  31.645  54.562  0.00  0.00     0.006 A 
ENDBRANCH   1   4
BRANCH   2  14
ATOM     14  C   UNL d   1      52.423  31.895  52.860  0.00  0.00     0.085 A 
ATOM     15  C   UNL d   1      51.784  31.923  53.378  0.00  0.00     0.020 A 
ATOM     16  C   UNL d   1      51.355  32.619  53.459  0.00  0.00     0.008 A 
ATOM     17  C   UNL d   1      51.566  33.287  53.021  0.00  0.00     0.034 A 
ATOM     18  C   UNL d   1      52.206  33.251  52.506  0.00  0.00     0.008 A 
ATOM     19  C   UNL d   1      52.634  32.555  52.425  0.00  0.00     0.020 A 
BRANCH  17  20
ATOM     20  S   UNL d   1      51.136  33.983  53.102  0.00  0.00    -0.028 SA
BRANCH  20  21
ATOM     21  C   UNL d   1      50.706  34.678  53.183  0.00  0.00     0.309 C 
ATOM     22  F   UNL d   1      51.027  35.311  53.602  0.00  0.00    -0.165 F 
ATOM     23  F   UNL d   1      49.960  34.740  52.847  0.00  0.00    -0.165 F 
ENDBRANCH  20  21
ENDBRANCH  17  20
ENDBRANCH   2  14
TORSDOF 4
ENDMDL
MODEL 5
REMARK VINA RESULT:      -7.8      2.656      3.904
REMARK  4 active torsions:
REMARK  status: ('A' for Active; 'I' for Inactive)
REMARK    1  A    between atoms: C_2  and  C_1 
REMARK       I    between atoms: N_3  and  C_1 
REMARK    2  A    between atoms: C_14  and  N_3 
REMARK    3  A    between atoms: C_6  and  S_7 
REMARK    4  A    between atoms: S_7  and  C_15 
ROOT
ATOM      1  C   UNL d   1      52.846  31.092  52.802  0.00  0.00     0.279 C 
ATOM      2  N   UNL d   1      53.594  31.045  53.141  0.00  0.00    -0.208 NA
ATOM      3  O   UNL d   1      52.565  30.471  52.327  0.00  0.00    -0.265 OA
ENDROOT
BRANCH   1   4
ATOM      4  C   UNL d   1      52.370  31.756  52.933  0.00  0.00     0.059 A 
ATOM      5  C   UNL d   1      52.407  32.399  52.409  0.00  0.00     0.025 A 
ATOM      6  C   UNL d   1      51.927  33.064  52.546  0.00  0.00     0.099 A 
ATOM      7  N   UNL d   1      51.966  33.708  52.019  0.00  0.00    -0.241 NA
ATOM      8  C   UNL d   1      51.419  33.089  53.194  0.00  0.00     0.099 A 
ATOM      9  C   UNL d   1      51.488  34.372  52.153  0.00  0.00     0.120 A 
ATOM     10  C   UNL d   1      50.974  34.392  52.812  0.00  0.00     0.120 A 
ATOM     11  N   UNL d   1      50.945  33.749  53.326  0.00  0.00    -0.241 NA
ATOM     12  C   UNL d   1      51.384  32.448  53.714  0.00  0.00     0.021 A 
ATOM     13  C   UNL d   1      51.858  31.780  53.587  0.00  0.00     0.006 A 
ENDBRANCH   1   4
BRANCH   2  14
ATOM     14  C   UNL d   1      53.871  31.662  53.613  0.00  0.00     0.085 A 
ATOM     15  C   UNL d   1      54.345  32.247  53.280  0.00  0.00     0.020 A 
ATOM     16  C   UNL d   1      54.622  32.863  53.748  0.00  0.00     0.008 A 
ATOM     17  C   UNL d   1      54.425  32.893  54.549  0.00  0.00     0.034 A 
ATOM     18  C   UNL d   1      53.951  32.305  54.874  0.00  0.00     0.008 A 
ATOM     19  C   UNL d   1      53.674  31.689  54.406  0.00  0.00     0.020 A 
BRANCH  17  20
ATOM     20  S   UNL d   1      54.702  33.509  55.017  0.00  0.00    -0.028 SA
BRANCH  20  21
ATOM     21  C   UNL d   1      54.980  34.125  55.484  0.00  0.00     0.309 C 
ATOM     22  F   UNL d   1      54.531  34.811  55.565  0.00  0.00    -0.165 F 
ATOM     23  F   UNL d   1      55.703  34.055  55.868  0.00  0.00    -0.165 F 
ENDBRANCH  20  21
ENDBRANCH  17  20
ENDBRANCH   2  14
TORSDOF 4
ENDMDL
MODEL 6
REMARK VINA RESULT:      -6.9      2.643      3.301
REMARK  4 active torsions:
REMARK  status: ('A' for Active; 'I' for Inactive)
REMARK    1  A    between atoms: C_2  and  C_1 
REMARK       I    between atoms: N_3  and  C_1 
REMARK    2  A    between atoms: C_14  and  N_3 
REMARK    3  A    between atoms: C_6  and  S_7 
REMARK    4  A    between atoms: S_7  and  C_15 
ROOT
ATOM      1  C   UNL d   1      51.702  34.056  52.476  0.00  0.00     0.279 C 
ATOM      2  N   UNL d   1      52.203  34.630  52.786  0.00  0.00    -0.208 NA
ATOM      3  O   UNL d   1      51.145  34.259  51.894  0.00  0.00    -0.265 OA
ENDROOT
BRANCH   1   4
ATOM      4  C   UNL d   1      51.750  33.274  52.743  0.00  0.00     0.059 A 
ATOM      5  C   UNL d   1      52.286  32.749  52.387  0.00  0.00     0.025 A 
ATOM      6  C   UNL d   1      52.330  31.964  52.660  0.00  0.00     0.099 A 
ATOM      7  N   UNL d   1      52.868  31.441  52.301  0.00  0.00    -0.241 NA
ATOM      8  C   UNL d   1      51.848  31.707  53.276  0.00  0.00     0.099 A 
ATOM      9  C   UNL d   1      52.914  30.658  52.571  0.00  0.00     0.120 A 
ATOM     10  C   UNL d   1      52.423  30.401  53.197  0.00  0.00     0.120 A 
ATOM     11  N   UNL d   1      51.894  30.930  53.543  0.00  0.00    -0.241 NA
ATOM     12  C   UNL d   1      51.316  32.231  53.629  0.00  0.00     0.021 A 
ATOM     13  C   UNL d   1      51.264  33.015  53.365  0.00  0.00     0.006 A 
ENDBRANCH   1   4
BRANCH   2  14
ATOM     14  C   UNL d   1      52.754  34.427  53.364  0.00  0.00     0.085 A 
ATOM     15  C   UNL d   1      53.513  34.199  53.140  0.00  0.00     0.020 A 
ATOM     16  C   UNL d   1      54.065  33.996  53.714  0.00  0.00     0.008 A 
ATOM     17  C   UNL d   1      53.857  34.019  54.513  0.00  0.00     0.034 A 
ATOM     18  C   UNL d   1      53.096  34.248  54.729  0.00  0.00     0.008 A 
ATOM     19  C   UNL d   1      52.545  34.451  54.154  0.00  0.00     0.020 A 
BRANCH  17  20
ATOM     20  S   UNL d   1      54.408  33.816  55.087  0.00  0.00    -0.028 SA
BRANCH  20  21
ATOM     21  C   UNL d   1      54.960  33.611  55.660  0.00  0.00     0.309 C 
ATOM     22  F   UNL d   1      54.815  32.970  56.156  0.00  0.00    -0.165 F 
ATOM     23  F   UNL d   1      55.652  34.046  55.736  0.00  0.00    -0.165 F 
ENDBRANCH  20  21
ENDBRANCH  17  20
ENDBRANCH   2  14
TORSDOF 4
ENDMDL
