MODEL 1
REMARK VINA RESULT:      63.2      0.000      0.000
REMARK  8 active torsions:
REMARK  status: ('A' for Active; 'I' for Inactive)
REMARK    1  A    between atoms: C_6  and  N_1 
REMARK    2  A    between atoms: C_7  and  C_2 
REMARK    3  A    between atoms: C_3  and  C_9 
REMARK    4  A    between atoms: O_5  and  C_3 
REMARK    5  A    between atoms: C_4  and  O_5 
REMARK    6  A    between atoms: C_8  and  C_7 
REMARK    7  A    between atoms: C_12  and  C_8 
REMARK    8  A    between atoms: C_10  and  C_12 
ROOT
ATOM      1  C   UNL d   1      60.320  49.203  51.166  0.00  0.00     0.064 A 
ATOM      2  C   UNL d   1      60.758  48.506  51.094  0.00  0.00     0.106 A 
ATOM      3  C   UNL d   1      60.299  49.604  51.896  0.00  0.00     0.035 A 
ATOM      4  C   UNL d   1      61.175  48.209  51.751  0.00  0.00     0.027 A 
ATOM      5  C   UNL d   1      60.714  49.307  52.544  0.00  0.00     0.140 A 
ATOM      6  C   UNL d   1      61.152  48.610  52.472  0.00  0.00     0.032 A 
ATOM      7  F   UNL d   1      60.691  49.708  53.265  0.00  0.00    -0.204 F 
ENDROOT
BRANCH   2   8
ATOM      8  O   UNL d   1      60.783  48.101  50.372  0.00  0.00    -0.273 OA
BRANCH   8   9
ATOM      9  C   UNL d   1      61.473  47.703  50.150  0.00  0.00     0.300 C 
ATOM     10  O   UNL d   1      62.183  48.112  50.068  0.00  0.00    -0.259 OA
BRANCH   9  11
ATOM     11  C   UNL d   1      61.445  46.891  50.009  0.00  0.00     0.065 A 
ATOM     12  C   UNL d   1      61.106  46.391  50.568  0.00  0.00     0.029 A 
ATOM     13  C   UNL d   1      61.074  45.583  50.436  0.00  0.00     0.127 A 
ATOM     14  C   UNL d   1      61.399  45.281  49.713  0.00  0.00     0.024 A 
ATOM     15  C   UNL d   1      61.725  45.766  49.176  0.00  0.00     0.002 A 
ATOM     16  C   UNL d   1      61.757  46.583  49.310  0.00  0.00     0.005 A 
BRANCH  13  17
ATOM     17  N   UNL d   1      60.733  45.063  50.994  0.00  0.00    -0.114 N 
ATOM     18  O   UNL d   1      60.125  44.563  50.771  0.00  0.00    -0.532 OA
ATOM     19  O   UNL d   1      61.017  45.061  51.769  0.00  0.00    -0.532 OA
ENDBRANCH  13  17
ENDBRANCH   9  11
ENDBRANCH   8   9
ENDBRANCH   2   8
BRANCH   1  20
ATOM     20  C   UNL d   1      59.904  49.500  50.514  0.00  0.00     0.198 C 
ATOM     21  O   UNL d   1      60.285  49.587  49.786  0.00  0.00    -0.286 OA
BRANCH  20  22
ATOM     22  C   UNL d   1      59.109  49.708  50.593  0.00  0.00     0.043 C 
BRANCH  22  23
ATOM     23  C   UNL d   1      58.601  49.639  49.946  0.00  0.00     0.010 C 
BRANCH  23  24
ATOM     24  C   UNL d   1      57.785  49.622  50.066  0.00  0.00     0.030 A 
ATOM     25  S   UNL d   1      57.393  49.518  50.787  0.00  0.00    -0.086 SA
ATOM     26  C   UNL d   1      56.580  49.537  50.651  0.00  0.00     0.035 A 
ATOM     27  C   UNL d   1      56.459  49.653  49.843  0.00  0.00     0.007 A 
ATOM     28  C   UNL d   1      57.202  49.706  49.480  0.00  0.00     0.007 A 
ENDBRANCH  23  24
ENDBRANCH  22  23
ENDBRANCH  20  22
ENDBRANCH   1  20
TORSDOF 8
ENDMDL
MODEL 2
REMARK VINA RESULT:      64.9      1.153      1.480
REMARK  8 active torsions:
REMARK  status: ('A' for Active; 'I' for Inactive)
REMARK    1  A    between atoms: C_6  and  N_1 
REMARK    2  A    between atoms: C_7  and  C_2 
REMARK    3  A    between atoms: C_3  and  C_9 
REMARK    4  A    between atoms: O_5  and  C_3 
REMARK    5  A    between atoms: C_4  and  O_5 
REMARK    6  A    between atoms: C_8  and  C_7 
REMARK    7  A    between atoms: C_12  and  C_8 
REMARK    8  A    between atoms: C_10  and  C_12 
ROOT
ATOM      1  C   UNL d   1      59.805  49.542  51.212  0.00  0.00     0.064 A 
ATOM      2  C   UNL d   1      60.599  49.344  51.095  0.00  0.00     0.106 A 
ATOM      3  C   UNL d   1      59.519  49.664  51.985  0.00  0.00     0.035 A 
ATOM      4  C   UNL d   1      61.108  49.267  51.750  0.00  0.00     0.027 A 
ATOM      5  C   UNL d   1      60.027  49.587  52.631  0.00  0.00     0.140 A 
ATOM      6  C   UNL d   1      60.820  49.388  52.514  0.00  0.00     0.032 A 
ATOM      7  F   UNL d   1      59.739  49.708  53.395  0.00  0.00    -0.204 F 
ENDROOT
BRANCH   2   8
ATOM      8  O   UNL d   1      60.890  49.222  50.330  0.00  0.00    -0.273 OA
BRANCH   8   9
ATOM      9  C   UNL d   1      61.539  48.722  50.213  0.00  0.00     0.300 C 
ATOM     10  O   UNL d   1      62.282  49.036  50.049  0.00  0.00    -0.259 OA
BRANCH   9  11
ATOM     11  C   UNL d   1      61.435  47.906  50.263  0.00  0.00     0.065 A 
ATOM     12  C   UNL d   1      61.801  47.413  49.715  0.00  0.00     0.029 A 
ATOM     13  C   UNL d   1      61.703  46.600  49.759  0.00  0.00     0.127 A 
ATOM     14  C   UNL d   1      61.218  46.286  50.379  0.00  0.00     0.024 A 
ATOM     15  C   UNL d   1      60.867  46.765  50.907  0.00  0.00     0.002 A 
ATOM     16  C   UNL d   1      60.967  47.586  50.862  0.00  0.00     0.005 A 
BRANCH  13  17
ATOM     17  N   UNL d   1      62.068  46.088  49.209  0.00  0.00    -0.114 N 
ATOM     18  O   UNL d   1      62.869  46.156  49.053  0.00  0.00    -0.532 OA
ATOM     19  O   UNL d   1      61.613  45.515  48.828  0.00  0.00    -0.532 OA
ENDBRANCH  13  17
ENDBRANCH   9  11
ENDBRANCH   8   9
ENDBRANCH   2   8
BRANCH   1  20
ATOM     20  C   UNL d   1      59.297  49.620  50.562  0.00  0.00     0.198 C 
ATOM     21  O   UNL d   1      59.604  49.610  49.795  0.00  0.00    -0.286 OA
BRANCH  20  22
ATOM     22  C   UNL d   1      58.485  49.706  50.682  0.00  0.00     0.043 C 
BRANCH  22  23
ATOM     23  C   UNL d   1      57.966  49.126  50.409  0.00  0.00     0.010 C 
BRANCH  23  24
ATOM     24  C   UNL d   1      57.300  49.343  49.973  0.00  0.00     0.030 A 
ATOM     25  S   UNL d   1      57.273  49.518  49.165  0.00  0.00    -0.086 SA
ATOM     26  C   UNL d   1      56.497  49.708  48.962  0.00  0.00     0.035 A 
ATOM     27  C   UNL d   1      56.034  49.654  49.643  0.00  0.00     0.007 A 
ATOM     28  C   UNL d   1      56.528  49.429  50.269  0.00  0.00     0.007 A 
ENDBRANCH  23  24
ENDBRANCH  22  23
ENDBRANCH  20  22
ENDBRANCH   1  20
TORSDOF 8
ENDMDL
