MODEL 1
REMARK VINA RESULT:       5.2      0.000      0.000
REMARK  7 active torsions:
REMARK  status: ('A' for Active; 'I' for Inactive)
REMARK    1  A    between atoms: C_7  and  C_1 
REMARK    2  A    between atoms: C_9  and  N_2 
REMARK    3  A    between atoms: C_6  and  C_3 
REMARK    4  A    between atoms: C_8  and  C_7 
REMARK    5  A    between atoms: C_20  and  C_9 
REMARK    6  A    between atoms: O_24  and  C_10 
REMARK    7  A    between atoms: O_26  and  C_22 
ROOT
ATOM      1  C   UNL d   1      31.498  18.008 -23.795  0.00  0.00     0.101 A 
ATOM      2  N   UNL d   1      30.605  17.087 -24.148  0.00  0.00    -0.270 N 
ATOM      3  C   UNL d   1      31.330  17.203 -23.795  0.00  0.00     0.075 A 
ATOM      4  C   UNL d   1      30.859  18.399 -24.158  0.00  0.00     0.256 A 
ATOM      5  C   UNL d   1      30.307  17.829 -24.376  0.00  0.00     0.304 A 
ATOM      6  O   UNL d   1      29.586  17.972 -24.753  0.00  0.00    -0.263 OA
ATOM      7  O   UNL d   1      30.789  19.213 -24.278  0.00  0.00    -0.281 OA
ENDROOT
BRANCH   3   8
ATOM      8  C   UNL d   1      31.830  16.617 -23.483  0.00  0.00     0.041 A 
ATOM      9  C   UNL d   1      32.406  16.285 -23.966  0.00  0.00     0.096 A 
ATOM     10  C   UNL d   1      32.912  15.699 -23.665  0.00  0.00     0.026 A 
ATOM     11  C   UNL d   1      32.829  15.454 -22.875  0.00  0.00     0.026 A 
ATOM     12  C   UNL d   1      32.247  15.793 -22.392  0.00  0.00     0.094 A 
ATOM     13  C   UNL d   1      31.749  16.373 -22.698  0.00  0.00     0.028 A 
BRANCH   9  14
ATOM     14  O   UNL d   1      32.489  16.525 -24.746  0.00  0.00    -0.328 OA
ATOM     15  C   UNL d   1      33.234  16.580 -25.094  0.00  0.00     0.181 C 
ENDBRANCH   9  14
BRANCH  12  16
ATOM     16  O   UNL d   1      32.165  15.548 -21.605  0.00  0.00    -0.328 OA
ATOM     17  C   UNL d   1      31.408  15.519 -21.262  0.00  0.00     0.181 C 
ENDBRANCH  12  16
ENDBRANCH   3   8
BRANCH   2  18
ATOM     18  C   UNL d   1      30.222  16.356 -24.264  0.00  0.00     0.085 C 
BRANCH  18  19
ATOM     19  C   UNL d   1      29.420  16.278 -24.076  0.00  0.00     0.037 A 
ATOM     20  C   UNL d   1      29.130  15.540 -23.820  0.00  0.00     0.100 A 
ATOM     21  N   UNL d   1      28.335  15.462 -23.634  0.00  0.00    -0.242 NA
ATOM     22  C   UNL d   1      27.824  16.106 -23.698  0.00  0.00     0.099 A 
ATOM     23  C   UNL d   1      28.115  16.834 -23.952  0.00  0.00     0.021 A 
ATOM     24  C   UNL d   1      28.916  16.919 -24.141  0.00  0.00     0.005 A 
ENDBRANCH  18  19
ENDBRANCH   2  18
BRANCH   1  25
ATOM     25  C   UNL d   1      32.178  18.373 -23.491  0.00  0.00     0.223 C 
ATOM     26  O   UNL d   1      32.553  18.056 -22.833  0.00  0.00    -0.284 OA
BRANCH  25  27
ATOM     27  C   UNL d   1      32.470  19.047 -23.849  0.00  0.00     0.139 A 
ATOM     28  O   UNL d   1      32.628  19.264 -24.628  0.00  0.00    -0.302 OA
ATOM     29  C   UNL d   1      32.922  20.034 -24.627  0.00  0.00     0.123 A 
ATOM     30  C   UNL d   1      32.946  20.291 -23.852  0.00  0.00     0.029 A 
ATOM     31  C   UNL d   1      32.668  19.684 -23.371  0.00  0.00     0.030 A 
ENDBRANCH  25  27
ENDBRANCH   1  25
TORSDOF 7
ENDMDL
MODEL 2
REMARK VINA RESULT:       7.7      1.318      3.298
REMARK  7 active torsions:
REMARK  status: ('A' for Active; 'I' for Inactive)
REMARK    1  A    between atoms: C_7  and  C_1 
REMARK    2  A    between atoms: C_9  and  N_2 
REMARK    3  A    between atoms: C_6  and  C_3 
REMARK    4  A    between atoms: C_8  and  C_7 
REMARK    5  A    between atoms: C_20  and  C_9 
REMARK    6  A    between atoms: O_24  and  C_10 
REMARK    7  A    between atoms: O_26  and  C_22 
ROOT
ATOM      1  C   UNL d   1      31.840  17.353 -24.590  0.00  0.00     0.101 A 
ATOM      2  N   UNL d   1      30.671  17.986 -24.656  0.00  0.00    -0.270 N 
ATOM      3  C   UNL d   1      31.462  18.076 -24.483  0.00  0.00     0.075 A 
ATOM      4  C   UNL d   1      31.266  16.802 -24.835  0.00  0.00     0.256 A 
ATOM      5  C   UNL d   1      30.543  17.194 -24.875  0.00  0.00     0.304 A 
ATOM      6  O   UNL d   1      29.821  16.858 -25.095  0.00  0.00    -0.263 OA
ATOM      7  O   UNL d   1      31.395  16.005 -25.007  0.00  0.00    -0.281 OA
ENDROOT
BRANCH   3   8
ATOM      8  C   UNL d   1      31.842  18.774 -24.239  0.00  0.00     0.041 A 
ATOM      9  C   UNL d   1      31.833  18.975 -23.442  0.00  0.00     0.096 A 
ATOM     10  C   UNL d   1      32.209  19.670 -23.185  0.00  0.00     0.026 A 
ATOM     11  C   UNL d   1      32.590  20.156 -23.741  0.00  0.00     0.026 A 
ATOM     12  C   UNL d   1      32.596  19.949 -24.543  0.00  0.00     0.094 A 
ATOM     13  C   UNL d   1      32.222  19.259 -24.789  0.00  0.00     0.028 A 
BRANCH   9  14
ATOM     14  O   UNL d   1      31.457  18.495 -22.893  0.00  0.00    -0.328 OA
ATOM     15  C   UNL d   1      31.271  18.779 -22.142  0.00  0.00     0.181 C 
ENDBRANCH   9  14
BRANCH  12  16
ATOM     16  O   UNL d   1      32.977  20.435 -25.096  0.00  0.00    -0.328 OA
ATOM     17  C   UNL d   1      33.227  21.194 -24.870  0.00  0.00     0.181 C 
ENDBRANCH  12  16
ENDBRANCH   3   8
BRANCH   2  18
ATOM     18  C   UNL d   1      30.087  18.579 -24.620  0.00  0.00     0.085 C 
BRANCH  18  19
ATOM     19  C   UNL d   1      29.304  18.374 -24.446  0.00  0.00     0.037 A 
ATOM     20  C   UNL d   1      28.684  18.858 -24.721  0.00  0.00     0.100 A 
ATOM     21  N   UNL d   1      27.908  18.655 -24.549  0.00  0.00    -0.242 NA
ATOM     22  C   UNL d   1      27.738  17.979 -24.108  0.00  0.00     0.099 A 
ATOM     23  C   UNL d   1      28.355  17.503 -23.838  0.00  0.00     0.021 A 
ATOM     24  C   UNL d   1      29.140  17.702 -24.009  0.00  0.00     0.005 A 
ENDBRANCH  18  19
ENDBRANCH   2  18
BRANCH   1  25
ATOM     25  C   UNL d   1      32.646  17.192 -24.477  0.00  0.00     0.223 C 
ATOM     26  O   UNL d   1      33.207  17.563 -24.948  0.00  0.00    -0.284 OA
BRANCH  25  27
ATOM     27  C   UNL d   1      32.876  16.666 -23.897  0.00  0.00     0.139 A 
ATOM     28  O   UNL d   1      33.012  16.723 -23.086  0.00  0.00    -0.302 OA
ATOM     29  C   UNL d   1      33.237  15.981 -22.809  0.00  0.00     0.123 A 
ATOM     30  C   UNL d   1      33.240  15.467 -23.444  0.00  0.00     0.029 A 
ATOM     31  C   UNL d   1      33.018  15.888 -24.116  0.00  0.00     0.030 A 
ENDBRANCH  25  27
ENDBRANCH   1  25
TORSDOF 7
ENDMDL
