MODEL 1
REMARK VINA RESULT:      34.0      0.000      0.000
REMARK  5 active torsions:
REMARK  status: ('A' for Active; 'I' for Inactive)
REMARK    1  A    between atoms: N_4  and  C_2 
REMARK    2  A    between atoms: S_8  and  C_3 
REMARK    3  A    between atoms: C_10  and  S_8 
REMARK    4  A    between atoms: C_9  and  C_10 
REMARK    5  A    between atoms: C_12  and  C_9 
ROOT
ATOM      1  N   UNL d   1     -57.341 -98.794 -44.978  0.00  0.00    -0.203 NA
ATOM      2  C   UNL d   1     -58.160 -98.810 -44.836  0.00  0.00     0.152 A 
ATOM      3  C   UNL d   1     -56.825 -98.784 -44.352  0.00  0.00     0.196 A 
ATOM      4  C   UNL d   1     -58.448 -98.815 -44.107  0.00  0.00     0.057 A 
ATOM      5  N   UNL d   1     -57.128 -98.790 -43.585  0.00  0.00    -0.221 NA
ATOM      6  C   UNL d   1     -57.947 -98.805 -43.444  0.00  0.00     0.087 A 
ATOM      7  C   UNL d   1     -58.284 -98.812 -42.682  0.00  0.00     0.021 C 
ENDROOT
BRANCH   3   8
ATOM      8  S   UNL d   1     -56.014 -98.768 -44.454  0.00  0.00    -0.045 SA
BRANCH   8   9
ATOM      9  C   UNL d   1     -55.624 -99.471 -44.640  0.00  0.00     0.080 C 
BRANCH   9  10
ATOM     10  C   UNL d   1     -55.086 -99.837 -44.111  0.00  0.00     0.202 C 
ATOM     11  O   UNL d   1     -54.718 -99.423 -43.509  0.00  0.00    -0.286 OA
BRANCH  10  12
ATOM     12  C   UNL d   1     -54.963-100.632 -44.245  0.00  0.00     0.040 A 
ATOM     13  C   UNL d   1     -54.945-100.910 -45.052  0.00  0.00     0.003 A 
ATOM     14  C   UNL d   1     -54.828-101.674 -45.211  0.00  0.00     0.000 A 
ATOM     15  C   UNL d   1     -54.720-102.222 -44.604  0.00  0.00     0.000 A 
ATOM     16  C   UNL d   1     -54.736-101.965 -43.835  0.00  0.00     0.000 A 
ATOM     17  C   UNL d   1     -54.855-101.181 -43.638  0.00  0.00     0.003 A 
ENDBRANCH  10  12
ENDBRANCH   9  10
ENDBRANCH   8   9
ENDBRANCH   3   8
BRANCH   2  18
ATOM     18  N   UNL d   1     -58.674 -98.820 -45.505  0.00  0.00    -0.285 N 
ATOM     19  C   UNL d   1     -58.389 -98.756 -46.233  0.00  0.00     0.108 A 
ATOM     20  C   UNL d   1     -58.885 -98.764 -46.909  0.00  0.00     0.142 A 
ATOM     21  O   UNL d   1     -59.713 -98.846 -46.759  0.00  0.00    -0.300 OA
ATOM     22  C   UNL d   1     -59.959 -98.908 -46.016  0.00  0.00     0.142 A 
ATOM     23  C   UNL d   1     -59.490 -98.901 -45.365  0.00  0.00     0.108 A 
ENDBRANCH   2  18
TORSDOF 5
ENDMDL
