MODEL 1
REMARK VINA RESULT:     -10.3      0.000      0.000
REMARK  5 active torsions:
REMARK  status: ('A' for Active; 'I' for Inactive)
REMARK    1  A    between atoms: N_10  and  C_2 
REMARK    2  A    between atoms: C_7  and  C_5 
REMARK    3  A    between atoms: C_6  and  C_9 
REMARK    4  A    between atoms: C_8  and  C_7 
REMARK       I    between atoms: N_11  and  C_8 
REMARK    5  A    between atoms: C_14  and  N_11 
ROOT
ATOM      1  C   UNL d   1      53.641  32.147  54.040  0.00  0.00     0.280 C 
ATOM      2  N   UNL d   1      53.921  31.547  53.550  0.00  0.00    -0.208 NA
ATOM      3  O   UNL d   1      52.972  32.016  54.503  0.00  0.00    -0.265 OA
ENDROOT
BRANCH   1   4
ATOM      4  C   UNL d   1      54.025  32.874  54.068  0.00  0.00     0.074 C 
BRANCH   4   5
ATOM      5  C   UNL d   1      53.596  33.575  54.007  0.00  0.00     0.093 A 
ATOM      6  C   UNL d   1      53.698  34.245  54.477  0.00  0.00     0.272 A 
ATOM      7  N   UNL d   1      53.159  34.809  54.229  0.00  0.00    -0.251 N 
ATOM      8  O   UNL d   1      54.246  34.330  55.088  0.00  0.00    -0.266 OA
ATOM      9  C   UNL d   1      52.722  34.490  53.606  0.00  0.00     0.182 A 
ATOM     10  C   UNL d   1      53.066  35.568  54.546  0.00  0.00     0.104 C 
ATOM     11  S   UNL d   1      52.994  33.727  53.471  0.00  0.00    -0.045 SA
BRANCH   9  12
ATOM     12  N   UNL d   1      52.119  34.871  53.192  0.00  0.00    -0.219 NA
ATOM     13  C   UNL d   1      51.681  34.458  52.626  0.00  0.00     0.122 C 
ENDBRANCH   9  12
ENDBRANCH   4   5
ENDBRANCH   1   4
BRANCH   2  14
ATOM     14  C   UNL d   1      53.531  30.820  53.527  0.00  0.00     0.085 A 
ATOM     15  C   UNL d   1      53.686  30.242  54.099  0.00  0.00     0.023 A 
ATOM     16  C   UNL d   1      53.293  29.516  54.069  0.00  0.00     0.073 A 
ATOM     17  C   UNL d   1      52.748  29.369  53.472  0.00  0.00     0.004 A 
ATOM     18  C   UNL d   1      52.593  29.947  52.900  0.00  0.00     0.002 A 
ATOM     19  C   UNL d   1      52.982  30.671  52.926  0.00  0.00     0.019 A 
BRANCH  16  20
ATOM     20  C   UNL d   1      53.448  28.939  54.640  0.00  0.00     0.419 C 
ATOM     21  F   UNL d   1      53.589  28.415  55.159  0.00  0.00    -0.166 F 
ATOM     22  F   UNL d   1      53.212  28.912  55.467  0.00  0.00    -0.166 F 
ATOM     23  F   UNL d   1      53.891  28.201  54.565  0.00  0.00    -0.166 F 
ENDBRANCH  16  20
ENDBRANCH   2  14
TORSDOF 5
ENDMDL
MODEL 2
REMARK VINA RESULT:      -8.3      2.857      4.944
REMARK  5 active torsions:
REMARK  status: ('A' for Active; 'I' for Inactive)
REMARK    1  A    between atoms: N_10  and  C_2 
REMARK    2  A    between atoms: C_7  and  C_5 
REMARK    3  A    between atoms: C_6  and  C_9 
REMARK    4  A    between atoms: C_8  and  C_7 
REMARK       I    between atoms: N_11  and  C_8 
REMARK    5  A    between atoms: C_14  and  N_11 
ROOT
ATOM      1  C   UNL d   1      53.981  31.945  53.839  0.00  0.00     0.280 C 
ATOM      2  N   UNL d   1      54.325  32.664  53.635  0.00  0.00    -0.208 NA
ATOM      3  O   UNL d   1      53.575  31.874  54.552  0.00  0.00    -0.265 OA
ENDROOT
BRANCH   1   4
ATOM      4  C   UNL d   1      54.040  31.298  53.333  0.00  0.00     0.074 C 
BRANCH   4   5
ATOM      5  C   UNL d   1      53.581  30.625  53.462  0.00  0.00     0.093 A 
ATOM      6  C   UNL d   1      52.975  30.355  52.974  0.00  0.00     0.272 A 
ATOM      7  N   UNL d   1      52.668  29.673  53.308  0.00  0.00    -0.251 N 
ATOM      8  O   UNL d   1      52.722  30.709  52.273  0.00  0.00    -0.266 OA
ATOM      9  C   UNL d   1      53.084  29.519  54.004  0.00  0.00     0.182 A 
ATOM     10  C   UNL d   1      52.050  29.215  53.004  0.00  0.00     0.104 C 
ATOM     11  S   UNL d   1      53.648  30.110  54.097  0.00  0.00    -0.045 SA
BRANCH   9  12
ATOM     12  N   UNL d   1      52.957  28.886  54.517  0.00  0.00    -0.219 NA
ATOM     13  C   UNL d   1      53.592  28.544  54.920  0.00  0.00     0.122 C 
ENDBRANCH   9  12
ENDBRANCH   4   5
ENDBRANCH   1   4
BRANCH   2  14
ATOM     14  C   UNL d   1      54.263  33.309  54.146  0.00  0.00     0.085 A 
ATOM     15  C   UNL d   1      53.717  33.913  53.994  0.00  0.00     0.023 A 
ATOM     16  C   UNL d   1      53.659  34.556  54.509  0.00  0.00     0.073 A 
ATOM     17  C   UNL d   1      54.143  34.595  55.171  0.00  0.00     0.004 A 
ATOM     18  C   UNL d   1      54.690  33.992  55.323  0.00  0.00     0.002 A 
ATOM     19  C   UNL d   1      54.750  33.350  54.813  0.00  0.00     0.019 A 
BRANCH  16  20
ATOM     20  C   UNL d   1      53.114  35.159  54.358  0.00  0.00     0.419 C 
ATOM     21  F   UNL d   1      52.619  35.705  54.220  0.00  0.00    -0.166 F 
ATOM     22  F   UNL d   1      52.258  35.156  54.448  0.00  0.00    -0.166 F 
ATOM     23  F   UNL d   1      53.252  35.960  54.066  0.00  0.00    -0.166 F 
ENDBRANCH  16  20
ENDBRANCH   2  14
TORSDOF 5
ENDMDL
MODEL 3
REMARK VINA RESULT:      -7.8      2.862      4.924
REMARK  5 active torsions:
REMARK  status: ('A' for Active; 'I' for Inactive)
REMARK    1  A    between atoms: N_10  and  C_2 
REMARK    2  A    between atoms: C_7  and  C_5 
REMARK    3  A    between atoms: C_6  and  C_9 
REMARK    4  A    between atoms: C_8  and  C_7 
REMARK       I    between atoms: N_11  and  C_8 
REMARK    5  A    between atoms: C_14  and  N_11 
ROOT
ATOM      1  C   UNL d   1      53.311  32.264  53.468  0.00  0.00     0.280 C 
ATOM      2  N   UNL d   1      53.186  32.841  52.895  0.00  0.00    -0.208 NA
ATOM      3  O   UNL d   1      52.995  32.362  54.223  0.00  0.00    -0.265 OA
ENDROOT
BRANCH   1   4
ATOM      4  C   UNL d   1      53.749  31.590  53.291  0.00  0.00     0.074 C 
BRANCH   4   5
ATOM      5  C   UNL d   1      53.435  30.841  53.428  0.00  0.00     0.093 A 
ATOM      6  C   UNL d   1      53.100  30.348  52.859  0.00  0.00     0.272 A 
ATOM      7  N   UNL d   1      52.860  29.660  53.233  0.00  0.00    -0.251 N 
ATOM      8  O   UNL d   1      53.020  30.518  52.056  0.00  0.00    -0.266 OA
ATOM      9  C   UNL d   1      53.046  29.725  54.035  0.00  0.00     0.182 A 
ATOM     10  C   UNL d   1      52.494  29.010  52.874  0.00  0.00     0.104 C 
ATOM     11  S   UNL d   1      53.401  30.456  54.152  0.00  0.00    -0.045 SA
BRANCH   9  12
ATOM     12  N   UNL d   1      52.901  29.158  54.615  0.00  0.00    -0.219 NA
ATOM     13  C   UNL d   1      53.506  28.924  55.127  0.00  0.00     0.122 C 
ENDBRANCH   9  12
ENDBRANCH   4   5
ENDBRANCH   1   4
BRANCH   2  14
ATOM     14  C   UNL d   1      52.745  33.515  53.079  0.00  0.00     0.085 A 
ATOM     15  C   UNL d   1      51.957  33.581  52.832  0.00  0.00     0.023 A 
ATOM     16  C   UNL d   1      51.522  34.258  53.020  0.00  0.00     0.073 A 
ATOM     17  C   UNL d   1      51.871  34.863  53.451  0.00  0.00     0.004 A 
ATOM     18  C   UNL d   1      52.659  34.797  53.698  0.00  0.00     0.002 A 
ATOM     19  C   UNL d   1      53.095  34.126  53.513  0.00  0.00     0.019 A 
BRANCH  16  20
ATOM     20  C   UNL d   1      50.736  34.324  52.773  0.00  0.00     0.419 C 
ATOM     21  F   UNL d   1      50.022  34.384  52.550  0.00  0.00    -0.166 F 
ATOM     22  F   UNL d   1      50.419  34.433  51.981  0.00  0.00    -0.166 F 
ATOM     23  F   UNL d   1      50.012  34.302  53.244  0.00  0.00    -0.166 F 
ENDBRANCH  16  20
ENDBRANCH   2  14
TORSDOF 5
ENDMDL
MODEL 4
REMARK VINA RESULT:      -7.8      2.472      3.525
REMARK  5 active torsions:
REMARK  status: ('A' for Active; 'I' for Inactive)
REMARK    1  A    between atoms: N_10  and  C_2 
REMARK    2  A    between atoms: C_7  and  C_5 
REMARK    3  A    between atoms: C_6  and  C_9 
REMARK    4  A    between atoms: C_8  and  C_7 
REMARK       I    between atoms: N_11  and  C_8 
REMARK    5  A    between atoms: C_14  and  N_11 
ROOT
ATOM      1  C   UNL d   1      52.127  33.841  52.971  0.00  0.00     0.280 C 
ATOM      2  N   UNL d   1      52.885  33.556  52.824  0.00  0.00    -0.208 NA
ATOM      3  O   UNL d   1      51.695  33.544  53.608  0.00  0.00    -0.265 OA
ENDROOT
BRANCH   1   4
ATOM      4  C   UNL d   1      51.799  34.419  52.487  0.00  0.00     0.074 C 
BRANCH   4   5
ATOM      5  C   UNL d   1      50.981  34.472  52.395  0.00  0.00     0.093 A 
ATOM      6  C   UNL d   1      50.565  34.334  51.698  0.00  0.00     0.272 A 
ATOM      7  N   UNL d   1      49.769  34.448  51.854  0.00  0.00    -0.251 N 
ATOM      8  O   UNL d   1      50.892  34.119  50.972  0.00  0.00    -0.266 OA
ATOM      9  C   UNL d   1      49.691  34.657  52.649  0.00  0.00     0.182 A 
ATOM     10  C   UNL d   1      49.148  34.368  51.313  0.00  0.00     0.104 C 
ATOM     11  S   UNL d   1      50.442  34.672  52.981  0.00  0.00    -0.045 SA
BRANCH   9  12
ATOM     12  N   UNL d   1      48.984  34.822  53.040  0.00  0.00    -0.219 NA
ATOM     13  C   UNL d   1      48.886  35.544  53.431  0.00  0.00     0.122 C 
ENDBRANCH   9  12
ENDBRANCH   4   5
ENDBRANCH   1   4
BRANCH   2  14
ATOM     14  C   UNL d   1      53.208  32.976  53.314  0.00  0.00     0.085 A 
ATOM     15  C   UNL d   1      53.645  33.189  53.985  0.00  0.00     0.023 A 
ATOM     16  C   UNL d   1      53.966  32.603  54.471  0.00  0.00     0.073 A 
ATOM     17  C   UNL d   1      53.851  31.811  54.288  0.00  0.00     0.004 A 
ATOM     18  C   UNL d   1      53.414  31.598  53.618  0.00  0.00     0.002 A 
ATOM     19  C   UNL d   1      53.093  32.177  53.132  0.00  0.00     0.019 A 
BRANCH  16  20
ATOM     20  C   UNL d   1      54.403  32.816  55.140  0.00  0.00     0.419 C 
ATOM     21  F   UNL d   1      54.799  33.009  55.747  0.00  0.00    -0.166 F 
ATOM     22  F   UNL d   1      55.142  33.254  55.193  0.00  0.00    -0.166 F 
ATOM     23  F   UNL d   1      54.238  32.658  55.973  0.00  0.00    -0.166 F 
ENDBRANCH  16  20
ENDBRANCH   2  14
TORSDOF 5
ENDMDL
MODEL 5
REMARK VINA RESULT:      -7.8      2.030      2.939
REMARK  5 active torsions:
REMARK  status: ('A' for Active; 'I' for Inactive)
REMARK    1  A    between atoms: N_10  and  C_2 
REMARK    2  A    between atoms: C_7  and  C_5 
REMARK    3  A    between atoms: C_6  and  C_9 
REMARK    4  A    between atoms: C_8  and  C_7 
REMARK       I    between atoms: N_11  and  C_8 
REMARK    5  A    between atoms: C_14  and  N_11 
ROOT
ATOM      1  C   UNL d   1      52.217  33.583  53.006  0.00  0.00     0.280 C 
ATOM      2  N   UNL d   1      52.814  33.110  52.693  0.00  0.00    -0.208 NA
ATOM      3  O   UNL d   1      51.894  33.399  53.741  0.00  0.00    -0.265 OA
ENDROOT
BRANCH   1   4
ATOM      4  C   UNL d   1      51.944  34.237  52.589  0.00  0.00     0.074 C 
BRANCH   4   5
ATOM      5  C   UNL d   1      51.136  34.348  52.470  0.00  0.00     0.093 A 
ATOM      6  C   UNL d   1      50.744  34.298  51.746  0.00  0.00     0.272 A 
ATOM      7  N   UNL d   1      49.949  34.446  51.881  0.00  0.00    -0.251 N 
ATOM      8  O   UNL d   1      51.091  34.131  51.017  0.00  0.00    -0.266 OA
ATOM      9  C   UNL d   1      49.848  34.587  52.688  0.00  0.00     0.182 A 
ATOM     10  C   UNL d   1      49.351  34.453  51.310  0.00  0.00     0.104 C 
ATOM     11  S   UNL d   1      50.582  34.525  53.049  0.00  0.00    -0.045 SA
BRANCH   9  12
ATOM     12  N   UNL d   1      49.134  34.759  53.065  0.00  0.00    -0.219 NA
ATOM     13  C   UNL d   1      49.051  35.460  53.494  0.00  0.00     0.122 C 
ENDBRANCH   9  12
ENDBRANCH   4   5
ENDBRANCH   1   4
BRANCH   2  14
ATOM     14  C   UNL d   1      53.084  32.455  53.116  0.00  0.00     0.085 A 
ATOM     15  C   UNL d   1      52.836  31.692  52.911  0.00  0.00     0.023 A 
ATOM     16  C   UNL d   1      53.110  31.040  53.339  0.00  0.00     0.073 A 
ATOM     17  C   UNL d   1      53.628  31.151  53.966  0.00  0.00     0.004 A 
ATOM     18  C   UNL d   1      53.876  31.914  54.171  0.00  0.00     0.002 A 
ATOM     19  C   UNL d   1      53.606  32.564  53.748  0.00  0.00     0.019 A 
BRANCH  16  20
ATOM     20  C   UNL d   1      52.862  30.278  53.135  0.00  0.00     0.419 C 
ATOM     21  F   UNL d   1      52.637  29.587  52.949  0.00  0.00    -0.166 F 
ATOM     22  F   UNL d   1      52.195  29.823  53.432  0.00  0.00    -0.166 F 
ATOM     23  F   UNL d   1      53.205  29.727  52.565  0.00  0.00    -0.166 F 
ENDBRANCH  16  20
ENDBRANCH   2  14
TORSDOF 5
ENDMDL
MODEL 6
REMARK VINA RESULT:      -7.5      3.536      5.266
REMARK  5 active torsions:
REMARK  status: ('A' for Active; 'I' for Inactive)
REMARK    1  A    between atoms: N_10  and  C_2 
REMARK    2  A    between atoms: C_7  and  C_5 
REMARK    3  A    between atoms: C_6  and  C_9 
REMARK    4  A    between atoms: C_8  and  C_7 
REMARK       I    between atoms: N_11  and  C_8 
REMARK    5  A    between atoms: C_14  and  N_11 
ROOT
ATOM      1  C   UNL d   1      51.745  33.435  52.675  0.00  0.00     0.280 C 
ATOM      2  N   UNL d   1      51.470  34.103  52.279  0.00  0.00    -0.208 NA
ATOM      3  O   UNL d   1      51.258  33.053  53.218  0.00  0.00    -0.265 OA
ENDROOT
BRANCH   1   4
ATOM      4  C   UNL d   1      52.503  33.149  52.529  0.00  0.00     0.074 C 
BRANCH   4   5
ATOM      5  C   UNL d   1      52.901  32.714  53.105  0.00  0.00     0.093 A 
ATOM      6  C   UNL d   1      53.056  31.904  53.075  0.00  0.00     0.272 A 
ATOM      7  N   UNL d   1      53.462  31.702  53.757  0.00  0.00    -0.251 N 
ATOM      8  O   UNL d   1      52.841  31.391  52.466  0.00  0.00    -0.266 OA
ATOM      9  C   UNL d   1      53.559  32.385  54.210  0.00  0.00     0.182 A 
ATOM     10  C   UNL d   1      53.730  30.946  53.959  0.00  0.00     0.104 C 
ATOM     11  S   UNL d   1      53.211  33.008  53.805  0.00  0.00    -0.045 SA
BRANCH   9  12
ATOM     12  N   UNL d   1      53.938  32.432  54.942  0.00  0.00    -0.219 NA
ATOM     13  C   UNL d   1      54.300  33.137  55.175  0.00  0.00     0.122 C 
ENDBRANCH   9  12
ENDBRANCH   4   5
ENDBRANCH   1   4
BRANCH   2  14
ATOM     14  C   UNL d   1      50.709  34.385  52.429  0.00  0.00     0.085 A 
ATOM     15  C   UNL d   1      50.135  34.382  51.832  0.00  0.00     0.023 A 
ATOM     16  C   UNL d   1      49.375  34.666  51.989  0.00  0.00     0.073 A 
ATOM     17  C   UNL d   1      49.191  34.951  52.736  0.00  0.00     0.004 A 
ATOM     18  C   UNL d   1      49.764  34.954  53.333  0.00  0.00     0.002 A 
ATOM     19  C   UNL d   1      50.521  34.673  53.182  0.00  0.00     0.019 A 
BRANCH  16  20
ATOM     20  C   UNL d   1      48.802  34.662  51.393  0.00  0.00     0.419 C 
ATOM     21  F   UNL d   1      48.283  34.659  50.852  0.00  0.00    -0.166 F 
ATOM     22  F   UNL d   1      48.280  35.295  51.134  0.00  0.00    -0.166 F 
ATOM     23  F   UNL d   1      48.569  34.021  50.863  0.00  0.00    -0.166 F 
ENDBRANCH  16  20
ENDBRANCH   2  14
TORSDOF 5
ENDMDL
