MODEL 1
REMARK VINA RESULT:      18.5      0.000      0.000
REMARK  4 active torsions:
REMARK  status: ('A' for Active; 'I' for Inactive)
REMARK    1  A    between atoms: S_7  and  C_1 
REMARK       I    between atoms: N_5  and  C_9 
REMARK    2  A    between atoms: C_10  and  S_7 
REMARK    3  A    between atoms: C_15  and  N_8 
REMARK    4  A    between atoms: C_9  and  C_10 
ROOT
ATOM      1  N   UNL d   1      45.589 -16.266  44.224  0.00  0.00    -0.269 N 
ATOM      2  N   UNL d   1      45.683 -14.622  44.391  0.00  0.00    -0.301 N 
ATOM      3  C   UNL d   1      45.536 -17.093  44.137  0.00  0.00     0.271 C 
ATOM      4  C   UNL d   1      46.282 -15.917  44.512  0.00  0.00     0.102 A 
ATOM      5  C   UNL d   1      44.941 -15.797  44.018  0.00  0.00     0.102 A 
ATOM      6  C   UNL d   1      44.991 -14.976  44.103  0.00  0.00     0.100 A 
ATOM      7  C   UNL d   1      46.329 -15.102  44.595  0.00  0.00     0.100 A 
ATOM      8  O   UNL d   1      44.841 -17.437  43.849  0.00  0.00    -0.266 OA
ENDROOT
BRANCH   3   9
ATOM      9  C   UNL d   1      46.188 -17.559  44.344  0.00  0.00     0.097 C 
BRANCH   9  10
ATOM     10  S   UNL d   1      46.068 -18.352  44.542  0.00  0.00    -0.080 SA
BRANCH  10  11
ATOM     11  C   UNL d   1      46.278 -18.945  43.997  0.00  0.00     0.049 A 
ATOM     12  C   UNL d   1      46.470 -19.723  44.177  0.00  0.00     0.087 A 
ATOM     13  N   UNL d   1      46.641 -20.118  43.474  0.00  0.00    -0.245 NA
ATOM     14  C   UNL d   1      46.486 -20.047  44.935  0.00  0.00     0.021 C 
ATOM     15  C   UNL d   1      46.551 -19.568  42.856  0.00  0.00     0.082 A 
ATOM     16  C   UNL d   1      46.327 -18.846  43.184  0.00  0.00     0.025 A 
ATOM     17  C   UNL d   1      46.647 -19.641  42.038  0.00  0.00     0.019 A 
ATOM     18  C   UNL d   1      46.199 -18.200  42.695  0.00  0.00     0.002 A 
ATOM     19  C   UNL d   1      46.291 -18.261  41.879  0.00  0.00     0.000 A 
ATOM     20  C   UNL d   1      46.518 -18.995  41.554  0.00  0.00     0.002 A 
ENDBRANCH  10  11
ENDBRANCH   9  10
ENDBRANCH   3   9
BRANCH   2  21
ATOM     21  C   UNL d   1      45.725 -13.805  44.473  0.00  0.00     0.064 A 
ATOM     22  C   UNL d   1      45.130 -13.328  44.157  0.00  0.00     0.018 A 
ATOM     23  C   UNL d   1      45.177 -12.499  44.242  0.00  0.00     0.002 A 
ATOM     24  C   UNL d   1      45.818 -12.162  44.642  0.00  0.00     0.000 A 
ATOM     25  C   UNL d   1      46.410 -12.641  44.955  0.00  0.00     0.002 A 
ATOM     26  C   UNL d   1      46.363 -13.456  44.871  0.00  0.00     0.018 A 
ENDBRANCH   2  21
TORSDOF 4
ENDMDL
