MODEL 1
REMARK VINA RESULT:      17.9      0.000      0.000
REMARK  4 active torsions:
REMARK  status: ('A' for Active; 'I' for Inactive)
REMARK    1  A    between atoms: C_6  and  C_4 
REMARK    2  A    between atoms: C_9  and  C_6 
REMARK    3  A    between atoms: O_15  and  C_8 
REMARK    4  A    between atoms: O_16  and  C_12 
ROOT
ATOM      1  C   UNL d   1      45.089 -14.981  44.753  0.00  0.00     0.116 A 
ATOM      2  C   UNL d   1      45.772 -13.770  44.429  0.00  0.00     0.003 A 
ATOM      3  C   UNL d   1      45.074 -14.179  44.588  0.00  0.00     0.026 A 
ATOM      4  C   UNL d   1      45.811 -15.393  44.763  0.00  0.00     0.116 A 
ATOM      5  C   UNL d   1      46.513 -14.979  44.602  0.00  0.00     0.026 A 
ATOM      6  C   UNL d   1      46.498 -14.177  44.437  0.00  0.00     0.002 A 
ENDROOT
BRANCH   2   7
ATOM      7  C   UNL d   1      45.756 -12.963  44.263  0.00  0.00     0.009 C 
BRANCH   7   8
ATOM      8  C   UNL d   1      45.303 -12.682  43.641  0.00  0.00     0.062 A 
ATOM      9  C   UNL d   1      45.591 -12.304  42.961  0.00  0.00     0.145 A 
ATOM     10  N   UNL d   1      44.948 -12.113  42.481  0.00  0.00    -0.191 NA
ATOM     11  S   UNL d   1      46.383 -12.150  42.801  0.00  0.00    -0.057 SA
ATOM     12  C   UNL d   1      44.260 -12.373  42.862  0.00  0.00     0.311 A 
ATOM     13  S   UNL d   1      44.482 -12.720  43.572  0.00  0.00    -0.023 SA
ATOM     14  O   UNL d   1      43.491 -12.292  42.572  0.00  0.00    -0.258 OA
ENDBRANCH   7   8
ENDBRANCH   2   7
BRANCH   1  15
ATOM     15  O   UNL d   1      44.384 -15.383  44.912  0.00  0.00    -0.326 OA
ATOM     16  C   UNL d   1      43.658 -14.983  44.849  0.00  0.00     0.181 C 
ENDBRANCH   1  15
BRANCH   4  17
ATOM     17  O   UNL d   1      45.835 -16.193  44.927  0.00  0.00    -0.326 OA
ATOM     18  C   UNL d   1      45.698 -16.747  44.330  0.00  0.00     0.181 C 
ENDBRANCH   4  17
TORSDOF 4
ENDMDL
MODEL 2
REMARK VINA RESULT:      18.9      1.764      3.551
REMARK  4 active torsions:
REMARK  status: ('A' for Active; 'I' for Inactive)
REMARK    1  A    between atoms: C_6  and  C_4 
REMARK    2  A    between atoms: C_9  and  C_6 
REMARK    3  A    between atoms: O_15  and  C_8 
REMARK    4  A    between atoms: O_16  and  C_12 
ROOT
ATOM      1  C   UNL d   1      44.772 -12.648  43.293  0.00  0.00     0.116 A 
ATOM      2  C   UNL d   1      45.328 -13.507  44.288  0.00  0.00     0.003 A 
ATOM      3  C   UNL d   1      44.680 -13.121  43.955  0.00  0.00     0.026 A 
ATOM      4  C   UNL d   1      45.522 -12.552  42.948  0.00  0.00     0.116 A 
ATOM      5  C   UNL d   1      46.173 -12.942  43.286  0.00  0.00     0.026 A 
ATOM      6  C   UNL d   1      46.081 -13.414  43.948  0.00  0.00     0.002 A 
ENDROOT
BRANCH   2   7
ATOM      7  C   UNL d   1      45.235 -13.982  44.955  0.00  0.00     0.009 C 
BRANCH   7   8
ATOM      8  C   UNL d   1      45.273 -14.797  44.885  0.00  0.00     0.062 A 
ATOM      9  C   UNL d   1      44.626 -15.316  44.885  0.00  0.00     0.145 A 
ATOM     10  N   UNL d   1      44.914 -16.085  44.803  0.00  0.00    -0.191 NA
ATOM     11  S   UNL d   1      43.837 -15.095  44.955  0.00  0.00    -0.057 SA
ATOM     12  C   UNL d   1      45.740 -16.044  44.753  0.00  0.00     0.311 A 
ATOM     13  S   UNL d   1      45.955 -15.254  44.803  0.00  0.00    -0.023 SA
ATOM     14  O   UNL d   1      46.248 -16.689  44.667  0.00  0.00    -0.258 OA
ENDBRANCH   7   8
ENDBRANCH   2   7
BRANCH   1  15
ATOM     15  O   UNL d   1      44.116 -12.265  42.965  0.00  0.00    -0.326 OA
ATOM     16  C   UNL d   1      43.520 -12.712  42.595  0.00  0.00     0.181 C 
ENDBRANCH   1  15
BRANCH   4  17
ATOM     17  O   UNL d   1      45.622 -12.082  42.287  0.00  0.00    -0.326 OA
ATOM     18  C   UNL d   1      46.326 -12.111  41.856  0.00  0.00     0.181 C 
ENDBRANCH   4  17
TORSDOF 4
ENDMDL
MODEL 3
REMARK VINA RESULT:      19.5      3.035      4.548
REMARK  4 active torsions:
REMARK  status: ('A' for Active; 'I' for Inactive)
REMARK    1  A    between atoms: C_6  and  C_4 
REMARK    2  A    between atoms: C_9  and  C_6 
REMARK    3  A    between atoms: O_15  and  C_8 
REMARK    4  A    between atoms: O_16  and  C_12 
ROOT
ATOM      1  C   UNL d   1      46.073 -15.432  44.354  0.00  0.00     0.116 A 
ATOM      2  C   UNL d   1      45.923 -16.810  44.696  0.00  0.00     0.003 A 
ATOM      3  C   UNL d   1      46.378 -16.191  44.397  0.00  0.00     0.026 A 
ATOM      4  C   UNL d   1      45.297 -15.277  44.611  0.00  0.00     0.116 A 
ATOM      5  C   UNL d   1      44.841 -15.903  44.911  0.00  0.00     0.026 A 
ATOM      6  C   UNL d   1      45.146 -16.662  44.955  0.00  0.00     0.002 A 
ENDROOT
BRANCH   2   7
ATOM      7  C   UNL d   1      46.231 -17.573  44.739  0.00  0.00     0.009 C 
BRANCH   7   8
ATOM      8  C   UNL d   1      46.296 -18.028  44.061  0.00  0.00     0.062 A 
ATOM      9  C   UNL d   1      46.428 -18.846  44.035  0.00  0.00     0.145 A 
ATOM     10  N   UNL d   1      46.455 -19.077  43.243  0.00  0.00    -0.191 NA
ATOM     11  S   UNL d   1      46.516 -19.336  44.690  0.00  0.00    -0.057 SA
ATOM     12  C   UNL d   1      46.339 -18.402  42.777  0.00  0.00     0.311 A 
ATOM     13  S   UNL d   1      46.242 -17.762  43.282  0.00  0.00    -0.023 SA
ATOM     14  O   UNL d   1      46.326 -18.386  41.951  0.00  0.00    -0.258 OA
ENDBRANCH   7   8
ENDBRANCH   2   7
BRANCH   1  15
ATOM     15  O   UNL d   1      46.536 -14.817  44.054  0.00  0.00    -0.326 OA
ATOM     16  C   UNL d   1      46.191 -14.241  43.563  0.00  0.00     0.181 C 
ENDBRANCH   1  15
BRANCH   4  17
ATOM     17  O   UNL d   1      44.985 -14.523  44.572  0.00  0.00    -0.326 OA
ATOM     18  C   UNL d   1      44.276 -14.344  44.954  0.00  0.00     0.181 C 
ENDBRANCH   4  17
TORSDOF 4
ENDMDL
MODEL 4
REMARK VINA RESULT:      20.8      6.646      7.608
REMARK  4 active torsions:
REMARK  status: ('A' for Active; 'I' for Inactive)
REMARK    1  A    between atoms: C_6  and  C_4 
REMARK    2  A    between atoms: C_9  and  C_6 
REMARK    3  A    between atoms: O_15  and  C_8 
REMARK    4  A    between atoms: O_16  and  C_12 
ROOT
ATOM      1  C   UNL d   1      43.129 -15.142  37.426  0.00  0.00     0.116 A 
ATOM      2  C   UNL d   1      44.261 -15.817  36.878  0.00  0.00     0.003 A 
ATOM      3  C   UNL d   1      43.935 -15.290  37.421  0.00  0.00     0.026 A 
ATOM      4  C   UNL d   1      42.630 -15.523  36.882  0.00  0.00     0.116 A 
ATOM      5  C   UNL d   1      42.961 -16.054  36.335  0.00  0.00     0.026 A 
ATOM      6  C   UNL d   1      43.767 -16.202  36.330  0.00  0.00     0.002 A 
ENDROOT
BRANCH   2   7
ATOM      7  C   UNL d   1      45.071 -15.965  36.873  0.00  0.00     0.009 C 
BRANCH   7   8
ATOM      8  C   UNL d   1      45.602 -15.342  36.900  0.00  0.00     0.062 A 
ATOM      9  C   UNL d   1      46.269 -15.292  37.390  0.00  0.00     0.145 A 
ATOM     10  N   UNL d   1      46.646 -14.574  37.238  0.00  0.00    -0.191 NA
ATOM     11  S   UNL d   1      46.507 -15.864  37.931  0.00  0.00    -0.057 SA
ATOM     12  C   UNL d   1      46.214 -14.177  36.654  0.00  0.00     0.311 A 
ATOM     13  S   UNL d   1      45.575 -14.652  36.450  0.00  0.00    -0.023 SA
ATOM     14  O   UNL d   1      46.399 -13.437  36.339  0.00  0.00    -0.258 OA
ENDBRANCH   7   8
ENDBRANCH   2   7
BRANCH   1  15
ATOM     15  O   UNL d   1      42.811 -14.612  37.975  0.00  0.00    -0.326 OA
ATOM     16  C   UNL d   1      43.086 -14.614  38.759  0.00  0.00     0.181 C 
ENDBRANCH   1  15
BRANCH   4  17
ATOM     17  O   UNL d   1      41.825 -15.382  36.880  0.00  0.00    -0.326 OA
ATOM     18  C   UNL d   1      41.335 -15.756  36.331  0.00  0.00     0.181 C 
ENDBRANCH   4  17
TORSDOF 4
ENDMDL
