MODEL 1
REMARK VINA RESULT:      37.4      0.000      0.000
REMARK  2 active torsions:
REMARK  status: ('A' for Active; 'I' for Inactive)
REMARK    1  A    between atoms: C_4  and  N_2 
REMARK    2  A    between atoms: C_7  and  C_4 
REMARK       I    between atoms: N_8  and  C_7 
ROOT
ATOM      1  S   UNL d   1      14.612  13.085  -1.004  0.00  0.00     0.274 S 
ATOM      2  N   UNL d   1      14.148  13.270  -1.648  0.00  0.00    -0.192 N 
ATOM      3  C   UNL d   1      14.212  14.073  -1.813  0.00  0.00     0.275 A 
ATOM      4  C   UNL d   1      14.735  14.406  -1.253  0.00  0.00     0.069 A 
ATOM      5  C   UNL d   1      14.985  13.787  -0.746  0.00  0.00     0.109 A 
ATOM      6  O   UNL d   1      14.246  12.387  -1.253  0.00  0.00    -0.200 OA
ATOM      7  O   UNL d   1      15.012  12.708  -0.382  0.00  0.00    -0.200 OA
ATOM      8  O   UNL d   1      13.821  14.483  -2.433  0.00  0.00    -0.266 OA
ATOM      9  C   UNL d   1      15.007  15.158  -1.139  0.00  0.00     0.005 A 
ATOM     10  C   UNL d   1      15.499  13.941  -0.143  0.00  0.00     0.013 A 
ATOM     11  C   UNL d   1      15.542  15.316  -0.510  0.00  0.00     0.000 A 
ATOM     12  C   UNL d   1      15.787  14.709  -0.014  0.00  0.00     0.001 A 
ENDROOT
BRANCH   2  13
ATOM     13  C   UNL d   1      13.690  12.728  -2.061  0.00  0.00     0.156 C 
BRANCH  13  14
ATOM     14  C   UNL d   1      14.039  12.261  -2.646  0.00  0.00     0.283 C 
ATOM     15  N   UNL d   1      13.726  12.261  -3.402  0.00  0.00    -0.271 N 
ATOM     16  C   UNL d   1      13.072  12.713  -3.599  0.00  0.00     0.083 A 
ATOM     17  C   UNL d   1      14.083  11.787  -3.989  0.00  0.00     0.083 A 
ATOM     18  C   UNL d   1      12.769  12.703  -4.362  0.00  0.00     0.019 A 
ATOM     19  C   UNL d   1      13.112  12.240  -4.948  0.00  0.00     0.003 A 
ATOM     20  C   UNL d   1      13.772  11.783  -4.749  0.00  0.00     0.019 A 
ATOM     21  C   UNL d   1      12.804  12.230  -5.724  0.00  0.00     0.000 C 
ATOM     22  O   UNL d   1      14.706  11.797  -2.452  0.00  0.00    -0.265 OA
ENDBRANCH  13  14
ENDBRANCH   2  13
TORSDOF 2
ENDMDL
MODEL 2
REMARK VINA RESULT:      39.2      1.317      3.919
REMARK  2 active torsions:
REMARK  status: ('A' for Active; 'I' for Inactive)
REMARK    1  A    between atoms: C_4  and  N_2 
REMARK    2  A    between atoms: C_7  and  C_4 
REMARK       I    between atoms: N_8  and  C_7 
ROOT
ATOM      1  S   UNL d   1      14.742  11.800  -2.142  0.00  0.00     0.274 S 
ATOM      2  N   UNL d   1      14.328  11.805  -1.441  0.00  0.00    -0.192 N 
ATOM      3  C   UNL d   1      13.520  11.801  -1.598  0.00  0.00     0.275 A 
ATOM      4  C   UNL d   1      13.424  11.793  -2.427  0.00  0.00     0.069 A 
ATOM      5  C   UNL d   1      14.189  11.793  -2.768  0.00  0.00     0.109 A 
ATOM      6  O   UNL d   1      15.296  11.807  -1.528  0.00  0.00    -0.200 OA
ATOM      7  O   UNL d   1      15.327  11.797  -2.731  0.00  0.00    -0.200 OA
ATOM      8  O   UNL d   1      12.906  11.803  -1.025  0.00  0.00    -0.266 OA
ATOM      9  C   UNL d   1      12.769  11.787  -2.901  0.00  0.00     0.005 A 
ATOM     10  C   UNL d   1      14.274  11.787  -3.571  0.00  0.00     0.013 A 
ATOM     11  C   UNL d   1      12.860  11.780  -3.736  0.00  0.00     0.000 A 
ATOM     12  C   UNL d   1      13.610  11.780  -4.070  0.00  0.00     0.001 A 
ENDROOT
BRANCH   2  13
ATOM     13  C   UNL d   1      14.674  11.812  -0.696  0.00  0.00     0.156 C 
BRANCH  13  14
ATOM     14  C   UNL d   1      15.318  12.308  -0.551  0.00  0.00     0.283 C 
ATOM     15  N   UNL d   1      15.190  13.107  -0.421  0.00  0.00    -0.271 N 
ATOM     16  C   UNL d   1      14.438  13.432  -0.431  0.00  0.00     0.083 A 
ATOM     17  C   UNL d   1      15.845  13.603  -0.275  0.00  0.00     0.083 A 
ATOM     18  C   UNL d   1      14.326  14.234  -0.299  0.00  0.00     0.019 A 
ATOM     19  C   UNL d   1      14.963  14.732  -0.154  0.00  0.00     0.003 A 
ATOM     20  C   UNL d   1      15.722  14.404  -0.145  0.00  0.00     0.019 A 
ATOM     21  C   UNL d   1      14.849  15.549  -0.020  0.00  0.00     0.000 C 
ATOM     22  O   UNL d   1      16.088  11.984  -0.540  0.00  0.00    -0.265 OA
ENDBRANCH  13  14
ENDBRANCH   2  13
TORSDOF 2
ENDMDL
MODEL 3
REMARK VINA RESULT:      39.4      1.084      4.205
REMARK  2 active torsions:
REMARK  status: ('A' for Active; 'I' for Inactive)
REMARK    1  A    between atoms: C_4  and  N_2 
REMARK    2  A    between atoms: C_7  and  C_4 
REMARK       I    between atoms: N_8  and  C_7 
ROOT
ATOM      1  S   UNL d   1      13.590  13.528  -3.862  0.00  0.00     0.274 S 
ATOM      2  N   UNL d   1      13.389  13.103  -3.197  0.00  0.00    -0.192 N 
ATOM      3  C   UNL d   1      13.069  12.378  -3.420  0.00  0.00     0.275 A 
ATOM      4  C   UNL d   1      13.070  12.347  -4.255  0.00  0.00     0.069 A 
ATOM      5  C   UNL d   1      13.396  13.067  -4.531  0.00  0.00     0.109 A 
ATOM      6  O   UNL d   1      13.784  13.990  -3.204  0.00  0.00    -0.200 OA
ATOM      7  O   UNL d   1      13.855  14.102  -4.401  0.00  0.00    -0.200 OA
ATOM      8  O   UNL d   1      12.794  11.779  -2.900  0.00  0.00    -0.266 OA
ATOM      9  C   UNL d   1      12.828  11.783  -4.780  0.00  0.00     0.005 A 
ATOM     10  C   UNL d   1      13.469  13.200  -5.324  0.00  0.00     0.013 A 
ATOM     11  C   UNL d   1      12.905  11.923  -5.605  0.00  0.00     0.000 A 
ATOM     12  C   UNL d   1      13.224  12.629  -5.876  0.00  0.00     0.001 A 
ENDROOT
BRANCH   2  13
ATOM     13  C   UNL d   1      13.493  13.367  -2.427  0.00  0.00     0.156 C 
BRANCH  13  14
ATOM     14  C   UNL d   1      13.949  12.922  -1.901  0.00  0.00     0.283 C 
ATOM     15  N   UNL d   1      14.513  13.297  -1.441  0.00  0.00    -0.271 N 
ATOM     16  C   UNL d   1      14.641  14.105  -1.485  0.00  0.00     0.083 A 
ATOM     17  C   UNL d   1      14.971  12.843  -0.911  0.00  0.00     0.083 A 
ATOM     18  C   UNL d   1      15.210  14.467  -1.017  0.00  0.00     0.019 A 
ATOM     19  C   UNL d   1      15.666  14.030  -0.492  0.00  0.00     0.003 A 
ATOM     20  C   UNL d   1      15.538  13.214  -0.447  0.00  0.00     0.019 A 
ATOM     21  C   UNL d   1      16.245  14.397  -0.016  0.00  0.00     0.000 C 
ATOM     22  O   UNL d   1      13.825  12.098  -1.850  0.00  0.00    -0.265 OA
ENDBRANCH  13  14
ENDBRANCH   2  13
TORSDOF 2
ENDMDL
