MODEL 1
REMARK VINA RESULT:      47.2      0.000      0.000
REMARK  3 active torsions:
REMARK  status: ('A' for Active; 'I' for Inactive)
REMARK    1  A    between atoms: S_7  and  C_3 
REMARK       I    between atoms: N_4  and  C_5 
REMARK    2  A    between atoms: C_5  and  C_10 
REMARK    3  A    between atoms: C_10  and  S_7 
ROOT
ATOM      1  N   UNL d   1     -54.739-100.521 -43.726  0.00  0.00    -0.236 NA
ATOM      2  N   UNL d   1     -54.839-102.153 -43.978  0.00  0.00    -0.242 NA
ATOM      3  C   UNL d   1     -54.777-100.811 -44.498  0.00  0.00     0.129 A 
ATOM      4  C   UNL d   1     -54.827-101.634 -44.626  0.00  0.00     0.105 A 
ATOM      5  C   UNL d   1     -54.750-101.031 -43.086  0.00  0.00     0.100 A 
ATOM      6  C   UNL d   1     -54.800-101.854 -43.214  0.00  0.00     0.099 A 
ATOM      7  C   UNL d   1     -54.865-101.935 -45.382  0.00  0.00     0.023 C 
ATOM      8  C   UNL d   1     -54.812-102.373 -42.572  0.00  0.00     0.021 A 
ATOM      9  C   UNL d   1     -54.712-100.740 -42.319  0.00  0.00     0.021 A 
ATOM     10  C   UNL d   1     -54.772-102.063 -41.796  0.00  0.00     0.002 A 
ATOM     11  C   UNL d   1     -54.723-101.251 -41.671  0.00  0.00     0.002 A 
ENDROOT
BRANCH   3  12
ATOM     12  S   UNL d   1     -54.765-100.290 -45.128  0.00  0.00    -0.061 SA
BRANCH  12  13
ATOM     13  C   UNL d   1     -55.304 -99.680 -45.170  0.00  0.00     0.098 C 
BRANCH  13  14
ATOM     14  C   UNL d   1     -55.620 -99.353 -44.470  0.00  0.00     0.271 C 
ATOM     15  N   UNL d   1     -56.436 -99.217 -44.423  0.00  0.00    -0.272 N 
ATOM     16  C   UNL d   1     -56.755 -98.889 -43.722  0.00  0.00     0.083 A 
ATOM     17  C   UNL d   1     -56.924 -99.400 -45.049  0.00  0.00     0.083 A 
ATOM     18  C   UNL d   1     -57.565 -98.756 -43.678  0.00  0.00     0.019 A 
ATOM     19  C   UNL d   1     -58.053 -98.939 -44.305  0.00  0.00     0.003 A 
ATOM     20  C   UNL d   1     -57.743 -99.260 -44.990  0.00  0.00     0.019 A 
ATOM     21  C   UNL d   1     -58.895 -98.791 -44.236  0.00  0.00     0.000 C 
ATOM     22  O   UNL d   1     -55.129 -99.169 -43.841  0.00  0.00    -0.266 OA
ENDBRANCH  13  14
ENDBRANCH  12  13
ENDBRANCH   3  12
TORSDOF 3
ENDMDL
