MODEL 1
REMARK VINA RESULT:      41.6      0.000      0.000
REMARK  8 active torsions:
REMARK  status: ('A' for Active; 'I' for Inactive)
REMARK    1  A    between atoms: N_6  and  C_1 
REMARK    2  A    between atoms: N_8  and  C_2 
REMARK    3  A    between atoms: N_15  and  C_7 
REMARK    4  A    between atoms: C_12  and  N_8 
REMARK    5  A    between atoms: N_10  and  C_19 
REMARK    6  A    between atoms: C_24  and  N_15 
REMARK    7  A    between atoms: C_19  and  C_20 
REMARK    8  A    between atoms: C_20  and  C_24 
ROOT
ATOM      1  C   UNL d   1      15.018  16.189  -1.360  0.00  0.00     0.201 A 
ATOM      2  C   UNL d   1      14.772  15.408  -1.228  0.00  0.00     0.206 A 
ATOM      3  N   UNL d   1      14.583  14.950  -1.880  0.00  0.00    -0.038 NA
ATOM      4  N   UNL d   1      14.873  16.014  -2.755  0.00  0.00    -0.036 NA
ATOM      5  C   UNL d   1      15.068  16.491  -2.121  0.00  0.00     0.227 A 
ATOM      6  C   UNL d   1      14.633  15.252  -2.642  0.00  0.00     0.753 A 
ATOM      7  N   UNL d   1      15.313  17.269  -2.232  0.00  0.00    -0.125 N 
ENDROOT
BRANCH   6   8
ATOM      8  N   UNL d   1      14.439  14.779  -3.287  0.00  0.00    -0.058 NA
BRANCH   8   9
ATOM      9  C   UNL d   1      13.651  14.589  -3.434  0.00  0.00     0.120 C 
BRANCH   9  10
ATOM     10  C   UNL d   1      13.354  14.636  -4.201  0.00  0.00     0.040 C 
BRANCH  10  11
ATOM     11  C   UNL d   1      12.769  14.112  -4.451  0.00  0.00     0.082 C 
BRANCH  11  12
ATOM     12  N   UNL d   1      12.962  13.333  -4.646  0.00  0.00    -0.299 N 
ATOM     13  C   UNL d   1      12.935  12.752  -4.061  0.00  0.00     0.107 A 
ATOM     14  C   UNL d   1      13.127  11.974  -4.251  0.00  0.00     0.142 A 
ATOM     15  O   UNL d   1      13.344  11.779  -5.023  0.00  0.00    -0.300 OA
ATOM     16  C   UNL d   1      13.370  12.362  -5.604  0.00  0.00     0.142 A 
ATOM     17  C   UNL d   1      13.177  13.148  -5.415  0.00  0.00     0.107 A 
ENDBRANCH  11  12
ENDBRANCH  10  11
ENDBRANCH   9  10
ENDBRANCH   8   9
ENDBRANCH   6   8
BRANCH   2  18
ATOM     18  N   UNL d   1      14.722  15.104  -0.462  0.00  0.00    -0.225 NA
BRANCH  18  19
ATOM     19  C   UNL d   1      14.832  14.297  -0.326  0.00  0.00     0.085 A 
ATOM     20  C   UNL d   1      14.177  13.782  -0.321  0.00  0.00     0.049 A 
ATOM     21  C   UNL d   1      14.285  12.985  -0.187  0.00  0.00     0.142 A 
ATOM     22  F   UNL d   1      13.636  12.475  -0.182  0.00  0.00    -0.204 F 
ATOM     23  C   UNL d   1      15.045  12.685  -0.054  0.00  0.00     0.030 A 
ATOM     24  C   UNL d   1      15.694  13.195  -0.058  0.00  0.00     0.004 A 
ATOM     25  C   UNL d   1      15.585  14.001  -0.194  0.00  0.00     0.019 A 
ENDBRANCH  18  19
ENDBRANCH   2  18
BRANCH   1  26
ATOM     26  N   UNL d   1      15.216  16.672  -0.697  0.00  0.00    -0.107 N 
ATOM     27  O   UNL d   1      15.998  16.658  -0.400  0.00  0.00    -0.531 OA
ATOM     28  O   UNL d   1      14.635  17.160  -0.342  0.00  0.00    -0.531 OA
ENDBRANCH   1  26
TORSDOF 8
ENDMDL
MODEL 2
REMARK VINA RESULT:      42.0      1.373      4.564
REMARK  8 active torsions:
REMARK  status: ('A' for Active; 'I' for Inactive)
REMARK    1  A    between atoms: N_6  and  C_1 
REMARK    2  A    between atoms: N_8  and  C_2 
REMARK    3  A    between atoms: N_15  and  C_7 
REMARK    4  A    between atoms: C_12  and  N_8 
REMARK    5  A    between atoms: N_10  and  C_19 
REMARK    6  A    between atoms: C_24  and  N_15 
REMARK    7  A    between atoms: C_19  and  C_20 
REMARK    8  A    between atoms: C_20  and  C_24 
ROOT
ATOM      1  C   UNL d   1      13.477  13.005  -4.735  0.00  0.00     0.201 A 
ATOM      2  C   UNL d   1      13.431  12.907  -3.912  0.00  0.00     0.206 A 
ATOM      3  N   UNL d   1      13.442  13.580  -3.444  0.00  0.00    -0.038 NA
ATOM      4  N   UNL d   1      13.540  14.408  -4.579  0.00  0.00    -0.036 NA
ATOM      5  C   UNL d   1      13.532  13.753  -5.067  0.00  0.00     0.227 A 
ATOM      6  C   UNL d   1      13.496  14.328  -3.777  0.00  0.00     0.753 A 
ATOM      7  N   UNL d   1      13.576  13.830  -5.885  0.00  0.00    -0.125 N 
ENDROOT
BRANCH   6   8
ATOM      8  N   UNL d   1      13.506  14.995  -3.294  0.00  0.00    -0.058 NA
BRANCH   8   9
ATOM      9  C   UNL d   1      14.137  15.523  -3.336  0.00  0.00     0.120 C 
BRANCH   9  10
ATOM     10  C   UNL d   1      14.258  16.065  -2.729  0.00  0.00     0.040 C 
BRANCH  10  11
ATOM     11  C   UNL d   1      15.020  16.336  -2.562  0.00  0.00     0.082 C 
BRANCH  11  12
ATOM     12  N   UNL d   1      15.226  16.550  -1.791  0.00  0.00    -0.299 N 
ATOM     13  C   UNL d   1      14.791  16.251  -1.158  0.00  0.00     0.107 A 
ATOM     14  C   UNL d   1      14.994  16.462  -0.388  0.00  0.00     0.142 A 
ATOM     15  O   UNL d   1      15.629  16.970  -0.253  0.00  0.00    -0.300 OA
ATOM     16  C   UNL d   1      16.062  17.267  -0.889  0.00  0.00     0.142 A 
ATOM     17  C   UNL d   1      15.860  17.056  -1.666  0.00  0.00     0.107 A 
ENDBRANCH  11  12
ENDBRANCH  10  11
ENDBRANCH   9  10
ENDBRANCH   8   9
ENDBRANCH   6   8
BRANCH   2  18
ATOM     18  N   UNL d   1      13.377  12.154  -3.579  0.00  0.00    -0.225 NA
BRANCH  18  19
ATOM     19  C   UNL d   1      13.553  12.039  -2.780  0.00  0.00     0.085 A 
ATOM     20  C   UNL d   1      14.343  12.067  -2.519  0.00  0.00     0.049 A 
ATOM     21  C   UNL d   1      14.518  11.953  -1.730  0.00  0.00     0.142 A 
ATOM     22  F   UNL d   1      15.301  11.981  -1.471  0.00  0.00    -0.204 F 
ATOM     23  C   UNL d   1      13.910  11.809  -1.186  0.00  0.00     0.030 A 
ATOM     24  C   UNL d   1      13.127  11.780  -1.445  0.00  0.00     0.004 A 
ATOM     25  C   UNL d   1      12.950  11.896  -2.243  0.00  0.00     0.019 A 
ENDBRANCH  18  19
ENDBRANCH   2  18
BRANCH   1  26
ATOM     26  N   UNL d   1      13.467  12.320  -5.228  0.00  0.00    -0.107 N 
ATOM     27  O   UNL d   1      14.112  12.178  -5.743  0.00  0.00    -0.531 OA
ATOM     28  O   UNL d   1      12.820  11.791  -5.202  0.00  0.00    -0.531 OA
ENDBRANCH   1  26
TORSDOF 8
ENDMDL
MODEL 3
REMARK VINA RESULT:      42.6      2.177      4.755
REMARK  8 active torsions:
REMARK  status: ('A' for Active; 'I' for Inactive)
REMARK    1  A    between atoms: N_6  and  C_1 
REMARK    2  A    between atoms: N_8  and  C_2 
REMARK    3  A    between atoms: N_15  and  C_7 
REMARK    4  A    between atoms: C_12  and  N_8 
REMARK    5  A    between atoms: N_10  and  C_19 
REMARK    6  A    between atoms: C_24  and  N_15 
REMARK    7  A    between atoms: C_19  and  C_20 
REMARK    8  A    between atoms: C_20  and  C_24 
ROOT
ATOM      1  C   UNL d   1      13.320  13.021  -4.648  0.00  0.00     0.201 A 
ATOM      2  C   UNL d   1      13.133  13.444  -3.960  0.00  0.00     0.206 A 
ATOM      3  N   UNL d   1      13.043  13.022  -3.263  0.00  0.00    -0.038 NA
ATOM      4  N   UNL d   1      13.318  11.809  -3.922  0.00  0.00    -0.036 NA
ATOM      5  C   UNL d   1      13.413  12.206  -4.629  0.00  0.00     0.227 A 
ATOM      6  C   UNL d   1      13.135  12.206  -3.244  0.00  0.00     0.753 A 
ATOM      7  N   UNL d   1      13.599  11.804  -5.323  0.00  0.00    -0.125 N 
ENDROOT
BRANCH   6   8
ATOM      8  N   UNL d   1      13.042  11.796  -2.536  0.00  0.00    -0.058 NA
BRANCH   8   9
ATOM      9  C   UNL d   1      13.657  11.779  -1.988  0.00  0.00     0.120 C 
BRANCH   9  10
ATOM     10  C   UNL d   1      13.548  12.107  -1.241  0.00  0.00     0.040 C 
BRANCH  10  11
ATOM     11  C   UNL d   1      14.089  11.949  -0.637  0.00  0.00     0.082 C 
BRANCH  11  12
ATOM     12  N   UNL d   1      14.677  12.498  -0.451  0.00  0.00    -0.299 N 
ATOM     13  C   UNL d   1      14.460  13.254  -0.201  0.00  0.00     0.107 A 
ATOM     14  C   UNL d   1      15.044  13.804  -0.014  0.00  0.00     0.142 A 
ATOM     15  O   UNL d   1      15.840  13.599  -0.078  0.00  0.00    -0.300 OA
ATOM     16  C   UNL d   1      16.053  12.843  -0.328  0.00  0.00     0.142 A 
ATOM     17  C   UNL d   1      15.467  12.286  -0.517  0.00  0.00     0.107 A 
ENDBRANCH  11  12
ENDBRANCH  10  11
ENDBRANCH   9  10
ENDBRANCH   8   9
ENDBRANCH   6   8
BRANCH   2  18
ATOM     18  N   UNL d   1      13.040  14.263  -3.979  0.00  0.00    -0.225 NA
BRANCH  18  19
ATOM     19  C   UNL d   1      13.601  14.755  -3.623  0.00  0.00     0.085 A 
ATOM     20  C   UNL d   1      14.017  15.312  -4.081  0.00  0.00     0.049 A 
ATOM     21  C   UNL d   1      14.570  15.798  -3.731  0.00  0.00     0.142 A 
ATOM     22  F   UNL d   1      14.983  16.350  -4.184  0.00  0.00    -0.204 F 
ATOM     23  C   UNL d   1      14.721  15.738  -2.918  0.00  0.00     0.030 A 
ATOM     24  C   UNL d   1      14.309  15.186  -2.464  0.00  0.00     0.004 A 
ATOM     25  C   UNL d   1      13.749  14.695  -2.819  0.00  0.00     0.019 A 
ENDBRANCH  18  19
ENDBRANCH   2  18
BRANCH   1  26
ATOM     26  N   UNL d   1      13.416  13.443  -5.373  0.00  0.00    -0.107 N 
ATOM     27  O   UNL d   1      12.770  13.878  -5.681  0.00  0.00    -0.531 OA
ATOM     28  O   UNL d   1      14.148  13.426  -5.777  0.00  0.00    -0.531 OA
ENDBRANCH   1  26
TORSDOF 8
ENDMDL
