MODEL 1
REMARK VINA RESULT:      12.3      0.000      0.000
REMARK  2 active torsions:
REMARK  status: ('A' for Active; 'I' for Inactive)
REMARK    1  A    between atoms: S_2  and  N_1 
REMARK    2  A    between atoms: C_8  and  S_2 
ROOT
ATOM      1  S   UNL d   1      13.705  12.203  -2.618  0.00  0.00     0.273 S 
ATOM      2  O   UNL d   1      13.007  11.801  -2.464  0.00  0.00    -0.200 OA
ATOM      3  O   UNL d   1      14.410  12.606  -2.765  0.00  0.00    -0.200 OA
ENDROOT
BRANCH   1   4
ATOM      4  N   UNL d   1      13.930  12.076  -1.835  0.00  0.00    -0.207 N 
ATOM      5  C   UNL d   1      14.750  12.048  -1.713  0.00  0.00     0.148 A 
ATOM      6  N   UNL d   1      15.157  11.930  -0.997  0.00  0.00    -0.198 NA
ATOM      7  C   UNL d   1      14.858  11.814  -0.254  0.00  0.00     0.066 A 
ATOM      8  C   UNL d   1      14.179  11.963  -1.149  0.00  0.00     0.169 A 
ATOM      9  C   UNL d   1      14.074  11.783  -0.014  0.00  0.00     0.066 A 
ATOM     10  N   UNL d   1      13.392  11.863  -0.474  0.00  0.00    -0.198 NA
ATOM     11  C   UNL d   1      13.331  11.993  -1.282  0.00  0.00     0.148 A 
ENDBRANCH   1   4
BRANCH   1  12
ATOM     12  C   UNL d   1      13.473  12.326  -3.399  0.00  0.00     0.104 A 
ATOM     13  C   UNL d   1      13.031  12.994  -3.598  0.00  0.00     0.014 A 
ATOM     14  C   UNL d   1      12.799  13.116  -4.379  0.00  0.00     0.012 A 
ATOM     15  C   UNL d   1      13.007  12.572  -4.962  0.00  0.00     0.058 A 
ATOM     16  C   UNL d   1      13.448  11.903  -4.764  0.00  0.00     0.012 A 
ATOM     17 CL   UNL d   1      12.770  12.702  -5.741  0.00  0.00    -0.082 Cl
ATOM     18  C   UNL d   1      13.681  11.780  -3.983  0.00  0.00     0.014 A 
ENDBRANCH   1  12
TORSDOF 2
ENDMDL
