MODEL 1
REMARK VINA RESULT:      -7.7      0.000      0.000
REMARK  4 active torsions:
REMARK  status: ('A' for Active; 'I' for Inactive)
REMARK    1  A    between atoms: C_7  and  N_1 
REMARK    2  A    between atoms: N_6  and  C_2 
REMARK    3  A    between atoms: C_10  and  N_6 
REMARK    4  A    between atoms: C_12  and  C_7 
ROOT
ATOM      1  N   UNL d   1     -49.489  12.611  22.418  0.00  0.00    -0.239 N 
ATOM      2  C   UNL d   1     -48.175  12.377  22.617  0.00  0.00     0.151 A 
ATOM      3  C   UNL d   1     -48.903  12.560  23.020  0.00  0.00     0.285 A 
ATOM      4  C   UNL d   1     -49.106  12.457  21.655  0.00  0.00     0.269 A 
ATOM      5  C   UNL d   1     -48.315  12.320  21.810  0.00  0.00     0.086 A 
ATOM      6  O   UNL d   1     -48.949  12.640  23.698  0.00  0.00    -0.265 OA
ATOM      7  O   UNL d   1     -49.516  12.482  21.128  0.00  0.00    -0.267 OA
ENDROOT
BRANCH   2   8
ATOM      8  N   UNL d   1     -47.428  12.268  22.963  0.00  0.00    -0.181 N 
ATOM      9  O   UNL d   1     -47.455  11.631  23.366  0.00  0.00    -0.080 OA
BRANCH   8  10
ATOM     10  C   UNL d   1     -46.825  12.819  22.830  0.00  0.00     0.090 A 
ATOM     11  C   UNL d   1     -46.206  12.657  22.302  0.00  0.00     0.020 A 
ATOM     12  C   UNL d   1     -45.602  13.219  22.174  0.00  0.00     0.002 A 
ATOM     13  C   UNL d   1     -45.605  13.950  22.569  0.00  0.00     0.000 A 
ATOM     14  C   UNL d   1     -46.225  14.109  23.097  0.00  0.00     0.002 A 
ATOM     15  C   UNL d   1     -46.829  13.555  23.229  0.00  0.00     0.020 A 
ENDBRANCH   8  10
ENDBRANCH   2   8
BRANCH   1  16
ATOM     16  C   UNL d   1     -50.254  12.761  22.437  0.00  0.00     0.086 C 
BRANCH  16  17
ATOM     17  C   UNL d   1     -50.525  13.498  22.650  0.00  0.00     0.018 A 
ATOM     18  C   UNL d   1     -50.524  14.101  22.103  0.00  0.00     0.002 A 
ATOM     19  C   UNL d   1     -50.795  14.837  22.316  0.00  0.00     0.000 A 
ATOM     20  C   UNL d   1     -51.064  14.975  23.064  0.00  0.00     0.000 A 
ATOM     21  C   UNL d   1     -51.064  14.362  23.618  0.00  0.00     0.000 A 
ATOM     22  C   UNL d   1     -50.791  13.614  23.408  0.00  0.00     0.002 A 
ENDBRANCH  16  17
ENDBRANCH   1  16
TORSDOF 4
ENDMDL
MODEL 2
REMARK VINA RESULT:      -7.2      1.059      3.757
REMARK  4 active torsions:
REMARK  status: ('A' for Active; 'I' for Inactive)
REMARK    1  A    between atoms: C_7  and  N_1 
REMARK    2  A    between atoms: N_6  and  C_2 
REMARK    3  A    between atoms: C_10  and  N_6 
REMARK    4  A    between atoms: C_12  and  C_7 
ROOT
ATOM      1  N   UNL d   1     -48.845  12.311  22.228  0.00  0.00    -0.239 N 
ATOM      2  C   UNL d   1     -49.790  13.271  22.143  0.00  0.00     0.151 A 
ATOM      3  C   UNL d   1     -48.992  13.078  21.916  0.00  0.00     0.285 A 
ATOM      4  C   UNL d   1     -49.560  12.048  22.643  0.00  0.00     0.269 A 
ATOM      5  C   UNL d   1     -50.110  12.649  22.573  0.00  0.00     0.086 A 
ATOM      6  O   UNL d   1     -48.592  13.498  21.552  0.00  0.00    -0.265 OA
ATOM      7  O   UNL d   1     -49.514  11.441  22.918  0.00  0.00    -0.267 OA
ENDROOT
BRANCH   2   8
ATOM      8  N   UNL d   1     -50.202  13.971  21.970  0.00  0.00    -0.181 N 
ATOM      9  O   UNL d   1     -50.466  13.911  21.267  0.00  0.00    -0.080 OA
BRANCH   8  10
ATOM     10  C   UNL d   1     -50.256  14.571  22.537  0.00  0.00     0.090 A 
ATOM     11  C   UNL d   1     -49.618  15.080  22.684  0.00  0.00     0.020 A 
ATOM     12  C   UNL d   1     -49.682  15.683  23.258  0.00  0.00     0.002 A 
ATOM     13  C   UNL d   1     -50.382  15.788  23.694  0.00  0.00     0.000 A 
ATOM     14  C   UNL d   1     -51.019  15.277  23.545  0.00  0.00     0.002 A 
ATOM     15  C   UNL d   1     -50.962  14.676  22.975  0.00  0.00     0.020 A 
ENDBRANCH   8  10
ENDBRANCH   2   8
BRANCH   1  16
ATOM     16  C   UNL d   1     -48.223  11.842  22.205  0.00  0.00     0.086 C 
BRANCH  16  17
ATOM     17  C   UNL d   1     -47.541  12.041  22.599  0.00  0.00     0.018 A 
ATOM     18  C   UNL d   1     -47.259  11.556  23.189  0.00  0.00     0.002 A 
ATOM     19  C   UNL d   1     -46.577  11.755  23.583  0.00  0.00     0.000 A 
ATOM     20  C   UNL d   1     -46.176  12.429  23.394  0.00  0.00     0.000 A 
ATOM     21  C   UNL d   1     -46.462  12.922  22.795  0.00  0.00     0.000 A 
ATOM     22  C   UNL d   1     -47.154  12.724  22.392  0.00  0.00     0.002 A 
ENDBRANCH  16  17
ENDBRANCH   1  16
TORSDOF 4
ENDMDL
MODEL 3
REMARK VINA RESULT:      -7.1      1.099      4.204
REMARK  4 active torsions:
REMARK  status: ('A' for Active; 'I' for Inactive)
REMARK    1  A    between atoms: C_7  and  N_1 
REMARK    2  A    between atoms: N_6  and  C_2 
REMARK    3  A    between atoms: C_10  and  N_6 
REMARK    4  A    between atoms: C_12  and  C_7 
ROOT
ATOM      1  N   UNL d   1     -47.177  13.280  22.946  0.00  0.00    -0.239 N 
ATOM      2  C   UNL d   1     -48.379  12.914  22.453  0.00  0.00     0.151 A 
ATOM      3  C   UNL d   1     -47.634  12.607  22.731  0.00  0.00     0.285 A 
ATOM      4  C   UNL d   1     -47.654  13.989  22.794  0.00  0.00     0.269 A 
ATOM      5  C   UNL d   1     -48.371  13.733  22.498  0.00  0.00     0.086 A 
ATOM      6  O   UNL d   1     -47.487  11.939  22.755  0.00  0.00    -0.265 OA
ATOM      7  O   UNL d   1     -47.350  14.564  22.944  0.00  0.00    -0.267 OA
ENDROOT
BRANCH   2   8
ATOM      8  N   UNL d   1     -49.026  12.473  22.175  0.00  0.00    -0.181 N 
ATOM      9  O   UNL d   1     -48.856  12.233  21.481  0.00  0.00    -0.080 OA
BRANCH   8  10
ATOM     10  C   UNL d   1     -49.695  12.373  22.651  0.00  0.00     0.090 A 
ATOM     11  C   UNL d   1     -49.728  11.771  23.221  0.00  0.00     0.020 A 
ATOM     12  C   UNL d   1     -50.407  11.678  23.698  0.00  0.00     0.002 A 
ATOM     13  C   UNL d   1     -51.063  12.182  23.614  0.00  0.00     0.000 A 
ATOM     14  C   UNL d   1     -51.027  12.783  23.043  0.00  0.00     0.002 A 
ATOM     15  C   UNL d   1     -50.355  12.882  22.566  0.00  0.00     0.020 A 
ENDBRANCH   8  10
ENDBRANCH   2   8
BRANCH   1  16
ATOM     16  C   UNL d   1     -46.457  13.358  23.235  0.00  0.00     0.086 C 
BRANCH  16  17
ATOM     17  C   UNL d   1     -45.811  13.126  22.800  0.00  0.00     0.018 A 
ATOM     18  C   UNL d   1     -45.521  13.615  22.217  0.00  0.00     0.002 A 
ATOM     19  C   UNL d   1     -44.874  13.383  21.783  0.00  0.00     0.000 A 
ATOM     20  C   UNL d   1     -44.518  12.673  21.925  0.00  0.00     0.000 A 
ATOM     21  C   UNL d   1     -44.812  12.178  22.517  0.00  0.00     0.000 A 
ATOM     22  C   UNL d   1     -45.468  12.408  22.961  0.00  0.00     0.002 A 
ENDBRANCH  16  17
ENDBRANCH   1  16
TORSDOF 4
ENDMDL
MODEL 4
REMARK VINA RESULT:      -7.0      0.979      3.730
REMARK  4 active torsions:
REMARK  status: ('A' for Active; 'I' for Inactive)
REMARK    1  A    between atoms: C_7  and  N_1 
REMARK    2  A    between atoms: N_6  and  C_2 
REMARK    3  A    between atoms: C_10  and  N_6 
REMARK    4  A    between atoms: C_12  and  C_7 
ROOT
ATOM      1  N   UNL d   1     -47.922  12.177  23.380  0.00  0.00    -0.239 N 
ATOM      2  C   UNL d   1     -49.252  12.181  23.145  0.00  0.00     0.151 A 
ATOM      3  C   UNL d   1     -48.612  12.653  23.453  0.00  0.00     0.285 A 
ATOM      4  C   UNL d   1     -48.154  11.419  23.027  0.00  0.00     0.269 A 
ATOM      5  C   UNL d   1     -48.961  11.454  22.898  0.00  0.00     0.086 A 
ATOM      6  O   UNL d   1     -48.696  13.286  23.698  0.00  0.00    -0.265 OA
ATOM      7  O   UNL d   1     -47.652  10.988  22.939  0.00  0.00    -0.267 OA
ENDROOT
BRANCH   2   8
ATOM      8  N   UNL d   1     -50.052  12.399  23.093  0.00  0.00    -0.181 N 
ATOM      9  O   UNL d   1     -50.406  12.108  23.691  0.00  0.00    -0.080 OA
BRANCH   8  10
ATOM     10  C   UNL d   1     -50.315  12.856  22.456  0.00  0.00     0.090 A 
ATOM     11  C   UNL d   1     -50.381  12.533  21.694  0.00  0.00     0.020 A 
ATOM     12  C   UNL d   1     -50.648  13.002  21.058  0.00  0.00     0.002 A 
ATOM     13  C   UNL d   1     -50.854  13.800  21.170  0.00  0.00     0.000 A 
ATOM     14  C   UNL d   1     -50.788  14.120  21.932  0.00  0.00     0.002 A 
ATOM     15  C   UNL d   1     -50.523  13.659  22.570  0.00  0.00     0.020 A 
ENDBRANCH   8  10
ENDBRANCH   2   8
BRANCH   1  16
ATOM     16  C   UNL d   1     -47.175  12.300  23.563  0.00  0.00     0.086 C 
BRANCH  16  17
ATOM     17  C   UNL d   1     -46.727  12.827  23.136  0.00  0.00     0.018 A 
ATOM     18  C   UNL d   1     -46.670  13.600  23.383  0.00  0.00     0.002 A 
ATOM     19  C   UNL d   1     -46.222  14.127  22.957  0.00  0.00     0.000 A 
ATOM     20  C   UNL d   1     -45.832  13.890  22.292  0.00  0.00     0.000 A 
ATOM     21  C   UNL d   1     -45.889  13.105  22.042  0.00  0.00     0.000 A 
ATOM     22  C   UNL d   1     -46.343  12.566  22.470  0.00  0.00     0.002 A 
ENDBRANCH  16  17
ENDBRANCH   1  16
TORSDOF 4
ENDMDL
MODEL 5
REMARK VINA RESULT:      -6.5      9.126     10.514
REMARK  4 active torsions:
REMARK  status: ('A' for Active; 'I' for Inactive)
REMARK    1  A    between atoms: C_7  and  N_1 
REMARK    2  A    between atoms: N_6  and  C_2 
REMARK    3  A    between atoms: C_10  and  N_6 
REMARK    4  A    between atoms: C_12  and  C_7 
ROOT
ATOM      1  N   UNL d   1     -40.087  14.781  18.101  0.00  0.00    -0.239 N 
ATOM      2  C   UNL d   1     -39.990  14.939  19.438  0.00  0.00     0.151 A 
ATOM      3  C   UNL d   1     -39.691  15.228  18.694  0.00  0.00     0.285 A 
ATOM      4  C   UNL d   1     -40.623  14.224  18.496  0.00  0.00     0.269 A 
ATOM      5  C   UNL d   1     -40.540  14.345  19.300  0.00  0.00     0.086 A 
ATOM      6  O   UNL d   1     -39.224  15.725  18.643  0.00  0.00    -0.265 OA
ATOM      7  O   UNL d   1     -40.972  13.834  18.082  0.00  0.00    -0.267 OA
ENDROOT
BRANCH   2   8
ATOM      8  N   UNL d   1     -39.774  15.200  20.197  0.00  0.00    -0.181 N 
ATOM      9  O   UNL d   1     -39.987  15.921  20.257  0.00  0.00    -0.080 OA
BRANCH   8  10
ATOM     10  C   UNL d   1     -39.396  14.685  20.721  0.00  0.00     0.090 A 
ATOM     11  C   UNL d   1     -38.584  14.526  20.654  0.00  0.00     0.020 A 
ATOM     12  C   UNL d   1     -38.211  14.003  21.188  0.00  0.00     0.002 A 
ATOM     13  C   UNL d   1     -38.639  13.632  21.796  0.00  0.00     0.000 A 
ATOM     14  C   UNL d   1     -39.451  13.792  21.860  0.00  0.00     0.002 A 
ATOM     15  C   UNL d   1     -39.829  14.311  21.332  0.00  0.00     0.020 A 
ENDBRANCH   8  10
ENDBRANCH   2   8
BRANCH   1  16
ATOM     16  C   UNL d   1     -40.051  14.788  17.323  0.00  0.00     0.086 C 
BRANCH  16  17
ATOM     17  C   UNL d   1     -39.372  14.558  16.939  0.00  0.00     0.018 A 
ATOM     18  C   UNL d   1     -39.147  13.776  16.951  0.00  0.00     0.002 A 
ATOM     19  C   UNL d   1     -38.469  13.546  16.567  0.00  0.00     0.000 A 
ATOM     20  C   UNL d   1     -38.017  14.086  16.174  0.00  0.00     0.000 A 
ATOM     21  C   UNL d   1     -38.246  14.880  16.162  0.00  0.00     0.000 A 
ATOM     22  C   UNL d   1     -38.933  15.119  16.550  0.00  0.00     0.002 A 
ENDBRANCH  16  17
ENDBRANCH   1  16
TORSDOF 4
ENDMDL
MODEL 6
REMARK VINA RESULT:      -6.2      1.279      1.999
REMARK  4 active torsions:
REMARK  status: ('A' for Active; 'I' for Inactive)
REMARK    1  A    between atoms: C_7  and  N_1 
REMARK    2  A    between atoms: N_6  and  C_2 
REMARK    3  A    between atoms: C_10  and  N_6 
REMARK    4  A    between atoms: C_12  and  C_7 
ROOT
ATOM      1  N   UNL d   1     -48.191  12.216  23.361  0.00  0.00    -0.239 N 
ATOM      2  C   UNL d   1     -46.922  12.672  23.282  0.00  0.00     0.151 A 
ATOM      3  C   UNL d   1     -47.737  12.922  23.307  0.00  0.00     0.285 A 
ATOM      4  C   UNL d   1     -47.642  11.543  23.368  0.00  0.00     0.269 A 
ATOM      5  C   UNL d   1     -46.887  11.852  23.319  0.00  0.00     0.086 A 
ATOM      6  O   UNL d   1     -47.930  13.578  23.285  0.00  0.00    -0.265 OA
ATOM      7  O   UNL d   1     -47.937  10.946  23.409  0.00  0.00    -0.267 OA
ENDROOT
BRANCH   2   8
ATOM      8  N   UNL d   1     -46.252  13.160  23.229  0.00  0.00    -0.181 N 
ATOM      9  O   UNL d   1     -46.357  13.741  23.698  0.00  0.00    -0.080 OA
BRANCH   8  10
ATOM     10  C   UNL d   1     -45.631  12.957  22.722  0.00  0.00     0.090 A 
ATOM     11  C   UNL d   1     -45.062  12.397  22.944  0.00  0.00     0.020 A 
ATOM     12  C   UNL d   1     -44.438  12.199  22.425  0.00  0.00     0.002 A 
ATOM     13  C   UNL d   1     -44.373  12.556  21.677  0.00  0.00     0.000 A 
ATOM     14  C   UNL d   1     -44.944  13.116  21.457  0.00  0.00     0.002 A 
ATOM     15  C   UNL d   1     -45.567  13.318  21.968  0.00  0.00     0.020 A 
ENDBRANCH   8  10
ENDBRANCH   2   8
BRANCH   1  16
ATOM     16  C   UNL d   1     -48.957  12.083  23.402  0.00  0.00     0.086 C 
BRANCH  16  17
ATOM     17  C   UNL d   1     -49.449  12.312  22.796  0.00  0.00     0.018 A 
ATOM     18  C   UNL d   1     -49.339  12.007  22.050  0.00  0.00     0.002 A 
ATOM     19  C   UNL d   1     -49.830  12.236  21.445  0.00  0.00     0.000 A 
ATOM     20  C   UNL d   1     -50.426  12.763  21.577  0.00  0.00     0.000 A 
ATOM     21  C   UNL d   1     -50.538  13.073  22.335  0.00  0.00     0.000 A 
ATOM     22  C   UNL d   1     -50.042  12.844  22.953  0.00  0.00     0.002 A 
ENDBRANCH  16  17
ENDBRANCH   1  16
TORSDOF 4
ENDMDL
MODEL 7
REMARK VINA RESULT:      -5.9      8.431     10.332
REMARK  4 active torsions:
REMARK  status: ('A' for Active; 'I' for Inactive)
REMARK    1  A    between atoms: C_7  and  N_1 
REMARK    2  A    between atoms: N_6  and  C_2 
REMARK    3  A    between atoms: C_10  and  N_6 
REMARK    4  A    between atoms: C_12  and  C_7 
ROOT
ATOM      1  N   UNL d   1     -39.414  13.946  19.627  0.00  0.00    -0.239 N 
ATOM      2  C   UNL d   1     -39.182  13.902  18.298  0.00  0.00     0.151 A 
ATOM      3  C   UNL d   1     -39.803  13.919  18.881  0.00  0.00     0.285 A 
ATOM      4  C   UNL d   1     -38.558  13.944  19.484  0.00  0.00     0.269 A 
ATOM      5  C   UNL d   1     -38.453  13.917  18.674  0.00  0.00     0.086 A 
ATOM      6  O   UNL d   1     -40.469  13.911  18.724  0.00  0.00    -0.265 OA
ATOM      7  O   UNL d   1     -38.184  13.964  20.037  0.00  0.00    -0.267 OA
ENDROOT
BRANCH   2   8
ATOM      8  N   UNL d   1     -39.275  13.873  17.473  0.00  0.00    -0.181 N 
ATOM      9  O   UNL d   1     -39.575  13.204  17.301  0.00  0.00    -0.080 OA
BRANCH   8  10
ATOM     10  C   UNL d   1     -39.048  14.518  17.008  0.00  0.00     0.090 A 
ATOM     11  C   UNL d   1     -39.540  15.182  16.925  0.00  0.00     0.020 A 
ATOM     12  C   UNL d   1     -39.301  15.828  16.454  0.00  0.00     0.002 A 
ATOM     13  C   UNL d   1     -38.570  15.824  16.058  0.00  0.00     0.000 A 
ATOM     14  C   UNL d   1     -38.080  15.160  16.142  0.00  0.00     0.002 A 
ATOM     15  C   UNL d   1     -38.311  14.514  16.610  0.00  0.00     0.020 A 
ENDBRANCH   8  10
ENDBRANCH   2   8
BRANCH   1  16
ATOM     16  C   UNL d   1     -39.678  13.969  20.360  0.00  0.00     0.086 C 
BRANCH  16  17
ATOM     17  C   UNL d   1     -40.077  14.622  20.634  0.00  0.00     0.018 A 
ATOM     18  C   UNL d   1     -40.891  14.622  20.643  0.00  0.00     0.002 A 
ATOM     19  C   UNL d   1     -41.290  15.275  20.917  0.00  0.00     0.000 A 
ATOM     20  C   UNL d   1     -40.887  15.922  21.180  0.00  0.00     0.000 A 
ATOM     21  C   UNL d   1     -40.061  15.921  21.171  0.00  0.00     0.000 A 
ATOM     22  C   UNL d   1     -39.651  15.262  20.894  0.00  0.00     0.002 A 
ENDBRANCH  16  17
ENDBRANCH   1  16
TORSDOF 4
ENDMDL
MODEL 8
REMARK VINA RESULT:      -5.9      9.116     10.180
REMARK  4 active torsions:
REMARK  status: ('A' for Active; 'I' for Inactive)
REMARK    1  A    between atoms: C_7  and  N_1 
REMARK    2  A    between atoms: N_6  and  C_2 
REMARK    3  A    between atoms: C_10  and  N_6 
REMARK    4  A    between atoms: C_12  and  C_7 
ROOT
ATOM      1  N   UNL d   1     -39.454  14.999  20.236  0.00  0.00    -0.239 N 
ATOM      2  C   UNL d   1     -40.207  14.753  19.143  0.00  0.00     0.151 A 
ATOM      3  C   UNL d   1     -39.478  14.542  19.531  0.00  0.00     0.285 A 
ATOM      4  C   UNL d   1     -40.173  15.484  20.267  0.00  0.00     0.269 A 
ATOM      5  C   UNL d   1     -40.604  15.312  19.594  0.00  0.00     0.086 A 
ATOM      6  O   UNL d   1     -39.035  14.086  19.277  0.00  0.00    -0.265 OA
ATOM      7  O   UNL d   1     -40.221  15.876  20.805  0.00  0.00    -0.267 OA
ENDROOT
BRANCH   2   8
ATOM      8  N   UNL d   1     -40.492  14.454  18.422  0.00  0.00    -0.181 N 
ATOM      9  O   UNL d   1     -40.702  13.740  18.540  0.00  0.00    -0.080 OA
BRANCH   8  10
ATOM     10  C   UNL d   1     -40.504  14.936  17.750  0.00  0.00     0.090 A 
ATOM     11  C   UNL d   1     -39.849  14.978  17.242  0.00  0.00     0.020 A 
ATOM     12  C   UNL d   1     -39.870  15.467  16.565  0.00  0.00     0.002 A 
ATOM     13  C   UNL d   1     -40.543  15.921  16.385  0.00  0.00     0.000 A 
ATOM     14  C   UNL d   1     -41.196  15.877  16.895  0.00  0.00     0.002 A 
ATOM     15  C   UNL d   1     -41.182  15.393  17.569  0.00  0.00     0.020 A 
ENDBRANCH   8  10
ENDBRANCH   2   8
BRANCH   1  16
ATOM     16  C   UNL d   1     -38.934  15.051  20.814  0.00  0.00     0.086 C 
BRANCH  16  17
ATOM     17  C   UNL d   1     -38.794  14.416  21.302  0.00  0.00     0.018 A 
ATOM     18  C   UNL d   1     -39.302  14.260  21.918  0.00  0.00     0.002 A 
ATOM     19  C   UNL d   1     -39.162  13.625  22.406  0.00  0.00     0.000 A 
ATOM     20  C   UNL d   1     -38.523  13.148  22.283  0.00  0.00     0.000 A 
ATOM     21  C   UNL d   1     -38.008  13.305  21.657  0.00  0.00     0.000 A 
ATOM     22  C   UNL d   1     -38.145  13.948  21.160  0.00  0.00     0.002 A 
ENDBRANCH  16  17
ENDBRANCH   1  16
TORSDOF 4
ENDMDL
MODEL 9
REMARK VINA RESULT:      -5.7      8.675     10.466
REMARK  4 active torsions:
REMARK  status: ('A' for Active; 'I' for Inactive)
REMARK    1  A    between atoms: C_7  and  N_1 
REMARK    2  A    between atoms: N_6  and  C_2 
REMARK    3  A    between atoms: C_10  and  N_6 
REMARK    4  A    between atoms: C_12  and  C_7 
ROOT
ATOM      1  N   UNL d   1     -40.278  15.611  18.461  0.00  0.00    -0.239 N 
ATOM      2  C   UNL d   1     -39.373  15.251  17.526  0.00  0.00     0.151 A 
ATOM      3  C   UNL d   1     -39.458  15.647  18.276  0.00  0.00     0.285 A 
ATOM      4  C   UNL d   1     -40.681  15.191  17.816  0.00  0.00     0.269 A 
ATOM      5  C   UNL d   1     -40.107  14.989  17.270  0.00  0.00     0.086 A 
ATOM      6  O   UNL d   1     -38.933  15.922  18.618  0.00  0.00    -0.265 OA
ATOM      7  O   UNL d   1     -41.340  15.126  17.898  0.00  0.00    -0.267 OA
ENDROOT
BRANCH   2   8
ATOM      8  N   UNL d   1     -38.669  15.136  17.100  0.00  0.00    -0.181 N 
ATOM      9  O   UNL d   1     -38.365  15.815  16.976  0.00  0.00    -0.080 OA
BRANCH   8  10
ATOM     10  C   UNL d   1     -38.428  14.372  16.895  0.00  0.00     0.090 A 
ATOM     11  C   UNL d   1     -38.265  13.804  17.477  0.00  0.00     0.020 A 
ATOM     12  C   UNL d   1     -38.023  13.035  17.261  0.00  0.00     0.002 A 
ATOM     13  C   UNL d   1     -37.940  12.820  16.462  0.00  0.00     0.000 A 
ATOM     14  C   UNL d   1     -38.105  13.390  15.882  0.00  0.00     0.002 A 
ATOM     15  C   UNL d   1     -38.346  14.157  16.090  0.00  0.00     0.020 A 
ENDBRANCH   8  10
ENDBRANCH   2   8
BRANCH   1  16
ATOM     16  C   UNL d   1     -40.694  15.872  19.065  0.00  0.00     0.086 C 
BRANCH  16  17
ATOM     17  C   UNL d   1     -40.654  15.499  19.786  0.00  0.00     0.018 A 
ATOM     18  C   UNL d   1     -40.894  14.724  19.854  0.00  0.00     0.002 A 
ATOM     19  C   UNL d   1     -40.853  14.351  20.575  0.00  0.00     0.000 A 
ATOM     20  C   UNL d   1     -40.577  14.743  21.224  0.00  0.00     0.000 A 
ATOM     21  C   UNL d   1     -40.333  15.529  21.155  0.00  0.00     0.000 A 
ATOM     22  C   UNL d   1     -40.372  15.912  20.426  0.00  0.00     0.002 A 
ENDBRANCH  16  17
ENDBRANCH   1  16
TORSDOF 4
ENDMDL
