MODEL 1
REMARK VINA RESULT:      15.3      0.000      0.000
REMARK  3 active torsions:
REMARK  status: ('A' for Active; 'I' for Inactive)
REMARK    1  A    between atoms: S_2  and  C_5 
REMARK    2  A    between atoms: C_7  and  S_2 
REMARK    3  A    between atoms: C_3  and  C_7 
ROOT
ATOM      1  C   UNL d   1      57.596  49.701  50.338  0.00  0.00     0.087 A 
ATOM      2  N   UNL d   1      57.787  49.698  49.533  0.00  0.00    -0.244 NA
ATOM      3  C   UNL d   1      58.191  49.705  50.908  0.00  0.00     0.043 A 
ATOM      4  C   UNL d   1      56.802  49.699  50.562  0.00  0.00     0.018 A 
ATOM      5  C   UNL d   1      57.209  49.706  51.935  0.00  0.00     0.001 A 
ATOM      6  C   UNL d   1      57.185  49.693  48.966  0.00  0.00     0.099 A 
ATOM      7  C   UNL d   1      57.999  49.708  51.712  0.00  0.00     0.008 A 
ATOM      8  C   UNL d   1      56.611  49.702  51.367  0.00  0.00     0.002 A 
ATOM      9  C   UNL d   1      56.204  49.695  50.008  0.00  0.00     0.003 A 
ATOM     10  C   UNL d   1      56.391  49.692  49.204  0.00  0.00     0.021 A 
ENDROOT
BRANCH   3  11
ATOM     11  S   UNL d   1      58.985  49.707  50.670  0.00  0.00    -0.101 SA
BRANCH  11  12
ATOM     12  C   UNL d   1      59.718  49.639  51.062  0.00  0.00     0.160 C 
BRANCH  12  13
ATOM     13  C   UNL d   1      60.503  49.527  50.821  0.00  0.00     0.197 C 
ATOM     14  O   UNL d   1      60.703  49.585  50.021  0.00  0.00    -0.647 OA
ATOM     15  O   UNL d   1      61.088  49.356  51.381  0.00  0.00    -0.647 OA
ENDBRANCH  12  13
ENDBRANCH  11  12
ENDBRANCH   3  11
TORSDOF 3
ENDMDL
MODEL 2
REMARK VINA RESULT:      16.5      1.987      3.652
REMARK  3 active torsions:
REMARK  status: ('A' for Active; 'I' for Inactive)
REMARK    1  A    between atoms: S_2  and  C_5 
REMARK    2  A    between atoms: C_7  and  S_2 
REMARK    3  A    between atoms: C_3  and  C_7 
ROOT
ATOM      1  C   UNL d   1      59.616  49.702  51.032  0.00  0.00     0.087 A 
ATOM      2  N   UNL d   1      59.399  49.699  51.830  0.00  0.00    -0.244 NA
ATOM      3  C   UNL d   1      59.041  49.702  50.444  0.00  0.00     0.043 A 
ATOM      4  C   UNL d   1      60.417  49.705  50.834  0.00  0.00     0.018 A 
ATOM      5  C   UNL d   1      60.055  49.708  49.449  0.00  0.00     0.001 A 
ATOM      6  C   UNL d   1      59.982  49.699  52.417  0.00  0.00     0.099 A 
ATOM      7  C   UNL d   1      59.258  49.705  49.646  0.00  0.00     0.008 A 
ATOM      8  C   UNL d   1      60.634  49.708  50.036  0.00  0.00     0.002 A 
ATOM      9  C   UNL d   1      60.997  49.705  51.408  0.00  0.00     0.003 A 
ATOM     10  C   UNL d   1      60.783  49.702  52.205  0.00  0.00     0.021 A 
ENDROOT
BRANCH   3  11
ATOM     11  S   UNL d   1      58.239  49.699  50.656  0.00  0.00    -0.101 SA
BRANCH  11  12
ATOM     12  C   UNL d   1      57.519  49.622  50.241  0.00  0.00     0.160 C 
BRANCH  12  13
ATOM     13  C   UNL d   1      56.719  49.598  50.455  0.00  0.00     0.197 C 
ATOM     14  O   UNL d   1      56.133  49.679  49.876  0.00  0.00    -0.647 OA
ATOM     15  O   UNL d   1      56.505  49.493  51.247  0.00  0.00    -0.647 OA
ENDBRANCH  12  13
ENDBRANCH  11  12
ENDBRANCH   3  11
TORSDOF 3
ENDMDL
