MODEL 1
REMARK VINA RESULT:      -1.6      0.000      0.000
REMARK  8 active torsions:
REMARK  status: ('A' for Active; 'I' for Inactive)
REMARK    1  A    between atoms: C_9  and  N_1 
REMARK    2  A    between atoms: C_7  and  C_2 
REMARK    3  A    between atoms: C_6  and  C_4 
REMARK    4  A    between atoms: C_8  and  C_11 
REMARK       I    between atoms: N_23  and  C_8 
REMARK    5  A    between atoms: C_26  and  N_23 
REMARK    6  A    between atoms: C_24  and  C_26 
REMARK    7  A    between atoms: C_27  and  C_24 
REMARK    8  A    between atoms: O_25  and  C_27 
ROOT
ATOM      1  N   UNL d   1      32.667  21.783 -21.062  0.00  0.00    -0.229 N 
ATOM      2  C   UNL d   1      32.686  22.593 -21.286  0.00  0.00     0.090 A 
ATOM      3  N   UNL d   1      32.614  21.752 -20.253  0.00  0.00    -0.161 NA
ATOM      4  C   UNL d   1      32.599  22.524 -19.950  0.00  0.00     0.174 A 
ATOM      5  C   UNL d   1      32.643  23.045 -20.598  0.00  0.00     0.044 A 
ENDROOT
BRANCH   1   6
ATOM      6  C   UNL d   1      32.697  21.139 -21.571  0.00  0.00     0.083 A 
ATOM      7  C   UNL d   1      32.217  21.121 -22.244  0.00  0.00     0.019 A 
ATOM      8  C   UNL d   1      32.242  20.477 -22.759  0.00  0.00     0.006 A 
ATOM      9  C   UNL d   1      32.756  19.845 -22.596  0.00  0.00     0.058 A 
ATOM     10  C   UNL d   1      33.238  19.865 -21.918  0.00  0.00     0.006 A 
ATOM     11  C   UNL d   1      33.206  20.508 -21.414  0.00  0.00     0.019 A 
BRANCH   9  12
ATOM     12  C   UNL d   1      32.785  19.194 -23.112  0.00  0.00     0.279 C 
ATOM     13  O   UNL d   1      33.164  19.258 -23.839  0.00  0.00    -0.265 OA
ATOM     14  N   UNL d   1      32.433  18.483 -22.895  0.00  0.00    -0.206 NA
BRANCH  14  15
ATOM     15  C   UNL d   1      32.458  17.836 -23.401  0.00  0.00     0.104 C 
BRANCH  15  16
ATOM     16  C   UNL d   1      31.887  17.243 -23.351  0.00  0.00     0.047 C 
BRANCH  16  17
ATOM     17  C   UNL d   1      31.839  16.661 -23.939  0.00  0.00     0.118 C 
BRANCH  17  18
ATOM     18  O   UNL d   1      31.585  15.901 -23.735  0.00  0.00    -0.326 OA
ATOM     19  C   UNL d   1      31.142  15.454 -24.278  0.00  0.00     0.181 C 
ENDBRANCH  17  18
ENDBRANCH  16  17
ENDBRANCH  15  16
ENDBRANCH  14  15
ENDBRANCH   9  12
ENDBRANCH   1   6
BRANCH   2  20
ATOM     20  C   UNL d   1      32.735  22.963 -22.023  0.00  0.00     0.047 A 
ATOM     21  S   UNL d   1      33.240  23.117 -22.671  0.00  0.00    -0.085 SA
ATOM     22  C   UNL d   1      32.813  23.567 -23.222  0.00  0.00     0.035 A 
ATOM     23  C   UNL d   1      32.061  23.684 -22.914  0.00  0.00     0.007 A 
ATOM     24  C   UNL d   1      32.011  23.316 -22.181  0.00  0.00     0.009 A 
ENDBRANCH   2  20
BRANCH   4  25
ATOM     25  C   UNL d   1      32.548  22.741 -19.156  0.00  0.00     0.437 C 
ATOM     26  F   UNL d   1      32.499  22.941 -18.431  0.00  0.00    -0.164 F 
ATOM     27  F   UNL d   1      31.893  23.112 -18.737  0.00  0.00    -0.164 F 
ATOM     28  F   UNL d   1      33.135  22.657 -18.525  0.00  0.00    -0.164 F 
ENDBRANCH   4  25
TORSDOF 8
ENDMDL
MODEL 2
REMARK VINA RESULT:      -1.2      3.750      6.429
REMARK  8 active torsions:
REMARK  status: ('A' for Active; 'I' for Inactive)
REMARK    1  A    between atoms: C_9  and  N_1 
REMARK    2  A    between atoms: C_7  and  C_2 
REMARK    3  A    between atoms: C_6  and  C_4 
REMARK    4  A    between atoms: C_8  and  C_11 
REMARK       I    between atoms: N_23  and  C_8 
REMARK    5  A    between atoms: C_26  and  N_23 
REMARK    6  A    between atoms: C_24  and  C_26 
REMARK    7  A    between atoms: C_27  and  C_24 
REMARK    8  A    between atoms: O_25  and  C_27 
ROOT
ATOM      1  N   UNL d   1      30.868  17.402 -24.146  0.00  0.00    -0.229 N 
ATOM      2  C   UNL d   1      31.137  16.664 -24.445  0.00  0.00     0.090 A 
ATOM      3  N   UNL d   1      30.058  17.369 -24.098  0.00  0.00    -0.161 NA
ATOM      4  C   UNL d   1      29.800  16.626 -24.360  0.00  0.00     0.174 A 
ATOM      5  C   UNL d   1      30.476  16.190 -24.575  0.00  0.00     0.044 A 
ENDROOT
BRANCH   1   6
ATOM      6  C   UNL d   1      31.340  18.043 -23.939  0.00  0.00     0.083 A 
ATOM      7  C   UNL d   1      31.504  18.632 -24.495  0.00  0.00     0.019 A 
ATOM      8  C   UNL d   1      31.977  19.277 -24.295  0.00  0.00     0.006 A 
ATOM      9  C   UNL d   1      32.287  19.330 -23.526  0.00  0.00     0.058 A 
ATOM     10  C   UNL d   1      32.121  18.736 -22.968  0.00  0.00     0.006 A 
ATOM     11  C   UNL d   1      31.651  18.100 -23.176  0.00  0.00     0.019 A 
BRANCH   9  12
ATOM     12  C   UNL d   1      32.764  19.979 -23.318  0.00  0.00     0.279 C 
ATOM     13  O   UNL d   1      33.230  20.349 -23.887  0.00  0.00    -0.265 OA
ATOM     14  N   UNL d   1      32.771  20.250 -22.543  0.00  0.00    -0.206 NA
BRANCH  14  15
ATOM     15  C   UNL d   1      33.241  20.891 -22.331  0.00  0.00     0.104 C 
BRANCH  15  16
ATOM     16  C   UNL d   1      33.053  21.348 -21.671  0.00  0.00     0.047 C 
BRANCH  16  17
ATOM     17  C   UNL d   1      32.507  21.969 -21.736  0.00  0.00     0.118 C 
BRANCH  17  18
ATOM     18  O   UNL d   1      32.632  22.663 -21.305  0.00  0.00    -0.326 OA
ATOM     19  C   UNL d   1      31.994  23.030 -20.918  0.00  0.00     0.181 C 
ENDBRANCH  17  18
ENDBRANCH  16  17
ENDBRANCH  15  16
ENDBRANCH  14  15
ENDBRANCH   9  12
ENDBRANCH   1   6
BRANCH   2  20
ATOM     20  C   UNL d   1      31.893  16.376 -24.610  0.00  0.00     0.047 A 
ATOM     21  S   UNL d   1      32.569  16.483 -25.090  0.00  0.00    -0.085 SA
ATOM     22  C   UNL d   1      33.124  15.904 -24.877  0.00  0.00     0.035 A 
ATOM     23  C   UNL d   1      32.791  15.453 -24.277  0.00  0.00     0.007 A 
ATOM     24  C   UNL d   1      32.038  15.740 -24.113  0.00  0.00     0.009 A 
ENDBRANCH   2  20
BRANCH   4  25
ATOM     25  C   UNL d   1      29.019  16.362 -24.402  0.00  0.00     0.437 C 
ATOM     26  F   UNL d   1      28.306  16.121 -24.436  0.00  0.00    -0.164 F 
ATOM     27  F   UNL d   1      28.464  16.209 -23.760  0.00  0.00    -0.164 F 
ATOM     28  F   UNL d   1      28.542  16.166 -25.097  0.00  0.00    -0.164 F 
ENDBRANCH   4  25
TORSDOF 8
ENDMDL
MODEL 3
REMARK VINA RESULT:      -1.1      0.798      1.031
REMARK  8 active torsions:
REMARK  status: ('A' for Active; 'I' for Inactive)
REMARK    1  A    between atoms: C_9  and  N_1 
REMARK    2  A    between atoms: C_7  and  C_2 
REMARK    3  A    between atoms: C_6  and  C_4 
REMARK    4  A    between atoms: C_8  and  C_11 
REMARK       I    between atoms: N_23  and  C_8 
REMARK    5  A    between atoms: C_26  and  N_23 
REMARK    6  A    between atoms: C_24  and  C_26 
REMARK    7  A    between atoms: C_27  and  C_24 
REMARK    8  A    between atoms: O_25  and  C_27 
ROOT
ATOM      1  N   UNL d   1      32.529  21.586 -21.441  0.00  0.00    -0.229 N 
ATOM      2  C   UNL d   1      32.661  22.320 -21.830  0.00  0.00     0.090 A 
ATOM      3  N   UNL d   1      32.327  21.747 -20.672  0.00  0.00    -0.161 NA
ATOM      4  C   UNL d   1      32.326  22.568 -20.556  0.00  0.00     0.174 A 
ATOM      5  C   UNL d   1      32.534  22.921 -21.280  0.00  0.00     0.044 A 
ENDROOT
BRANCH   1   6
ATOM      6  C   UNL d   1      32.593  20.840 -21.779  0.00  0.00     0.083 A 
ATOM      7  C   UNL d   1      33.171  20.313 -21.511  0.00  0.00     0.019 A 
ATOM      8  C   UNL d   1      33.241  19.562 -21.846  0.00  0.00     0.006 A 
ATOM      9  C   UNL d   1      32.724  19.340 -22.457  0.00  0.00     0.058 A 
ATOM     10  C   UNL d   1      32.143  19.872 -22.726  0.00  0.00     0.006 A 
ATOM     11  C   UNL d   1      32.082  20.614 -22.387  0.00  0.00     0.019 A 
BRANCH   9  12
ATOM     12  C   UNL d   1      32.790  18.585 -22.798  0.00  0.00     0.279 C 
ATOM     13  O   UNL d   1      33.232  17.999 -22.426  0.00  0.00    -0.265 OA
ATOM     14  N   UNL d   1      32.412  18.422 -23.510  0.00  0.00    -0.206 NA
BRANCH  14  15
ATOM     15  C   UNL d   1      32.474  17.677 -23.852  0.00  0.00     0.104 C 
BRANCH  15  16
ATOM     16  C   UNL d   1      31.919  17.423 -24.406  0.00  0.00     0.047 C 
BRANCH  16  17
ATOM     17  C   UNL d   1      31.613  16.654 -24.367  0.00  0.00     0.118 C 
BRANCH  17  18
ATOM     18  O   UNL d   1      31.761  16.129 -24.988  0.00  0.00    -0.326 OA
ATOM     19  C   UNL d   1      32.442  15.651 -24.971  0.00  0.00     0.181 C 
ENDBRANCH  17  18
ENDBRANCH  16  17
ENDBRANCH  15  16
ENDBRANCH  14  15
ENDBRANCH   9  12
ENDBRANCH   1   6
BRANCH   2  20
ATOM     20  C   UNL d   1      32.876  22.505 -22.606  0.00  0.00     0.047 A 
ATOM     21  S   UNL d   1      33.162  22.187 -23.323  0.00  0.00    -0.085 SA
ATOM     22  C   UNL d   1      33.227  22.810 -23.868  0.00  0.00     0.035 A 
ATOM     23  C   UNL d   1      32.984  23.496 -23.486  0.00  0.00     0.007 A 
ATOM     24  C   UNL d   1      32.769  23.311 -22.714  0.00  0.00     0.009 A 
ENDBRANCH   2  20
BRANCH   4  25
ATOM     25  C   UNL d   1      32.152  22.967 -19.855  0.00  0.00     0.437 C 
ATOM     26  F   UNL d   1      31.990  23.333 -19.216  0.00  0.00    -0.164 F 
ATOM     27  F   UNL d   1      31.540  23.555 -19.704  0.00  0.00    -0.164 F 
ATOM     28  F   UNL d   1      32.532  22.907 -19.079  0.00  0.00    -0.164 F 
ENDBRANCH   4  25
TORSDOF 8
ENDMDL
