MODEL 1
REMARK VINA RESULT:      -1.6      0.000      0.000
REMARK  5 active torsions:
REMARK  status: ('A' for Active; 'I' for Inactive)
REMARK    1  A    between atoms: N_6  and  C_1 
REMARK    2  A    between atoms: C_8  and  C_4 
REMARK       I    between atoms: C_7  and  N_6 
REMARK    3  A    between atoms: C_13  and  C_7 
REMARK    4  A    between atoms: O_14  and  C_8 
REMARK    5  A    between atoms: C_18  and  O_14 
ROOT
ATOM      1  C   UNL d   1      31.805  16.807 -24.414  0.00  0.00     0.124 A 
ATOM      2  C   UNL d   1      31.777  16.205 -23.839  0.00  0.00     0.093 A 
ATOM      3  S   UNL d   1      31.029  16.998 -24.612  0.00  0.00    -0.062 SA
ATOM      4  C   UNL d   1      30.528  16.519 -24.165  0.00  0.00     0.095 A 
ATOM      5  C   UNL d   1      30.984  16.031 -23.690  0.00  0.00     0.023 A 
ATOM      6  C   UNL d   1      32.446  15.844 -23.481  0.00  0.00     0.103 C 
ATOM      7  N   UNL d   1      33.091  15.487 -23.127  0.00  0.00    -0.191 NA
ATOM      8  C   UNL d   1      30.703  15.464 -23.154  0.00  0.00     0.001 C 
ENDROOT
BRANCH   1   9
ATOM      9  N   UNL d   1      32.489  17.146 -24.723  0.00  0.00    -0.201 NA
ATOM     10  C   UNL d   1      32.548  17.968 -24.778  0.00  0.00     0.280 C 
ATOM     11  O   UNL d   1      33.231  18.297 -25.086  0.00  0.00    -0.265 OA
BRANCH  10  12
ATOM     12  C   UNL d   1      31.932  18.447 -24.527  0.00  0.00     0.058 C 
ATOM     13  C   UNL d   1      31.906  18.706 -23.746  0.00  0.00     0.005 C 
ATOM     14  C   UNL d   1      31.330  18.678 -25.054  0.00  0.00     0.005 C 
ENDBRANCH  10  12
ENDBRANCH   1   9
BRANCH   4  15
ATOM     15  C   UNL d   1      29.706  16.529 -24.192  0.00  0.00     0.306 C 
ATOM     16  O   UNL d   1      29.304  16.376 -24.908  0.00  0.00    -0.258 OA
BRANCH  15  17
ATOM     17  O   UNL d   1      29.255  16.691 -23.511  0.00  0.00    -0.271 OA
BRANCH  17  18
ATOM     18  C   UNL d   1      28.491  16.808 -23.809  0.00  0.00     0.126 C 
ATOM     19  C   UNL d   1      27.844  16.797 -23.299  0.00  0.00     0.029 C 
ENDBRANCH  17  18
ENDBRANCH  15  17
ENDBRANCH   4  15
TORSDOF 5
ENDMDL
MODEL 2
REMARK VINA RESULT:      -1.2      1.352      3.188
REMARK  5 active torsions:
REMARK  status: ('A' for Active; 'I' for Inactive)
REMARK    1  A    between atoms: N_6  and  C_1 
REMARK    2  A    between atoms: C_8  and  C_4 
REMARK       I    between atoms: C_7  and  N_6 
REMARK    3  A    between atoms: C_13  and  C_7 
REMARK    4  A    between atoms: O_14  and  C_8 
REMARK    5  A    between atoms: C_18  and  O_14 
ROOT
ATOM      1  C   UNL d   1      30.300  16.547 -24.283  0.00  0.00     0.124 A 
ATOM      2  C   UNL d   1      30.754  16.412 -23.597  0.00  0.00     0.093 A 
ATOM      3  S   UNL d   1      30.729  17.054 -24.768  0.00  0.00    -0.062 SA
ATOM      4  C   UNL d   1      31.439  17.230 -24.388  0.00  0.00     0.095 A 
ATOM      5  C   UNL d   1      31.457  16.838 -23.670  0.00  0.00     0.023 A 
ATOM      6  C   UNL d   1      30.525  15.925 -22.953  0.00  0.00     0.103 C 
ATOM      7  N   UNL d   1      30.312  15.453 -22.319  0.00  0.00    -0.191 NA
ATOM      8  C   UNL d   1      32.071  16.861 -23.111  0.00  0.00     0.001 C 
ENDROOT
BRANCH   1   9
ATOM      9  N   UNL d   1      29.558  16.228 -24.439  0.00  0.00    -0.201 NA
ATOM     10  C   UNL d   1      28.906  16.730 -24.521  0.00  0.00     0.280 C 
ATOM     11  O   UNL d   1      28.171  16.404 -24.676  0.00  0.00    -0.265 OA
BRANCH  10  12
ATOM     12  C   UNL d   1      28.995  17.541 -24.448  0.00  0.00     0.058 C 
ATOM     13  C   UNL d   1      29.262  17.983 -25.089  0.00  0.00     0.005 C 
ATOM     14  C   UNL d   1      28.817  17.927 -23.732  0.00  0.00     0.005 C 
ENDBRANCH  10  12
ENDBRANCH   1   9
BRANCH   4  15
ATOM     15  C   UNL d   1      32.031  17.719 -24.682  0.00  0.00     0.306 C 
ATOM     16  O   UNL d   1      32.685  17.395 -25.089  0.00  0.00    -0.258 OA
BRANCH  15  17
ATOM     17  O   UNL d   1      31.997  18.545 -24.582  0.00  0.00    -0.271 OA
BRANCH  17  18
ATOM     18  C   UNL d   1      32.596  18.825 -25.081  0.00  0.00     0.126 C 
ATOM     19  C   UNL d   1      32.803  19.623 -25.069  0.00  0.00     0.029 C 
ENDBRANCH  17  18
ENDBRANCH  15  17
ENDBRANCH   4  15
TORSDOF 5
ENDMDL
MODEL 3
REMARK VINA RESULT:       0.0      1.961      3.411
REMARK  5 active torsions:
REMARK  status: ('A' for Active; 'I' for Inactive)
REMARK    1  A    between atoms: N_6  and  C_1 
REMARK    2  A    between atoms: C_8  and  C_4 
REMARK       I    between atoms: C_7  and  N_6 
REMARK    3  A    between atoms: C_13  and  C_7 
REMARK    4  A    between atoms: O_14  and  C_8 
REMARK    5  A    between atoms: C_18  and  O_14 
ROOT
ATOM      1  C   UNL d   1      29.302  15.944 -23.598  0.00  0.00     0.124 A 
ATOM      2  C   UNL d   1      29.783  15.776 -22.938  0.00  0.00     0.093 A 
ATOM      3  S   UNL d   1      29.799  16.069 -24.242  0.00  0.00    -0.062 SA
ATOM      4  C   UNL d   1      30.577  15.980 -23.984  0.00  0.00     0.095 A 
ATOM      5  C   UNL d   1      30.571  15.801 -23.185  0.00  0.00     0.023 A 
ATOM      6  C   UNL d   1      29.504  15.613 -22.164  0.00  0.00     0.103 C 
ATOM      7  N   UNL d   1      29.242  15.453 -21.405  0.00  0.00    -0.191 NA
ATOM      8  C   UNL d   1      31.234  15.667 -22.705  0.00  0.00     0.001 C 
ENDROOT
BRANCH   1   9
ATOM      9  N   UNL d   1      28.480  15.976 -23.597  0.00  0.00    -0.201 NA
ATOM     10  C   UNL d   1      28.097  16.629 -23.928  0.00  0.00     0.280 C 
ATOM     11  O   UNL d   1      27.278  16.653 -23.923  0.00  0.00    -0.265 OA
BRANCH  10  12
ATOM     12  C   UNL d   1      28.529  17.243 -24.255  0.00  0.00     0.058 C 
ATOM     13  C   UNL d   1      28.862  17.157 -25.003  0.00  0.00     0.005 C 
ATOM     14  C   UNL d   1      28.636  17.957 -23.841  0.00  0.00     0.005 C 
ENDBRANCH  10  12
ENDBRANCH   1   9
BRANCH   4  15
ATOM     15  C   UNL d   1      31.248  16.059 -24.452  0.00  0.00     0.306 C 
ATOM     16  O   UNL d   1      31.442  15.474 -25.016  0.00  0.00    -0.258 OA
BRANCH  15  17
ATOM     17  O   UNL d   1      31.750  16.719 -24.377  0.00  0.00    -0.271 OA
BRANCH  17  18
ATOM     18  C   UNL d   1      32.340  16.578 -24.941  0.00  0.00     0.126 C 
ATOM     19  C   UNL d   1      32.919  17.147 -25.083  0.00  0.00     0.029 C 
ENDBRANCH  17  18
ENDBRANCH  15  17
ENDBRANCH   4  15
TORSDOF 5
ENDMDL
MODEL 4
REMARK VINA RESULT:       0.7      4.797      6.500
REMARK  5 active torsions:
REMARK  status: ('A' for Active; 'I' for Inactive)
REMARK    1  A    between atoms: N_6  and  C_1 
REMARK    2  A    between atoms: C_8  and  C_4 
REMARK       I    between atoms: C_7  and  N_6 
REMARK    3  A    between atoms: C_13  and  C_7 
REMARK    4  A    between atoms: O_14  and  C_8 
REMARK    5  A    between atoms: C_18  and  O_14 
ROOT
ATOM      1  C   UNL d   1      33.017  21.783 -21.354  0.00  0.00     0.124 A 
ATOM      2  C   UNL d   1      32.607  22.460 -21.092  0.00  0.00     0.093 A 
ATOM      3  S   UNL d   1      33.153  21.873 -22.161  0.00  0.00    -0.062 SA
ATOM      4  C   UNL d   1      32.832  22.595 -22.394  0.00  0.00     0.095 A 
ATOM      5  C   UNL d   1      32.497  22.958 -21.741  0.00  0.00     0.023 A 
ATOM      6  C   UNL d   1      32.357  22.600 -20.303  0.00  0.00     0.103 C 
ATOM      7  N   UNL d   1      32.108  22.745 -19.537  0.00  0.00    -0.191 NA
ATOM      8  C   UNL d   1      32.113  23.694 -21.729  0.00  0.00     0.001 C 
ENDROOT
BRANCH   1   9
ATOM      9  N   UNL d   1      33.241  21.145 -20.885  0.00  0.00    -0.201 NA
ATOM     10  C   UNL d   1      33.012  20.380 -21.100  0.00  0.00     0.280 C 
ATOM     11  O   UNL d   1      33.240  19.751 -20.628  0.00  0.00    -0.265 OA
BRANCH  10  12
ATOM     12  C   UNL d   1      32.566  20.254 -21.775  0.00  0.00     0.058 C 
ATOM     13  C   UNL d   1      31.746  20.311 -21.741  0.00  0.00     0.005 C 
ATOM     14  C   UNL d   1      32.932  20.067 -22.500  0.00  0.00     0.005 C 
ENDBRANCH  10  12
ENDBRANCH   1   9
BRANCH   4  15
ATOM     15  C   UNL d   1      32.846  22.901 -23.157  0.00  0.00     0.306 C 
ATOM     16  O   UNL d   1      32.462  23.623 -23.331  0.00  0.00    -0.258 OA
BRANCH  15  17
ATOM     17  O   UNL d   1      33.240  22.504 -23.773  0.00  0.00    -0.271 OA
BRANCH  17  18
ATOM     18  C   UNL d   1      33.169  23.023 -24.415  0.00  0.00     0.126 C 
ATOM     19  C   UNL d   1      32.760  22.789 -25.091  0.00  0.00     0.029 C 
ENDBRANCH  17  18
ENDBRANCH  15  17
ENDBRANCH   4  15
TORSDOF 5
ENDMDL
MODEL 5
REMARK VINA RESULT:       1.1      3.389      5.177
REMARK  5 active torsions:
REMARK  status: ('A' for Active; 'I' for Inactive)
REMARK    1  A    between atoms: N_6  and  C_1 
REMARK    2  A    between atoms: C_8  and  C_4 
REMARK       I    between atoms: C_7  and  N_6 
REMARK    3  A    between atoms: C_13  and  C_7 
REMARK    4  A    between atoms: O_14  and  C_8 
REMARK    5  A    between atoms: C_18  and  O_14 
ROOT
ATOM      1  C   UNL d   1      33.075  20.318 -23.362  0.00  0.00     0.124 A 
ATOM      2  C   UNL d   1      33.020  21.132 -23.530  0.00  0.00     0.093 A 
ATOM      3  S   UNL d   1      32.935  20.221 -22.556  0.00  0.00    -0.062 SA
ATOM      4  C   UNL d   1      32.794  20.966 -22.231  0.00  0.00     0.095 A 
ATOM      5  C   UNL d   1      32.845  21.527 -22.826  0.00  0.00     0.023 A 
ATOM      6  C   UNL d   1      33.124  21.479 -24.287  0.00  0.00     0.103 C 
ATOM      7  N   UNL d   1      33.225  21.827 -25.021  0.00  0.00    -0.191 NA
ATOM      8  C   UNL d   1      32.742  22.345 -22.740  0.00  0.00     0.001 C 
ENDROOT
BRANCH   1   9
ATOM      9  N   UNL d   1      33.241  19.725 -23.907  0.00  0.00    -0.201 NA
ATOM     10  C   UNL d   1      33.071  18.938 -23.719  0.00  0.00     0.280 C 
ATOM     11  O   UNL d   1      33.239  18.354 -24.267  0.00  0.00    -0.265 OA
BRANCH  10  12
ATOM     12  C   UNL d   1      32.739  18.746 -22.995  0.00  0.00     0.058 C 
ATOM     13  C   UNL d   1      33.225  18.602 -22.347  0.00  0.00     0.005 C 
ATOM     14  C   UNL d   1      31.913  18.694 -22.905  0.00  0.00     0.005 C 
ENDBRANCH  10  12
ENDBRANCH   1   9
BRANCH   4  15
ATOM     15  C   UNL d   1      32.630  21.120 -21.441  0.00  0.00     0.306 C 
ATOM     16  O   UNL d   1      31.841  21.125 -21.166  0.00  0.00    -0.258 OA
BRANCH  15  17
ATOM     17  O   UNL d   1      33.240  21.273 -20.896  0.00  0.00    -0.271 OA
BRANCH  17  18
ATOM     18  C   UNL d   1      32.847  21.295 -20.167  0.00  0.00     0.126 C 
ATOM     19  C   UNL d   1      33.173  20.915 -19.511  0.00  0.00     0.029 C 
ENDBRANCH  17  18
ENDBRANCH  15  17
ENDBRANCH   4  15
TORSDOF 5
ENDMDL
