MODEL 1
REMARK VINA RESULT:      15.0      0.000      0.000
REMARK  5 active torsions:
REMARK  status: ('A' for Active; 'I' for Inactive)
REMARK    1  A    between atoms: C_10  and  C_3 
REMARK    2  A    between atoms: S_9  and  C_4 
REMARK       I    between atoms: N_6  and  C_7 
REMARK    3  A    between atoms: C_8  and  N_6 
REMARK    4  A    between atoms: C_7  and  C_14 
REMARK    5  A    between atoms: C_14  and  S_9 
ROOT
ATOM      1  S   UNL d   1      46.338 -16.504  44.617  0.00  0.00    -0.036 SA
ENDROOT
BRANCH   1   2
ATOM      2  C   UNL d   1      46.223 -17.326  44.461  0.00  0.00     0.236 A 
ATOM      3  O   UNL d   1      46.452 -17.654  43.736  0.00  0.00    -0.263 OA
ATOM      4  C   UNL d   1      46.268 -18.442  43.763  0.00  0.00     0.205 A 
ATOM      5  N   UNL d   1      45.938 -18.607  44.471  0.00  0.00    -0.120 NA
ATOM      6  N   UNL d   1      45.899 -17.930  44.923  0.00  0.00    -0.114 NA
BRANCH   4   7
ATOM      7  C   UNL d   1      46.393 -18.986  43.175  0.00  0.00     0.046 A 
ATOM      8  C   UNL d   1      46.478 -19.785  43.343  0.00  0.00     0.024 A 
ATOM      9  C   UNL d   1      46.606 -20.315  42.705  0.00  0.00     0.099 A 
ATOM     10  N   UNL d   1      46.647 -20.053  41.932  0.00  0.00    -0.242 NA
ATOM     11  C   UNL d   1      46.560 -19.238  41.762  0.00  0.00     0.099 A 
ATOM     12  C   UNL d   1      46.434 -18.701  42.374  0.00  0.00     0.024 A 
ENDBRANCH   4   7
ENDBRANCH   1   2
BRANCH   1  13
ATOM     13  C   UNL d   1      45.703 -16.005  44.607  0.00  0.00     0.101 C 
BRANCH  13  14
ATOM     14  C   UNL d   1      45.835 -15.196  44.627  0.00  0.00     0.286 C 
ATOM     15  N   UNL d   1      45.264 -14.675  44.311  0.00  0.00    -0.207 NA
ATOM     16  O   UNL d   1      46.527 -14.882  44.955  0.00  0.00    -0.265 OA
BRANCH  15  17
ATOM     17  C   UNL d   1      45.391 -13.849  44.328  0.00  0.00     0.095 A 
ATOM     18  C   UNL d   1      44.994 -13.366  43.808  0.00  0.00     0.075 A 
ATOM     19 CL   UNL d   1      44.452 -13.683  43.247  0.00  0.00    -0.081 Cl
ATOM     20  C   UNL d   1      45.127 -12.541  43.831  0.00  0.00     0.013 A 
ATOM     21  C   UNL d   1      45.641 -12.220  44.360  0.00  0.00     0.001 A 
ATOM     22  C   UNL d   1      46.051 -12.695  44.893  0.00  0.00     0.002 A 
ATOM     23  C   UNL d   1      45.922 -13.530  44.876  0.00  0.00     0.020 A 
ENDBRANCH  15  17
ENDBRANCH  13  14
ENDBRANCH   1  13
TORSDOF 5
ENDMDL
