MODEL 1
REMARK VINA RESULT:      -1.2      0.000      0.000
REMARK  6 active torsions:
REMARK  status: ('A' for Active; 'I' for Inactive)
REMARK    1  A    between atoms: C_10  and  C_1 
REMARK    2  A    between atoms: C_4  and  O_8 
REMARK       I    between atoms: N_12  and  C_4 
REMARK    3  A    between atoms: O_8  and  C_13 
REMARK    4  A    between atoms: C_23  and  N_12 
REMARK    5  A    between atoms: C_24  and  N_12 
REMARK    6  A    between atoms: O_22  and  C_19 
ROOT
ATOM      1  C   UNL d   1      32.797  19.019 -23.014  0.00  0.00     0.064 A 
ATOM      2  C   UNL d   1      32.990  19.070 -22.199  0.00  0.00     0.199 A 
ATOM      3  C   UNL d   1      33.021  19.802 -21.828  0.00  0.00     0.062 A 
ATOM      4  C   UNL d   1      32.637  19.710 -23.443  0.00  0.00     0.126 A 
ATOM      5  C   UNL d   1      32.859  20.500 -22.262  0.00  0.00     0.105 A 
ATOM      6  O   UNL d   1      32.667  20.460 -23.068  0.00  0.00    -0.305 OA
ATOM      7  C   UNL d   1      32.890  21.240 -21.886  0.00  0.00     0.050 A 
ATOM      8  C   UNL d   1      33.212  19.863 -21.020  0.00  0.00     0.007 A 
ATOM      9  C   UNL d   1      33.081  21.283 -21.083  0.00  0.00     0.107 A 
ATOM     10  O   UNL d   1      33.149  18.380 -21.775  0.00  0.00    -0.286 OA
ATOM     11  C   UNL d   1      33.241  20.598 -20.652  0.00  0.00     0.025 A 
ENDROOT
BRANCH   1  12
ATOM     12  C   UNL d   1      32.768  18.284 -23.382  0.00  0.00     0.005 A 
ATOM     13  C   UNL d   1      32.344  17.665 -23.037  0.00  0.00     0.002 A 
ATOM     14  C   UNL d   1      32.315  16.930 -23.407  0.00  0.00     0.024 A 
ATOM     15  C   UNL d   1      32.710  16.812 -24.119  0.00  0.00     0.094 A 
ATOM     16  C   UNL d   1      33.136  17.434 -24.464  0.00  0.00     0.024 A 
ATOM     17  C   UNL d   1      33.163  18.166 -24.095  0.00  0.00     0.002 A 
BRANCH  15  18
ATOM     18  O   UNL d   1      32.683  16.080 -24.489  0.00  0.00    -0.328 OA
ATOM     19  C   UNL d   1      32.041  15.891 -24.975  0.00  0.00     0.181 C 
ENDBRANCH  15  18
ENDBRANCH   1  12
BRANCH   9  20
ATOM     20  O   UNL d   1      33.111  22.019 -20.714  0.00  0.00    -0.259 OA
BRANCH  20  21
ATOM     21  C   UNL d   1      33.049  22.069 -19.895  0.00  0.00     0.377 C 
ATOM     22  N   UNL d   1      32.850  22.786 -19.542  0.00  0.00    -0.252 N 
ATOM     23  O   UNL d   1      33.187  21.403 -19.429  0.00  0.00    -0.237 OA
BRANCH  22  24
ATOM     24  C   UNL d   1      32.788  22.838 -18.719  0.00  0.00     0.085 C 
ATOM     25  C   UNL d   1      33.144  23.464 -18.318  0.00  0.00     0.021 C 
ENDBRANCH  22  24
BRANCH  22  26
ATOM     26  C   UNL d   1      32.713  23.453 -20.009  0.00  0.00     0.085 C 
ATOM     27  C   UNL d   1      31.942  23.702 -20.155  0.00  0.00     0.021 C 
ENDBRANCH  22  26
ENDBRANCH  20  21
ENDBRANCH   9  20
TORSDOF 6
ENDMDL
MODEL 2
REMARK VINA RESULT:       0.7      1.808      5.776
REMARK  6 active torsions:
REMARK  status: ('A' for Active; 'I' for Inactive)
REMARK    1  A    between atoms: C_10  and  C_1 
REMARK    2  A    between atoms: C_4  and  O_8 
REMARK       I    between atoms: N_12  and  C_4 
REMARK    3  A    between atoms: O_8  and  C_13 
REMARK    4  A    between atoms: C_23  and  N_12 
REMARK    5  A    between atoms: C_24  and  N_12 
REMARK    6  A    between atoms: O_22  and  C_19 
ROOT
ATOM      1  C   UNL d   1      32.680  20.835 -21.690  0.00  0.00     0.064 A 
ATOM      2  C   UNL d   1      32.826  20.922 -22.511  0.00  0.00     0.199 A 
ATOM      3  C   UNL d   1      32.879  20.259 -22.992  0.00  0.00     0.062 A 
ATOM      4  C   UNL d   1      32.588  20.078 -21.365  0.00  0.00     0.126 A 
ATOM      5  C   UNL d   1      32.786  19.493 -22.664  0.00  0.00     0.105 A 
ATOM      6  O   UNL d   1      32.640  19.397 -21.853  0.00  0.00    -0.305 OA
ATOM      7  C   UNL d   1      32.839  18.823 -23.151  0.00  0.00     0.050 A 
ATOM      8  C   UNL d   1      33.024  20.334 -23.808  0.00  0.00     0.007 A 
ATOM      9  C   UNL d   1      32.983  18.915 -23.960  0.00  0.00     0.107 A 
ATOM     10  O   UNL d   1      32.917  21.677 -22.830  0.00  0.00    -0.286 OA
ATOM     11  C   UNL d   1      33.075  19.666 -24.286  0.00  0.00     0.025 A 
ENDROOT
BRANCH   1  12
ATOM     12  C   UNL d   1      32.628  21.503 -21.211  0.00  0.00     0.005 A 
ATOM     13  C   UNL d   1      33.235  22.062 -21.214  0.00  0.00     0.002 A 
ATOM     14  C   UNL d   1      33.182  22.729 -20.734  0.00  0.00     0.024 A 
ATOM     15  C   UNL d   1      32.523  22.838 -20.253  0.00  0.00     0.094 A 
ATOM     16  C   UNL d   1      31.913  22.276 -20.251  0.00  0.00     0.024 A 
ATOM     17  C   UNL d   1      31.968  21.611 -20.730  0.00  0.00     0.002 A 
BRANCH  15  18
ATOM     18  O   UNL d   1      32.467  23.503 -19.774  0.00  0.00    -0.328 OA
ATOM     19  C   UNL d   1      33.088  23.690 -19.261  0.00  0.00     0.181 C 
ENDBRANCH  15  18
ENDBRANCH   1  12
BRANCH   9  20
ATOM     20  O   UNL d   1      33.035  18.247 -24.439  0.00  0.00    -0.259 OA
BRANCH  20  21
ATOM     21  C   UNL d   1      32.787  17.517 -24.152  0.00  0.00     0.377 C 
ATOM     22  N   UNL d   1      32.113  17.161 -24.465  0.00  0.00    -0.252 N 
ATOM     23  O   UNL d   1      33.211  17.143 -23.552  0.00  0.00    -0.237 OA
BRANCH  22  24
ATOM     24  C   UNL d   1      31.863  16.427 -24.178  0.00  0.00     0.085 C 
ATOM     25  C   UNL d   1      31.684  15.818 -24.703  0.00  0.00     0.021 C 
ENDBRANCH  22  24
BRANCH  22  26
ATOM     26  C   UNL d   1      31.689  17.535 -25.066  0.00  0.00     0.085 C 
ATOM     27  C   UNL d   1      30.866  17.561 -25.035  0.00  0.00     0.021 C 
ENDBRANCH  22  26
ENDBRANCH  20  21
ENDBRANCH   9  20
TORSDOF 6
ENDMDL
