MODEL 1
REMARK VINA RESULT:      -5.7      0.000      0.000
REMARK  2 active torsions:
REMARK  status: ('A' for Active; 'I' for Inactive)
REMARK    1  A    between atoms: C_3  and  C_1 
REMARK       I    between atoms: N_7  and  C_3 
REMARK    2  A    between atoms: C_11  and  N_7 
ROOT
ATOM      1  C   UNL d   1     -42.144-123.195 -49.826  0.00  0.00     0.121 A 
ATOM      2  C   UNL d   1     -42.796-122.791 -49.525  0.00  0.00     0.305 A 
ATOM      3  C   UNL d   1     -41.598-123.538 -49.311  0.00  0.00     0.012 A 
ATOM      4  O   UNL d   1     -42.896-122.733 -48.713  0.00  0.00    -0.273 OA
ATOM      5  C   UNL d   1     -41.705-123.476 -48.496  0.00  0.00     0.023 A 
ATOM      6  C   UNL d   1     -42.356-123.072 -48.196  0.00  0.00     0.103 A 
ATOM      7  O   UNL d   1     -43.338-122.451 -50.050  0.00  0.00    -0.259 OA
ATOM      8  C   UNL d   1     -41.161-123.817 -47.989  0.00  0.00     0.002 A 
ATOM      9  C   UNL d   1     -42.460-123.012 -47.391  0.00  0.00     0.025 A 
ATOM     10  C   UNL d   1     -41.266-123.756 -47.166  0.00  0.00     0.000 A 
ATOM     11  C   UNL d   1     -41.917-123.352 -46.866  0.00  0.00     0.002 A 
ENDROOT
BRANCH   1  12
ATOM     12  C   UNL d   1     -42.040-123.256 -50.648  0.00  0.00     0.284 C 
ATOM     13  N   UNL d   1     -41.429-122.852 -51.013  0.00  0.00    -0.208 NA
ATOM     14  O   UNL d   1     -42.554-123.727 -51.101  0.00  0.00    -0.265 OA
BRANCH  13  15
ATOM     15  C   UNL d   1     -41.328-122.915 -51.829  0.00  0.00     0.085 A 
ATOM     16  C   UNL d   1     -41.328-122.232 -52.302  0.00  0.00     0.019 A 
ATOM     17  C   UNL d   1     -41.226-122.303 -53.123  0.00  0.00     0.002 A 
ATOM     18  C   UNL d   1     -41.125-123.044 -53.474  0.00  0.00     0.000 A 
ATOM     19  C   UNL d   1     -41.125-123.727 -53.001  0.00  0.00     0.002 A 
ATOM     20  C   UNL d   1     -41.225-123.669 -52.192  0.00  0.00     0.019 A 
ENDBRANCH  13  15
ENDBRANCH   1  12
TORSDOF 2
ENDMDL
