MODEL 1
REMARK VINA RESULT:      12.8      0.000      0.000
REMARK  3 active torsions:
REMARK  status: ('A' for Active; 'I' for Inactive)
REMARK    1  A    between atoms: C_4  and  C_8 
REMARK    2  A    between atoms: N_13  and  C_7 
REMARK       I    between atoms: C_8  and  N_12 
REMARK    3  A    between atoms: N_12  and  N_13 
ROOT
ATOM      1  C   UNL d   1      46.403 -17.828  44.203  0.00  0.00     0.297 C 
ATOM      2  N   UNL d   1      46.168 -17.040  44.092  0.00  0.00    -0.104 NA
ATOM      3  O   UNL d   1      46.645 -18.081  44.955  0.00  0.00    -0.264 OA
ENDROOT
BRANCH   2   4
ATOM      4  N   UNL d   1      46.176 -16.513  44.722  0.00  0.00    -0.125 NA
BRANCH   4   5
ATOM      5  C   UNL d   1      45.639 -15.887  44.744  0.00  0.00     0.190 A 
ATOM      6  C   UNL d   1      45.891 -15.126  44.578  0.00  0.00     0.094 A 
ATOM      7  C   UNL d   1      45.354 -14.500  44.600  0.00  0.00     0.170 A 
ATOM      8  C   UNL d   1      46.638 -14.825  44.375  0.00  0.00     0.127 A 
ATOM      9  N   UNL d   1      45.768 -13.806  44.410  0.00  0.00    -0.209 N 
ATOM     10  N   UNL d   1      44.567 -14.638  44.788  0.00  0.00    -0.205 NA
ATOM     11  C   UNL d   1      45.440 -13.044  44.367  0.00  0.00     0.123 C 
ATOM     12  N   UNL d   1      46.558 -14.006  44.272  0.00  0.00    -0.162 NA
ATOM     13  C   UNL d   1      44.316 -15.402  44.954  0.00  0.00     0.202 A 
ATOM     14  N   UNL d   1      44.856 -16.031  44.931  0.00  0.00    -0.203 NA
ENDBRANCH   4   5
ENDBRANCH   2   4
BRANCH   1  15
ATOM     15  C   UNL d   1      46.396 -18.360  43.573  0.00  0.00     0.070 A 
ATOM     16  C   UNL d   1      46.362 -19.166  43.715  0.00  0.00     0.063 A 
ATOM     17  C   UNL d   1      46.355 -19.698  43.088  0.00  0.00     0.023 A 
ATOM     18 CL   UNL d   1      46.336 -19.439  44.497  0.00  0.00    -0.082 Cl
ATOM     19  C   UNL d   1      46.382 -19.415  42.305  0.00  0.00     0.059 A 
ATOM     20  C   UNL d   1      46.415 -18.596  42.163  0.00  0.00     0.012 A 
ATOM     21 CL   UNL d   1      46.375 -19.949  41.669  0.00  0.00    -0.082 Cl
ATOM     22  C   UNL d   1      46.422 -18.074  42.795  0.00  0.00     0.007 A 
ENDBRANCH   1  15
TORSDOF 3
ENDMDL
MODEL 2
REMARK VINA RESULT:      13.1      2.203      4.724
REMARK  3 active torsions:
REMARK  status: ('A' for Active; 'I' for Inactive)
REMARK    1  A    between atoms: C_4  and  C_8 
REMARK    2  A    between atoms: N_13  and  C_7 
REMARK       I    between atoms: C_8  and  N_12 
REMARK    3  A    between atoms: N_12  and  N_13 
ROOT
ATOM      1  C   UNL d   1      45.485 -15.781  44.701  0.00  0.00     0.297 C 
ATOM      2  N   UNL d   1      46.116 -16.284  44.510  0.00  0.00    -0.104 NA
ATOM      3  O   UNL d   1      44.765 -16.105  44.954  0.00  0.00    -0.264 OA
ENDROOT
BRANCH   2   4
ATOM      4  N   UNL d   1      46.031 -17.098  44.571  0.00  0.00    -0.125 NA
BRANCH   4   5
ATOM      5  C   UNL d   1      46.210 -17.583  43.927  0.00  0.00     0.190 A 
ATOM      6  C   UNL d   1      46.275 -18.392  44.032  0.00  0.00     0.094 A 
ATOM      7  C   UNL d   1      46.454 -18.877  43.389  0.00  0.00     0.170 A 
ATOM      8  C   UNL d   1      46.192 -18.870  44.706  0.00  0.00     0.127 A 
ATOM      9  N   UNL d   1      46.483 -19.660  43.663  0.00  0.00    -0.209 N 
ATOM     10  N   UNL d   1      46.567 -18.550  42.644  0.00  0.00    -0.205 NA
ATOM     11  C   UNL d   1      46.647 -20.329  43.199  0.00  0.00     0.123 C 
ATOM     12  N   UNL d   1      46.322 -19.655  44.474  0.00  0.00    -0.162 NA
ATOM     13  C   UNL d   1      46.501 -17.738  42.542  0.00  0.00     0.202 A 
ATOM     14  N   UNL d   1      46.321 -17.251  43.189  0.00  0.00    -0.203 NA
ENDBRANCH   4   5
ENDBRANCH   2   4
BRANCH   1  15
ATOM     15  C   UNL d   1      45.569 -14.962  44.640  0.00  0.00     0.070 A 
ATOM     16  C   UNL d   1      44.923 -14.473  44.759  0.00  0.00     0.063 A 
ATOM     17  C   UNL d   1      45.003 -13.657  44.699  0.00  0.00     0.023 A 
ATOM     18 CL   UNL d   1      44.187 -14.809  44.940  0.00  0.00    -0.082 Cl
ATOM     19  C   UNL d   1      45.746 -13.327  44.516  0.00  0.00     0.059 A 
ATOM     20  C   UNL d   1      46.401 -13.826  44.396  0.00  0.00     0.012 A 
ATOM     21 CL   UNL d   1      45.832 -12.504  44.455  0.00  0.00    -0.082 Cl
ATOM     22  C   UNL d   1      46.310 -14.638  44.458  0.00  0.00     0.007 A 
ENDBRANCH   1  15
TORSDOF 3
ENDMDL
