MODEL 1
REMARK VINA RESULT:      -6.2      0.000      0.000
REMARK  4 active torsions:
REMARK  status: ('A' for Active; 'I' for Inactive)
REMARK    1  A    between atoms: C_6  and  C_2 
REMARK    2  A    between atoms: C_8  and  N_3 
REMARK       I    between atoms: N_7  and  C_6 
REMARK    3  A    between atoms: C_16  and  N_7 
REMARK    4  A    between atoms: C_9  and  C_16 
ROOT
ATOM      1  C   UNL d   1     -41.843-122.590 -50.946  0.00  0.00     0.211 A 
ATOM      2  C   UNL d   1     -41.491-122.702 -51.690  0.00  0.00     0.199 A 
ATOM      3  N   UNL d   1     -41.748-123.277 -50.505  0.00  0.00    -0.191 N 
ATOM      4  N   UNL d   1     -41.337-123.815 -50.979  0.00  0.00    -0.058 NA
ATOM      5  N   UNL d   1     -41.183-123.453 -51.706  0.00  0.00    -0.122 NA
ATOM      6  N   UNL d   1     -42.225-121.906 -50.687  0.00  0.00    -0.125 N 
ENDROOT
BRANCH   2   7
ATOM      7  C   UNL d   1     -41.465-122.144 -52.296  0.00  0.00     0.302 C 
ATOM      8  N   UNL d   1     -41.775-122.318 -53.034  0.00  0.00    -0.203 NA
ATOM      9  O   UNL d   1     -41.122-121.406 -52.152  0.00  0.00    -0.263 OA
BRANCH   8  10
ATOM     10  C   UNL d   1     -41.747-121.753 -53.643  0.00  0.00     0.127 C 
BRANCH  10  11
ATOM     11  C   UNL d   1     -42.075-121.916 -54.375  0.00  0.00     0.119 A 
ATOM     12  O   UNL d   1     -42.890-121.886 -54.564  0.00  0.00    -0.304 OA
ATOM     13  C   UNL d   1     -42.970-122.089 -55.355  0.00  0.00     0.123 A 
ATOM     14  C   UNL d   1     -42.203-122.247 -55.662  0.00  0.00     0.029 A 
ATOM     15  C   UNL d   1     -41.671-122.138 -55.057  0.00  0.00     0.028 A 
ENDBRANCH  10  11
ENDBRANCH   8  10
ENDBRANCH   2   7
BRANCH   3  16
ATOM     16  C   UNL d   1     -42.013-123.410 -49.735  0.00  0.00     0.086 A 
ATOM     17  C   UNL d   1     -42.807-123.596 -49.603  0.00  0.00     0.019 A 
ATOM     18  C   UNL d   1     -43.071-123.729 -48.832  0.00  0.00     0.002 A 
ATOM     19  C   UNL d   1     -42.543-123.676 -48.196  0.00  0.00     0.000 A 
ATOM     20  C   UNL d   1     -41.751-123.489 -48.338  0.00  0.00     0.002 A 
ATOM     21  C   UNL d   1     -41.483-123.356 -49.107  0.00  0.00     0.019 A 
ENDBRANCH   3  16
TORSDOF 4
ENDMDL
MODEL 2
REMARK VINA RESULT:      -5.4      1.053      4.815
REMARK  4 active torsions:
REMARK  status: ('A' for Active; 'I' for Inactive)
REMARK    1  A    between atoms: C_6  and  C_2 
REMARK    2  A    between atoms: C_8  and  N_3 
REMARK       I    between atoms: N_7  and  C_6 
REMARK    3  A    between atoms: C_16  and  N_7 
REMARK    4  A    between atoms: C_9  and  C_16 
ROOT
ATOM      1  C   UNL d   1     -41.701-122.253 -52.896  0.00  0.00     0.211 A 
ATOM      2  C   UNL d   1     -41.545-122.739 -52.242  0.00  0.00     0.199 A 
ATOM      3  N   UNL d   1     -41.664-122.711 -53.578  0.00  0.00    -0.191 N 
ATOM      4  N   UNL d   1     -41.484-123.482 -53.343  0.00  0.00    -0.058 NA
ATOM      5  N   UNL d   1     -41.412-123.491 -52.519  0.00  0.00    -0.122 NA
ATOM      6  N   UNL d   1     -41.867-121.445 -52.874  0.00  0.00    -0.125 N 
ENDROOT
BRANCH   2   7
ATOM      7  C   UNL d   1     -41.530-122.493 -51.455  0.00  0.00     0.302 C 
ATOM      8  N   UNL d   1     -41.913-122.929 -50.876  0.00  0.00    -0.203 NA
ATOM      9  O   UNL d   1     -41.123-121.802 -51.256  0.00  0.00    -0.263 OA
BRANCH   8  10
ATOM     10  C   UNL d   1     -41.895-122.677 -50.085  0.00  0.00     0.127 C 
BRANCH  10  11
ATOM     11  C   UNL d   1     -42.305-123.091 -49.509  0.00  0.00     0.119 A 
ATOM     12  O   UNL d   1     -43.135-123.199 -49.480  0.00  0.00    -0.304 OA
ATOM     13  C   UNL d   1     -43.305-123.645 -48.813  0.00  0.00     0.123 A 
ATOM     14  C   UNL d   1     -42.579-123.817 -48.424  0.00  0.00     0.029 A 
ATOM     15  C   UNL d   1     -41.983-123.475 -48.856  0.00  0.00     0.028 A 
ENDBRANCH  10  11
ENDBRANCH   8  10
ENDBRANCH   2   7
BRANCH   3  16
ATOM     16  C   UNL d   1     -41.783-122.454 -54.353  0.00  0.00     0.086 A 
ATOM     17  C   UNL d   1     -42.536-122.210 -54.591  0.00  0.00     0.019 A 
ATOM     18  C   UNL d   1     -42.654-121.952 -55.366  0.00  0.00     0.002 A 
ATOM     19  C   UNL d   1     -42.023-121.939 -55.902  0.00  0.00     0.000 A 
ATOM     20  C   UNL d   1     -41.273-122.185 -55.655  0.00  0.00     0.002 A 
ATOM     21  C   UNL d   1     -41.151-122.443 -54.880  0.00  0.00     0.019 A 
ENDBRANCH   3  16
TORSDOF 4
ENDMDL
