MODEL 1
REMARK VINA RESULT:      88.3      0.000      0.000
REMARK  4 active torsions:
REMARK  status: ('A' for Active; 'I' for Inactive)
REMARK    1  A    between atoms: C_7  and  C_1 
REMARK    2  A    between atoms: O_10  and  C_2 
REMARK    3  A    between atoms: C_17  and  O_10 
REMARK    4  A    between atoms: C_19  and  C_12 
ROOT
ATOM      1  C   UNL d   1      61.331  48.249  50.125  0.00  0.00     0.197 A 
ATOM      2  C   UNL d   1      60.896  48.227  50.831  0.00  0.00     0.165 A 
ATOM      3  O   UNL d   1      61.545  47.543  49.776  0.00  0.00    -0.301 OA
ATOM      4  C   UNL d   1      60.688  47.500  51.167  0.00  0.00     0.222 A 
ATOM      5  C   UNL d   1      60.914  46.819  50.798  0.00  0.00     0.064 A 
ATOM      6  C   UNL d   1      61.349  46.841  50.093  0.00  0.00     0.106 A 
ATOM      7  C   UNL d   1      60.706  46.092  51.134  0.00  0.00     0.008 A 
ATOM      8  C   UNL d   1      61.563  46.136  49.743  0.00  0.00     0.067 A 
ATOM      9  C   UNL d   1      61.367  45.418  50.060  0.00  0.00     0.198 A 
ATOM     10  C   UNL d   1      60.932  45.396  50.765  0.00  0.00     0.039 A 
ATOM     11  O   UNL d   1      60.265  47.479  51.853  0.00  0.00    -0.284 OA
ATOM     12  O   UNL d   1      61.591  44.714  49.693  0.00  0.00    -0.286 OA
ENDROOT
BRANCH   2  13
ATOM     13  O   UNL d   1      60.670  48.931  51.200  0.00  0.00    -0.302 OA
BRANCH  13  14
ATOM     14  C   UNL d   1      59.893  49.192  51.147  0.00  0.00     0.100 A 
ATOM     15  C   UNL d   1      59.607  49.444  50.410  0.00  0.00     0.025 A 
ATOM     16  C   UNL d   1      58.846  49.701  50.358  0.00  0.00     0.002 A 
ATOM     17  C   UNL d   1      58.362  49.707  51.041  0.00  0.00     0.000 A 
ATOM     18  C   UNL d   1      58.652  49.460  51.747  0.00  0.00     0.002 A 
ATOM     19  C   UNL d   1      59.429  49.199  51.801  0.00  0.00     0.025 A 
ENDBRANCH  13  14
ENDBRANCH   2  13
BRANCH   1  20
ATOM     20  C   UNL d   1      61.537  48.974  49.792  0.00  0.00     0.442 C 
ATOM     21  F   UNL d   1      61.743  49.708  49.450  0.00  0.00    -0.164 F 
ATOM     22  F   UNL d   1      61.063  48.808  49.137  0.00  0.00    -0.164 F 
ATOM     23  F   UNL d   1      62.011  49.139  50.450  0.00  0.00    -0.164 F 
ENDBRANCH   1  20
BRANCH  10  24
ATOM     24  C   UNL d   1      60.724  44.670  51.101  0.00  0.00     0.003 C 
ATOM     25  C   UNL d   1      61.037  44.453  51.831  0.00  0.00     0.000 C 
ENDBRANCH  10  24
TORSDOF 4
ENDMDL
