MODEL 1
REMARK VINA RESULT:      -3.0      0.000      0.000
REMARK  3 active torsions:
REMARK  status: ('A' for Active; 'I' for Inactive)
REMARK    1  A    between atoms: N_5  and  C_1 
REMARK    2  A    between atoms: C_7  and  N_4 
REMARK    3  A    between atoms: C_12  and  C_7 
ROOT
ATOM      1  C   UNL d   1      32.276  17.559 -23.734  0.00  0.00     0.232 A 
ATOM      2  N   UNL d   1      32.646  16.917 -23.384  0.00  0.00    -0.204 NA
ATOM      3  C   UNL d   1      31.588  17.314 -24.100  0.00  0.00     0.141 A 
ATOM      4  N   UNL d   1      31.517  16.492 -23.979  0.00  0.00    -0.282 N 
ATOM      5  C   UNL d   1      32.175  16.245 -23.533  0.00  0.00     0.150 A 
ATOM      6 BR   UNL d   1      31.042  17.784 -24.522  0.00  0.00    -0.026 Br
ATOM      7  C   UNL d   1      32.359  15.456 -23.266  0.00  0.00     0.041 C 
ENDROOT
BRANCH   4   8
ATOM      8  C   UNL d   1      30.940  15.937 -24.216  0.00  0.00     0.082 C 
BRANCH   8   9
ATOM      9  C   UNL d   1      30.212  15.878 -23.824  0.00  0.00     0.018 A 
ATOM     10  C   UNL d   1      29.536  16.189 -24.168  0.00  0.00     0.002 A 
ATOM     11  C   UNL d   1      28.804  16.140 -23.793  0.00  0.00     0.000 A 
ATOM     12  C   UNL d   1      28.730  15.777 -23.065  0.00  0.00     0.000 A 
ATOM     13  C   UNL d   1      29.409  15.455 -22.702  0.00  0.00     0.000 A 
ATOM     14  C   UNL d   1      30.151  15.493 -23.060  0.00  0.00     0.002 A 
ENDBRANCH   8   9
ENDBRANCH   4   8
BRANCH   1  15
ATOM     15  N   UNL d   1      32.555  18.327 -23.719  0.00  0.00    -0.093 N 
ATOM     16  O   UNL d   1      32.940  18.712 -24.348  0.00  0.00    -0.530 OA
ATOM     17  O   UNL d   1      32.492  18.829 -23.074  0.00  0.00    -0.530 OA
ENDBRANCH   1  15
TORSDOF 3
ENDMDL
MODEL 2
REMARK VINA RESULT:      -3.0      2.166      3.345
REMARK  3 active torsions:
REMARK  status: ('A' for Active; 'I' for Inactive)
REMARK    1  A    between atoms: N_5  and  C_1 
REMARK    2  A    between atoms: C_7  and  N_4 
REMARK    3  A    between atoms: C_12  and  C_7 
ROOT
ATOM      1  C   UNL d   1      29.226  16.216 -23.643  0.00  0.00     0.232 A 
ATOM      2  N   UNL d   1      29.676  15.787 -23.110  0.00  0.00    -0.204 NA
ATOM      3  C   UNL d   1      29.708  16.524 -24.225  0.00  0.00     0.141 A 
ATOM      4  N   UNL d   1      30.489  16.285 -24.059  0.00  0.00    -0.282 N 
ATOM      5  C   UNL d   1      30.470  15.826 -23.364  0.00  0.00     0.150 A 
ATOM      6 BR   UNL d   1      29.481  16.995 -24.877  0.00  0.00    -0.026 Br
ATOM      7  C   UNL d   1      31.125  15.453 -22.965  0.00  0.00     0.041 C 
ENDROOT
BRANCH   4   8
ATOM      8  C   UNL d   1      31.215  16.424 -24.448  0.00  0.00     0.082 C 
BRANCH   8   9
ATOM      9  C   UNL d   1      31.642  17.123 -24.326  0.00  0.00     0.018 A 
ATOM     10  C   UNL d   1      31.651  17.704 -24.906  0.00  0.00     0.002 A 
ATOM     11  C   UNL d   1      32.070  18.405 -24.802  0.00  0.00     0.000 A 
ATOM     12  C   UNL d   1      32.491  18.544 -24.117  0.00  0.00     0.000 A 
ATOM     13  C   UNL d   1      32.493  17.963 -23.517  0.00  0.00     0.000 A 
ATOM     14  C   UNL d   1      32.080  17.254 -23.600  0.00  0.00     0.002 A 
ENDBRANCH   8   9
ENDBRANCH   4   8
BRANCH   1  15
ATOM     15  N   UNL d   1      28.417  16.319 -23.598  0.00  0.00    -0.093 N 
ATOM     16  O   UNL d   1      28.032  16.954 -23.223  0.00  0.00    -0.530 OA
ATOM     17  O   UNL d   1      27.865  15.804 -23.920  0.00  0.00    -0.530 OA
ENDBRANCH   1  15
TORSDOF 3
ENDMDL
MODEL 3
REMARK VINA RESULT:      -2.9      2.197      3.577
REMARK  3 active torsions:
REMARK  status: ('A' for Active; 'I' for Inactive)
REMARK    1  A    between atoms: N_5  and  C_1 
REMARK    2  A    between atoms: C_7  and  N_4 
REMARK    3  A    between atoms: C_12  and  C_7 
ROOT
ATOM      1  C   UNL d   1      29.473  16.258 -23.762  0.00  0.00     0.232 A 
ATOM      2  N   UNL d   1      29.314  16.910 -24.231  0.00  0.00    -0.204 NA
ATOM      3  C   UNL d   1      30.270  16.084 -23.793  0.00  0.00     0.141 A 
ATOM      4  N   UNL d   1      30.631  16.643 -24.296  0.00  0.00    -0.282 N 
ATOM      5  C   UNL d   1      30.035  17.158 -24.569  0.00  0.00     0.150 A 
ATOM      6 BR   UNL d   1      30.672  15.465 -23.401  0.00  0.00    -0.026 Br
ATOM      7  C   UNL d   1      30.120  17.822 -25.097  0.00  0.00     0.041 C 
ENDROOT
BRANCH   4   8
ATOM      8  C   UNL d   1      31.422  16.751 -24.542  0.00  0.00     0.082 C 
BRANCH   8   9
ATOM      9  C   UNL d   1      31.977  17.123 -24.054  0.00  0.00     0.018 A 
ATOM     10  C   UNL d   1      32.540  16.677 -23.658  0.00  0.00     0.002 A 
ATOM     11  C   UNL d   1      33.100  17.031 -23.168  0.00  0.00     0.000 A 
ATOM     12  C   UNL d   1      33.112  17.840 -23.063  0.00  0.00     0.000 A 
ATOM     13  C   UNL d   1      32.547  18.309 -23.459  0.00  0.00     0.000 A 
ATOM     14  C   UNL d   1      31.977  17.976 -23.953  0.00  0.00     0.002 A 
ENDBRANCH   8   9
ENDBRANCH   4   8
BRANCH   1  15
ATOM     15  N   UNL d   1      28.917  15.843 -23.330  0.00  0.00    -0.093 N 
ATOM     16  O   UNL d   1      28.917  15.756 -22.503  0.00  0.00    -0.530 OA
ATOM     17  O   UNL d   1      28.274  15.453 -23.656  0.00  0.00    -0.530 OA
ENDBRANCH   1  15
TORSDOF 3
ENDMDL
MODEL 4
REMARK VINA RESULT:      -1.9      2.210      3.951
REMARK  3 active torsions:
REMARK  status: ('A' for Active; 'I' for Inactive)
REMARK    1  A    between atoms: N_5  and  C_1 
REMARK    2  A    between atoms: C_7  and  N_4 
REMARK    3  A    between atoms: C_12  and  C_7 
ROOT
ATOM      1  C   UNL d   1      31.603  17.308 -24.086  0.00  0.00     0.232 A 
ATOM      2  N   UNL d   1      31.420  17.887 -24.636  0.00  0.00    -0.204 NA
ATOM      3  C   UNL d   1      32.296  17.504 -23.701  0.00  0.00     0.141 A 
ATOM      4  N   UNL d   1      32.563  18.229 -24.015  0.00  0.00    -0.282 N 
ATOM      5  C   UNL d   1      32.017  18.468 -24.597  0.00  0.00     0.150 A 
ATOM      6 BR   UNL d   1      32.684  17.072 -23.101  0.00  0.00    -0.026 Br
ATOM      7  C   UNL d   1      32.040  19.171 -25.079  0.00  0.00     0.041 C 
ENDROOT
BRANCH   4   8
ATOM      8  C   UNL d   1      33.229  18.704 -23.848  0.00  0.00     0.082 C 
BRANCH   8   9
ATOM      9  C   UNL d   1      33.230  19.239 -23.215  0.00  0.00     0.018 A 
ATOM     10  C   UNL d   1      33.240  20.046 -23.361  0.00  0.00     0.002 A 
ATOM     11  C   UNL d   1      33.241  20.592 -22.745  0.00  0.00     0.000 A 
ATOM     12  C   UNL d   1      33.232  20.345 -21.967  0.00  0.00     0.000 A 
ATOM     13  C   UNL d   1      33.221  19.527 -21.801  0.00  0.00     0.000 A 
ATOM     14  C   UNL d   1      33.220  18.963 -22.402  0.00  0.00     0.002 A 
ENDBRANCH   8   9
ENDBRANCH   4   8
BRANCH   1  15
ATOM     15  N   UNL d   1      31.159  16.637 -23.945  0.00  0.00    -0.093 N 
ATOM     16  O   UNL d   1      30.531  16.580 -23.403  0.00  0.00    -0.530 OA
ATOM     17  O   UNL d   1      31.273  15.918 -24.324  0.00  0.00    -0.530 OA
ENDBRANCH   1  15
TORSDOF 3
ENDMDL
MODEL 5
REMARK VINA RESULT:      -1.6      1.257      1.729
REMARK  3 active torsions:
REMARK  status: ('A' for Active; 'I' for Inactive)
REMARK    1  A    between atoms: N_5  and  C_1 
REMARK    2  A    between atoms: C_7  and  N_4 
REMARK    3  A    between atoms: C_12  and  C_7 
ROOT
ATOM      1  C   UNL d   1      32.968  18.572 -22.837  0.00  0.00     0.232 A 
ATOM      2  N   UNL d   1      33.229  17.870 -22.505  0.00  0.00    -0.204 NA
ATOM      3  C   UNL d   1      32.607  18.420 -23.554  0.00  0.00     0.141 A 
ATOM      4  N   UNL d   1      32.639  17.596 -23.683  0.00  0.00    -0.282 N 
ATOM      5  C   UNL d   1      33.026  17.254 -23.030  0.00  0.00     0.150 A 
ATOM      6 BR   UNL d   1      32.263  18.972 -24.078  0.00  0.00    -0.026 Br
ATOM      7  C   UNL d   1      33.197  16.429 -22.897  0.00  0.00     0.041 C 
ENDROOT
BRANCH   4   8
ATOM      8  C   UNL d   1      32.368  17.114 -24.308  0.00  0.00     0.082 C 
BRANCH   8   9
ATOM      9  C   UNL d   1      31.569  16.903 -24.375  0.00  0.00     0.018 A 
ATOM     10  C   UNL d   1      31.123  17.183 -25.003  0.00  0.00     0.002 A 
ATOM     11  C   UNL d   1      30.328  16.984 -25.085  0.00  0.00     0.000 A 
ATOM     12  C   UNL d   1      29.959  16.500 -24.540  0.00  0.00     0.000 A 
ATOM     13  C   UNL d   1      30.399  16.207 -23.895  0.00  0.00     0.000 A 
ATOM     14  C   UNL d   1      31.196  16.394 -23.794  0.00  0.00     0.002 A 
ENDBRANCH   8   9
ENDBRANCH   4   8
BRANCH   1  15
ATOM     15  N   UNL d   1      33.055  19.312 -22.502  0.00  0.00    -0.093 N 
ATOM     16  O   UNL d   1      32.978  20.036 -22.904  0.00  0.00    -0.530 OA
ATOM     17  O   UNL d   1      33.233  19.443 -21.712  0.00  0.00    -0.530 OA
ENDBRANCH   1  15
TORSDOF 3
ENDMDL
MODEL 6
REMARK VINA RESULT:      -1.6      2.175      3.233
REMARK  3 active torsions:
REMARK  status: ('A' for Active; 'I' for Inactive)
REMARK    1  A    between atoms: N_5  and  C_1 
REMARK    2  A    between atoms: C_7  and  N_4 
REMARK    3  A    between atoms: C_12  and  C_7 
ROOT
ATOM      1  C   UNL d   1      33.214  20.142 -22.730  0.00  0.00     0.232 A 
ATOM      2  N   UNL d   1      33.222  20.434 -23.494  0.00  0.00    -0.204 NA
ATOM      3  C   UNL d   1      33.218  19.325 -22.747  0.00  0.00     0.141 A 
ATOM      4  N   UNL d   1      33.228  19.090 -23.548  0.00  0.00    -0.282 N 
ATOM      5  C   UNL d   1      33.231  19.781 -24.013  0.00  0.00     0.150 A 
ATOM      6 BR   UNL d   1      33.213  18.802 -22.096  0.00  0.00    -0.026 Br
ATOM      7  C   UNL d   1      33.240  19.838 -24.864  0.00  0.00     0.041 C 
ENDROOT
BRANCH   4   8
ATOM      8  C   UNL d   1      33.236  18.339 -23.914  0.00  0.00     0.082 C 
BRANCH   8   9
ATOM      9  C   UNL d   1      32.559  17.862 -23.932  0.00  0.00     0.018 A 
ATOM     10  C   UNL d   1      31.989  17.982 -24.510  0.00  0.00     0.002 A 
ATOM     11  C   UNL d   1      31.310  17.517 -24.544  0.00  0.00     0.000 A 
ATOM     12  C   UNL d   1      31.184  16.921 -24.000  0.00  0.00     0.000 A 
ATOM     13  C   UNL d   1      31.754  16.786 -23.406  0.00  0.00     0.000 A 
ATOM     14  C   UNL d   1      32.440  17.239 -23.354  0.00  0.00     0.002 A 
ENDBRANCH   8   9
ENDBRANCH   4   8
BRANCH   1  15
ATOM     15  N   UNL d   1      33.205  20.598 -22.052  0.00  0.00    -0.093 N 
ATOM     16  O   UNL d   1      33.226  21.429 -22.031  0.00  0.00    -0.530 OA
ATOM     17  O   UNL d   1      33.172  20.295 -21.290  0.00  0.00    -0.530 OA
ENDBRANCH   1  15
TORSDOF 3
ENDMDL
MODEL 7
REMARK VINA RESULT:      -0.5      4.149      5.336
REMARK  3 active torsions:
REMARK  status: ('A' for Active; 'I' for Inactive)
REMARK    1  A    between atoms: N_5  and  C_1 
REMARK    2  A    between atoms: C_7  and  N_4 
REMARK    3  A    between atoms: C_12  and  C_7 
ROOT
ATOM      1  C   UNL d   1      32.139  22.327 -21.429  0.00  0.00     0.232 A 
ATOM      2  N   UNL d   1      31.819  21.796 -20.893  0.00  0.00    -0.204 NA
ATOM      3  C   UNL d   1      32.714  21.955 -21.873  0.00  0.00     0.141 A 
ATOM      4  N   UNL d   1      32.763  21.164 -21.613  0.00  0.00    -0.282 N 
ATOM      5  C   UNL d   1      32.205  21.065 -21.002  0.00  0.00     0.150 A 
ATOM      6 BR   UNL d   1      33.181  22.287 -22.481  0.00  0.00    -0.026 Br
ATOM      7  C   UNL d   1      32.039  20.358 -20.555  0.00  0.00     0.041 C 
ENDROOT
BRANCH   4   8
ATOM      8  C   UNL d   1      33.240  20.521 -21.851  0.00  0.00     0.082 C 
BRANCH   8   9
ATOM      9  C   UNL d   1      33.030  20.043 -22.493  0.00  0.00     0.018 A 
ATOM     10  C   UNL d   1      33.223  20.273 -23.257  0.00  0.00     0.002 A 
ATOM     11  C   UNL d   1      33.021  19.810 -23.907  0.00  0.00     0.000 A 
ATOM     12  C   UNL d   1      32.622  19.104 -23.811  0.00  0.00     0.000 A 
ATOM     13  C   UNL d   1      32.418  18.856 -23.041  0.00  0.00     0.000 A 
ATOM     14  C   UNL d   1      32.609  19.304 -22.376  0.00  0.00     0.002 A 
ENDBRANCH   8   9
ENDBRANCH   4   8
BRANCH   1  15
ATOM     15  N   UNL d   1      31.915  23.109 -21.506  0.00  0.00    -0.093 N 
ATOM     16  O   UNL d   1      31.896  23.668 -20.890  0.00  0.00    -0.530 OA
ATOM     17  O   UNL d   1      31.676  23.454 -22.210  0.00  0.00    -0.530 OA
ENDBRANCH   1  15
TORSDOF 3
ENDMDL
