MODEL 1
REMARK VINA RESULT:      46.4      0.000      0.000
REMARK  8 active torsions:
REMARK  status: ('A' for Active; 'I' for Inactive)
REMARK    1  A    between atoms: S_10  and  C_3 
REMARK    2  A    between atoms: C_12  and  C_7 
REMARK    3  A    between atoms: C_15  and  S_10 
REMARK    4  A    between atoms: C_11  and  C_15 
REMARK       I    between atoms: N_16  and  C_11 
REMARK    5  A    between atoms: C_23  and  N_16 
REMARK    6  A    between atoms: O_24  and  C_17 
REMARK    7  A    between atoms: C_18  and  C_29 
REMARK    8  A    between atoms: C_29  and  C_23 
ROOT
ATOM      1  N   UNL d   1      13.632  13.381  -3.350  0.00  0.00    -0.186 N 
ATOM      2  N   UNL d   1      13.931  13.199  -2.613  0.00  0.00    -0.162 NA
ATOM      3  C   UNL d   1      13.584  14.094  -3.766  0.00  0.00     0.217 A 
ATOM      4  C   UNL d   1      13.298  12.795  -3.826  0.00  0.00     0.187 A 
ATOM      5  N   UNL d   1      13.226  13.939  -4.486  0.00  0.00    -0.120 NA
ATOM      6  N   UNL d   1      13.049  13.134  -4.524  0.00  0.00    -0.127 NA
ATOM      7  C   UNL d   1      13.899  12.417  -2.341  0.00  0.00     0.102 A 
ATOM      8  C   UNL d   1      13.268  12.012  -3.551  0.00  0.00     0.042 A 
ATOM      9  C   UNL d   1      13.566  11.827  -2.814  0.00  0.00     0.024 A 
ENDROOT
BRANCH   3  10
ATOM     10  S   UNL d   1      13.845  14.838  -3.519  0.00  0.00    -0.041 SA
BRANCH  10  11
ATOM     11  C   UNL d   1      14.215  15.340  -4.042  0.00  0.00     0.101 C 
BRANCH  11  12
ATOM     12  C   UNL d   1      14.500  16.061  -3.786  0.00  0.00     0.286 C 
ATOM     13  O   UNL d   1      14.795  16.155  -3.020  0.00  0.00    -0.265 OA
ATOM     14  N   UNL d   1      14.498  16.712  -4.293  0.00  0.00    -0.206 NA
BRANCH  14  15
ATOM     15  C   UNL d   1      14.205  16.626  -5.061  0.00  0.00     0.102 C 
BRANCH  15  16
ATOM     16  C   UNL d   1      14.533  17.068  -5.677  0.00  0.00     0.021 C 
BRANCH  16  17
ATOM     17  C   UNL d   1      14.247  17.831  -5.837  0.00  0.00     0.002 A 
ATOM     18  C   UNL d   1      13.517  17.933  -6.217  0.00  0.00     0.002 A 
ATOM     19  C   UNL d   1      13.230  18.696  -6.377  0.00  0.00     0.024 A 
ATOM     20  C   UNL d   1      13.674  19.348  -6.158  0.00  0.00     0.094 A 
ATOM     21  C   UNL d   1      14.402  19.256  -5.780  0.00  0.00     0.024 A 
ATOM     22  C   UNL d   1      14.688  18.498  -5.620  0.00  0.00     0.002 A 
BRANCH  20  23
ATOM     23  O   UNL d   1      13.406  20.123  -6.309  0.00  0.00    -0.328 OA
ATOM     24  C   UNL d   1      13.564  20.723  -5.774  0.00  0.00     0.181 C 
ENDBRANCH  20  23
ENDBRANCH  16  17
ENDBRANCH  15  16
ENDBRANCH  14  15
ENDBRANCH  11  12
ENDBRANCH  10  11
ENDBRANCH   3  10
BRANCH   7  25
ATOM     25  C   UNL d   1      14.200  12.229  -1.597  0.00  0.00     0.022 A 
ATOM     26  C   UNL d   1      14.971  11.977  -1.524  0.00  0.00     0.022 A 
ATOM     27  C   UNL d   1      15.275  11.789  -0.792  0.00  0.00     0.099 A 
ATOM     28  N   UNL d   1      14.803  11.853  -0.118  0.00  0.00    -0.242 NA
ATOM     29  C   UNL d   1      14.030  12.106  -0.195  0.00  0.00     0.099 A 
ATOM     30  C   UNL d   1      13.727  12.295  -0.939  0.00  0.00     0.022 A 
ENDBRANCH   7  25
TORSDOF 8
ENDMDL
