MODEL 1
REMARK VINA RESULT:      -7.3      0.000      0.000
REMARK  4 active torsions:
REMARK  status: ('A' for Active; 'I' for Inactive)
REMARK    1  A    between atoms: N_2  and  S_1 
REMARK    2  A    between atoms: C_3  and  S_1 
REMARK    3  A    between atoms: C_11  and  N_2 
REMARK    4  A    between atoms: C_6  and  C_7 
ROOT
ATOM      1  S   UNL d   1     -48.260  13.613  22.970  0.00  0.00     0.285 S 
ATOM      2  O   UNL d   1     -48.194  14.343  22.592  0.00  0.00    -0.198 OA
ATOM      3  O   UNL d   1     -48.325  12.883  23.349  0.00  0.00    -0.198 OA
ENDROOT
BRANCH   1   4
ATOM      4  N   UNL d   1     -47.559  13.762  23.380  0.00  0.00    -0.158 NA
BRANCH   4   5
ATOM      5  C   UNL d   1     -46.837  13.486  23.091  0.00  0.00     0.094 A 
ATOM      6  C   UNL d   1     -46.351  13.978  22.640  0.00  0.00     0.020 A 
ATOM      7  C   UNL d   1     -45.632  13.699  22.354  0.00  0.00     0.005 A 
ATOM      8  C   UNL d   1     -45.393  12.918  22.518  0.00  0.00     0.039 A 
ATOM      9  C   UNL d   1     -45.880  12.426  22.968  0.00  0.00     0.005 A 
ATOM     10  C   UNL d   1     -46.601  12.702  23.257  0.00  0.00     0.020 A 
BRANCH   8  11
ATOM     11  C   UNL d   1     -44.666  12.629  22.230  0.00  0.00     0.196 C 
ATOM     12  O   UNL d   1     -44.293  12.001  22.609  0.00  0.00    -0.287 OA
ATOM     13  C   UNL d   1     -44.307  12.973  21.555  0.00  0.00     0.045 C 
ENDBRANCH   8  11
ENDBRANCH   4   5
ENDBRANCH   1   4
BRANCH   1  14
ATOM     14  C   UNL d   1     -48.960  13.463  22.561  0.00  0.00     0.105 A 
ATOM     15  C   UNL d   1     -49.098  13.834  21.844  0.00  0.00     0.013 A 
ATOM     16  C   UNL d   1     -49.809  13.682  21.428  0.00  0.00     0.001 A 
ATOM     17  C   UNL d   1     -50.364  13.163  21.739  0.00  0.00     0.000 A 
ATOM     18  C   UNL d   1     -50.225  12.788  22.464  0.00  0.00     0.001 A 
ATOM     19  C   UNL d   1     -51.064  13.014  21.330  0.00  0.00     0.000 C 
ATOM     20  C   UNL d   1     -49.513  12.940  22.880  0.00  0.00     0.013 A 
ENDBRANCH   1  14
TORSDOF 4
ENDMDL
MODEL 2
REMARK VINA RESULT:      -6.6      1.516      1.688
REMARK  4 active torsions:
REMARK  status: ('A' for Active; 'I' for Inactive)
REMARK    1  A    between atoms: N_2  and  S_1 
REMARK    2  A    between atoms: C_3  and  S_1 
REMARK    3  A    between atoms: C_11  and  N_2 
REMARK    4  A    between atoms: C_6  and  C_7 
ROOT
ATOM      1  S   UNL d   1     -49.240  13.218  22.937  0.00  0.00     0.285 S 
ATOM      2  O   UNL d   1     -49.552  13.154  22.176  0.00  0.00    -0.198 OA
ATOM      3  O   UNL d   1     -48.927  13.281  23.698  0.00  0.00    -0.198 OA
ENDROOT
BRANCH   1   4
ATOM      4  N   UNL d   1     -48.784  12.542  22.807  0.00  0.00    -0.158 NA
BRANCH   4   5
ATOM      5  C   UNL d   1     -47.963  12.596  22.748  0.00  0.00     0.094 A 
ATOM      6  C   UNL d   1     -47.613  13.002  22.121  0.00  0.00     0.020 A 
ATOM      7  C   UNL d   1     -46.794  13.054  22.067  0.00  0.00     0.005 A 
ATOM      8  C   UNL d   1     -46.314  12.694  22.646  0.00  0.00     0.039 A 
ATOM      9  C   UNL d   1     -46.664  12.288  23.273  0.00  0.00     0.005 A 
ATOM     10  C   UNL d   1     -47.484  12.234  23.331  0.00  0.00     0.020 A 
BRANCH   8  11
ATOM     11  C   UNL d   1     -45.483  12.743  22.596  0.00  0.00     0.196 C 
ATOM     12  O   UNL d   1     -45.014  12.205  23.006  0.00  0.00    -0.287 OA
ATOM     13  C   UNL d   1     -45.117  13.336  22.131  0.00  0.00     0.045 C 
ENDBRANCH   8  11
ENDBRANCH   4   5
ENDBRANCH   1   4
BRANCH   1  14
ATOM     14  C   UNL d   1     -49.695  13.893  23.067  0.00  0.00     0.105 A 
ATOM     15  C   UNL d   1     -49.338  14.577  23.342  0.00  0.00     0.013 A 
ATOM     16  C   UNL d   1     -49.801  15.263  23.474  0.00  0.00     0.001 A 
ATOM     17  C   UNL d   1     -50.609  15.247  23.329  0.00  0.00     0.000 A 
ATOM     18  C   UNL d   1     -50.970  14.556  23.051  0.00  0.00     0.001 A 
ATOM     19  C   UNL d   1     -51.064  15.922  23.459  0.00  0.00     0.000 C 
ATOM     20  C   UNL d   1     -50.507  13.870  22.919  0.00  0.00     0.013 A 
ENDBRANCH   1  14
TORSDOF 4
ENDMDL
MODEL 3
REMARK VINA RESULT:      -6.4      8.031      9.458
REMARK  4 active torsions:
REMARK  status: ('A' for Active; 'I' for Inactive)
REMARK    1  A    between atoms: N_2  and  S_1 
REMARK    2  A    between atoms: C_3  and  S_1 
REMARK    3  A    between atoms: C_11  and  N_2 
REMARK    4  A    between atoms: C_6  and  C_7 
ROOT
ATOM      1  S   UNL d   1     -40.127  14.542  18.001  0.00  0.00     0.285 S 
ATOM      2  O   UNL d   1     -40.320  13.753  18.144  0.00  0.00    -0.198 OA
ATOM      3  O   UNL d   1     -39.933  15.331  17.859  0.00  0.00    -0.198 OA
ENDROOT
BRANCH   1   4
ATOM      4  N   UNL d   1     -40.672  14.779  18.573  0.00  0.00    -0.158 NA
BRANCH   4   5
ATOM      5  C   UNL d   1     -40.440  14.882  19.358  0.00  0.00     0.094 A 
ATOM      6  C   UNL d   1     -40.532  14.271  19.905  0.00  0.00     0.020 A 
ATOM      7  C   UNL d   1     -40.298  14.377  20.687  0.00  0.00     0.005 A 
ATOM      8  C   UNL d   1     -39.968  15.103  20.928  0.00  0.00     0.039 A 
ATOM      9  C   UNL d   1     -39.876  15.714  20.381  0.00  0.00     0.005 A 
ATOM     10  C   UNL d   1     -40.108  15.612  19.596  0.00  0.00     0.020 A 
BRANCH   8  11
ATOM     11  C   UNL d   1     -39.729  15.217  21.719  0.00  0.00     0.196 C 
ATOM     12  O   UNL d   1     -39.934  15.908  22.115  0.00  0.00    -0.287 OA
ATOM     13  C   UNL d   1     -39.280  14.632  22.118  0.00  0.00     0.045 C 
ENDBRANCH   8  11
ENDBRANCH   4   5
ENDBRANCH   1   4
BRANCH   1  14
ATOM     14  C   UNL d   1     -39.581  14.305  17.430  0.00  0.00     0.105 A 
ATOM     15  C   UNL d   1     -39.416  14.797  16.797  0.00  0.00     0.013 A 
ATOM     16  C   UNL d   1     -38.861  14.556  16.217  0.00  0.00     0.001 A 
ATOM     17  C   UNL d   1     -38.486  13.830  16.285  0.00  0.00     0.000 A 
ATOM     18  C   UNL d   1     -38.653  13.331  16.924  0.00  0.00     0.001 A 
ATOM     19  C   UNL d   1     -37.940  13.592  15.713  0.00  0.00     0.000 C 
ATOM     20  C   UNL d   1     -39.207  13.572  17.505  0.00  0.00     0.013 A 
ENDBRANCH   1  14
TORSDOF 4
ENDMDL
MODEL 4
REMARK VINA RESULT:      -6.0      7.775      8.906
REMARK  4 active torsions:
REMARK  status: ('A' for Active; 'I' for Inactive)
REMARK    1  A    between atoms: N_2  and  S_1 
REMARK    2  A    between atoms: C_3  and  S_1 
REMARK    3  A    between atoms: C_11  and  N_2 
REMARK    4  A    between atoms: C_6  and  C_7 
ROOT
ATOM      1  S   UNL d   1     -40.351  14.991  20.974  0.00  0.00     0.285 S 
ATOM      2  O   UNL d   1     -40.629  14.216  21.035  0.00  0.00    -0.198 OA
ATOM      3  O   UNL d   1     -40.072  15.765  20.912  0.00  0.00    -0.198 OA
ENDROOT
BRANCH   1   4
ATOM      4  N   UNL d   1     -40.953  15.164  20.437  0.00  0.00    -0.158 NA
BRANCH   4   5
ATOM      5  C   UNL d   1     -40.817  15.113  19.625  0.00  0.00     0.094 A 
ATOM      6  C   UNL d   1     -40.833  14.382  19.242  0.00  0.00     0.020 A 
ATOM      7  C   UNL d   1     -40.698  14.335  18.432  0.00  0.00     0.005 A 
ATOM      8  C   UNL d   1     -40.544  15.028  17.995  0.00  0.00     0.039 A 
ATOM      9  C   UNL d   1     -40.527  15.759  18.377  0.00  0.00     0.005 A 
ATOM     10  C   UNL d   1     -40.663  15.810  19.189  0.00  0.00     0.020 A 
BRANCH   8  11
ATOM     11  C   UNL d   1     -40.405  14.987  17.174  0.00  0.00     0.196 C 
ATOM     12  O   UNL d   1     -41.032  15.066  16.646  0.00  0.00    -0.287 OA
ATOM     13  C   UNL d   1     -39.631  14.864  16.876  0.00  0.00     0.045 C 
ENDBRANCH   8  11
ENDBRANCH   4   5
ENDBRANCH   1   4
BRANCH   1  14
ATOM     14  C   UNL d   1     -39.749  14.817  21.511  0.00  0.00     0.105 A 
ATOM     15  C   UNL d   1     -39.577  14.036  21.689  0.00  0.00     0.013 A 
ATOM     16  C   UNL d   1     -38.965  13.860  22.234  0.00  0.00     0.001 A 
ATOM     17  C   UNL d   1     -38.542  14.468  22.587  0.00  0.00     0.000 A 
ATOM     18  C   UNL d   1     -38.716  15.257  22.407  0.00  0.00     0.001 A 
ATOM     19  C   UNL d   1     -37.940  14.295  23.124  0.00  0.00     0.000 C 
ATOM     20  C   UNL d   1     -39.327  15.434  21.862  0.00  0.00     0.013 A 
ENDBRANCH   1  14
TORSDOF 4
ENDMDL
MODEL 5
REMARK VINA RESULT:      -5.8      7.957      8.750
REMARK  4 active torsions:
REMARK  status: ('A' for Active; 'I' for Inactive)
REMARK    1  A    between atoms: N_2  and  S_1 
REMARK    2  A    between atoms: C_3  and  S_1 
REMARK    3  A    between atoms: C_11  and  N_2 
REMARK    4  A    between atoms: C_6  and  C_7 
ROOT
ATOM      1  S   UNL d   1     -40.651  15.004  19.396  0.00  0.00     0.285 S 
ATOM      2  O   UNL d   1     -40.711  15.826  19.399  0.00  0.00    -0.198 OA
ATOM      3  O   UNL d   1     -40.590  14.181  19.394  0.00  0.00    -0.198 OA
ENDROOT
BRANCH   1   4
ATOM      4  N   UNL d   1     -40.911  14.982  20.179  0.00  0.00    -0.158 NA
BRANCH   4   5
ATOM      5  C   UNL d   1     -40.376  15.076  20.801  0.00  0.00     0.094 A 
ATOM      6  C   UNL d   1     -39.937  14.433  21.076  0.00  0.00     0.020 A 
ATOM      7  C   UNL d   1     -39.405  14.531  21.696  0.00  0.00     0.005 A 
ATOM      8  C   UNL d   1     -39.308  15.279  22.048  0.00  0.00     0.039 A 
ATOM      9  C   UNL d   1     -39.747  15.922  21.773  0.00  0.00     0.005 A 
ATOM     10  C   UNL d   1     -40.281  15.829  21.152  0.00  0.00     0.020 A 
BRANCH   8  11
ATOM     11  C   UNL d   1     -38.771  15.384  22.677  0.00  0.00     0.196 C 
ATOM     12  O   UNL d   1     -38.963  15.119  23.431  0.00  0.00    -0.287 OA
ATOM     13  C   UNL d   1     -38.032  15.759  22.549  0.00  0.00     0.045 C 
ENDBRANCH   8  11
ENDBRANCH   4   5
ENDBRANCH   1   4
BRANCH   1  14
ATOM     14  C   UNL d   1     -40.391  15.025  18.613  0.00  0.00     0.105 A 
ATOM     15  C   UNL d   1     -40.223  14.326  18.222  0.00  0.00     0.013 A 
ATOM     16  C   UNL d   1     -39.959  14.347  17.427  0.00  0.00     0.001 A 
ATOM     17  C   UNL d   1     -39.870  15.068  17.044  0.00  0.00     0.000 A 
ATOM     18  C   UNL d   1     -40.040  15.775  17.439  0.00  0.00     0.001 A 
ATOM     19  C   UNL d   1     -39.610  15.089  16.262  0.00  0.00     0.000 C 
ATOM     20  C   UNL d   1     -40.304  15.753  18.234  0.00  0.00     0.013 A 
ENDBRANCH   1  14
TORSDOF 4
ENDMDL
