MODEL 1
REMARK VINA RESULT:      -7.1      0.000      0.000
REMARK  4 active torsions:
REMARK  status: ('A' for Active; 'I' for Inactive)
REMARK    1  A    between atoms: S_2  and  C_1 
REMARK    2  A    between atoms: C_7  and  S_2 
REMARK    3  A    between atoms: O_13  and  C_6 
REMARK    4  A    between atoms: C_17  and  O_13 
ROOT
ATOM      1  S   UNL d   1     -47.959  13.727  22.542  0.00  0.00     0.228 S 
ATOM      2  O   UNL d   1     -47.891  14.245  23.162  0.00  0.00    -0.216 OA
ATOM      3  O   UNL d   1     -48.092  13.219  21.902  0.00  0.00    -0.216 OA
ENDROOT
BRANCH   1   4
ATOM      4  C   UNL d   1     -47.218  13.466  22.625  0.00  0.00     0.188 A 
ATOM      5  N   UNL d   1     -46.511  13.716  22.294  0.00  0.00    -0.203 NA
ATOM      6  C   UNL d   1     -45.920  13.213  22.604  0.00  0.00     0.217 A 
ATOM      7  S   UNL d   1     -46.243  12.697  23.085  0.00  0.00    -0.029 SA
ATOM      8  C   UNL d   1     -47.050  12.831  23.117  0.00  0.00     0.119 A 
ATOM      9 CL   UNL d   1     -47.617  12.401  23.571  0.00  0.00    -0.073 Cl
BRANCH   6  10
ATOM     10  O   UNL d   1     -45.083  13.246  22.428  0.00  0.00    -0.282 OA
BRANCH  10  11
ATOM     11  C   UNL d   1     -44.784  12.916  21.755  0.00  0.00     0.125 C 
ATOM     12  C   UNL d   1     -43.980  12.922  21.619  0.00  0.00     0.029 C 
ENDBRANCH  10  11
ENDBRANCH   6  10
ENDBRANCH   1   4
BRANCH   1  13
ATOM     13  C   UNL d   1     -48.763  14.003  22.445  0.00  0.00     0.089 A 
ATOM     14  C   UNL d   1     -49.301  13.619  21.932  0.00  0.00     0.011 A 
ATOM     15  C   UNL d   1     -50.059  13.890  21.849  0.00  0.00     0.001 A 
ATOM     16  C   UNL d   1     -50.285  14.554  22.283  0.00  0.00     0.000 A 
ATOM     17  C   UNL d   1     -49.778  14.928  22.777  0.00  0.00     0.001 A 
ATOM     18  C   UNL d   1     -51.064  14.858  22.218  0.00  0.00     0.000 C 
ATOM     19  C   UNL d   1     -48.996  14.669  22.879  0.00  0.00     0.011 A 
ENDBRANCH   1  13
TORSDOF 4
ENDMDL
MODEL 2
REMARK VINA RESULT:      -6.5      1.589      4.136
REMARK  4 active torsions:
REMARK  status: ('A' for Active; 'I' for Inactive)
REMARK    1  A    between atoms: S_2  and  C_1 
REMARK    2  A    between atoms: C_7  and  S_2 
REMARK    3  A    between atoms: O_13  and  C_6 
REMARK    4  A    between atoms: C_17  and  O_13 
ROOT
ATOM      1  S   UNL d   1     -48.224  12.948  22.864  0.00  0.00     0.228 S 
ATOM      2  O   UNL d   1     -48.711  12.475  23.307  0.00  0.00    -0.216 OA
ATOM      3  O   UNL d   1     -47.675  13.390  22.429  0.00  0.00    -0.216 OA
ENDROOT
BRANCH   1   4
ATOM      4  C   UNL d   1     -48.814  13.429  22.653  0.00  0.00     0.188 A 
ATOM      5  N   UNL d   1     -49.114  14.108  23.000  0.00  0.00    -0.203 NA
ATOM      6  C   UNL d   1     -49.740  14.362  22.507  0.00  0.00     0.217 A 
ATOM      7  S   UNL d   1     -49.813  13.875  21.908  0.00  0.00    -0.029 SA
ATOM      8  C   UNL d   1     -49.250  13.285  21.973  0.00  0.00     0.119 A 
ATOM      9 CL   UNL d   1     -49.129  12.639  21.443  0.00  0.00    -0.073 Cl
BRANCH   6  10
ATOM     10  O   UNL d   1     -50.233  15.050  22.628  0.00  0.00    -0.282 OA
BRANCH  10  11
ATOM     11  C   UNL d   1     -50.697  15.122  23.285  0.00  0.00     0.125 C 
ATOM     12  C   UNL d   1     -50.784  15.847  23.648  0.00  0.00     0.029 C 
ENDBRANCH  10  11
ENDBRANCH   6  10
ENDBRANCH   1   4
BRANCH   1  13
ATOM     13  C   UNL d   1     -47.579  12.431  23.087  0.00  0.00     0.089 A 
ATOM     14  C   UNL d   1     -47.713  11.708  23.486  0.00  0.00     0.011 A 
ATOM     15  C   UNL d   1     -47.095  11.228  23.692  0.00  0.00     0.001 A 
ATOM     16  C   UNL d   1     -46.331  11.472  23.497  0.00  0.00     0.000 A 
ATOM     17  C   UNL d   1     -46.193  12.162  23.116  0.00  0.00     0.001 A 
ATOM     18  C   UNL d   1     -45.670  10.995  23.698  0.00  0.00     0.000 C 
ATOM     19  C   UNL d   1     -46.810  12.670  22.895  0.00  0.00     0.011 A 
ENDBRANCH   1  13
TORSDOF 4
ENDMDL
MODEL 3
REMARK VINA RESULT:      -5.6      8.524      9.110
REMARK  4 active torsions:
REMARK  status: ('A' for Active; 'I' for Inactive)
REMARK    1  A    between atoms: S_2  and  C_1 
REMARK    2  A    between atoms: C_7  and  S_2 
REMARK    3  A    between atoms: O_13  and  C_6 
REMARK    4  A    between atoms: C_17  and  O_13 
ROOT
ATOM      1  S   UNL d   1     -39.996  15.107  19.477  0.00  0.00     0.228 S 
ATOM      2  O   UNL d   1     -40.335  14.386  19.626  0.00  0.00    -0.216 OA
ATOM      3  O   UNL d   1     -39.632  15.846  19.391  0.00  0.00    -0.216 OA
ENDROOT
BRANCH   1   4
ATOM      4  C   UNL d   1     -40.198  15.091  18.714  0.00  0.00     0.188 A 
ATOM      5  N   UNL d   1     -40.921  15.179  18.338  0.00  0.00    -0.203 NA
ATOM      6  C   UNL d   1     -40.767  15.106  17.520  0.00  0.00     0.217 A 
ATOM      7  S   UNL d   1     -40.009  14.983  17.408  0.00  0.00    -0.029 SA
ATOM      8  C   UNL d   1     -39.630  14.969  18.133  0.00  0.00     0.119 A 
ATOM      9 CL   UNL d   1     -38.807  14.851  18.273  0.00  0.00    -0.073 Cl
BRANCH   6  10
ATOM     10  O   UNL d   1     -41.343  15.156  16.889  0.00  0.00    -0.282 OA
BRANCH  10  11
ATOM     11  C   UNL d   1     -41.555  15.866  16.572  0.00  0.00     0.125 C 
ATOM     12  C   UNL d   1     -42.192  15.915  16.065  0.00  0.00     0.029 C 
ENDBRANCH  10  11
ENDBRANCH   6  10
ENDBRANCH   1   4
BRANCH   1  13
ATOM     13  C   UNL d   1     -39.774  15.133  20.303  0.00  0.00     0.089 A 
ATOM     14  C   UNL d   1     -39.719  15.855  20.722  0.00  0.00     0.011 A 
ATOM     15  C   UNL d   1     -39.508  15.866  21.503  0.00  0.00     0.001 A 
ATOM     16  C   UNL d   1     -39.348  15.147  21.873  0.00  0.00     0.000 A 
ATOM     17  C   UNL d   1     -39.397  14.450  21.481  0.00  0.00     0.001 A 
ATOM     18  C   UNL d   1     -39.126  15.126  22.683  0.00  0.00     0.000 C 
ATOM     19  C   UNL d   1     -39.612  14.414  20.681  0.00  0.00     0.011 A 
ENDBRANCH   1  13
TORSDOF 4
ENDMDL
MODEL 4
REMARK VINA RESULT:      -5.4      8.420     10.003
REMARK  4 active torsions:
REMARK  status: ('A' for Active; 'I' for Inactive)
REMARK    1  A    between atoms: S_2  and  C_1 
REMARK    2  A    between atoms: C_7  and  S_2 
REMARK    3  A    between atoms: O_13  and  C_6 
REMARK    4  A    between atoms: C_17  and  O_13 
ROOT
ATOM      1  S   UNL d   1     -39.266  14.240  18.089  0.00  0.00     0.228 S 
ATOM      2  O   UNL d   1     -39.623  13.516  18.017  0.00  0.00    -0.216 OA
ATOM      3  O   UNL d   1     -38.875  14.970  18.100  0.00  0.00    -0.216 OA
ENDROOT
BRANCH   1   4
ATOM      4  C   UNL d   1     -39.571  14.366  18.806  0.00  0.00     0.188 A 
ATOM      5  N   UNL d   1     -39.223  14.412  19.547  0.00  0.00    -0.203 NA
ATOM      6  C   UNL d   1     -39.846  14.556  20.086  0.00  0.00     0.217 A 
ATOM      7  S   UNL d   1     -40.519  14.594  19.703  0.00  0.00    -0.029 SA
ATOM      8  C   UNL d   1     -40.378  14.479  18.904  0.00  0.00     0.119 A 
ATOM      9 CL   UNL d   1     -40.951  14.476  18.285  0.00  0.00    -0.073 Cl
BRANCH   6  10
ATOM     10  O   UNL d   1     -39.771  14.649  20.933  0.00  0.00    -0.282 OA
BRANCH  10  11
ATOM     11  C   UNL d   1     -39.459  14.064  21.393  0.00  0.00     0.125 C 
ATOM     12  C   UNL d   1     -39.408  14.161  22.200  0.00  0.00     0.029 C 
ENDBRANCH  10  11
ENDBRANCH   6  10
ENDBRANCH   1   4
BRANCH   1  13
ATOM     13  C   UNL d   1     -38.931  14.113  17.312  0.00  0.00     0.089 A 
ATOM     14  C   UNL d   1     -38.988  14.690  16.708  0.00  0.00     0.011 A 
ATOM     15  C   UNL d   1     -38.667  14.558  15.978  0.00  0.00     0.001 A 
ATOM     16  C   UNL d   1     -38.283  13.840  15.845  0.00  0.00     0.000 A 
ATOM     17  C   UNL d   1     -38.224  13.281  16.415  0.00  0.00     0.001 A 
ATOM     18  C   UNL d   1     -37.940  13.674  15.097  0.00  0.00     0.000 C 
ATOM     19  C   UNL d   1     -38.545  13.394  17.172  0.00  0.00     0.011 A 
ENDBRANCH   1  13
TORSDOF 4
ENDMDL
MODEL 5
REMARK VINA RESULT:      -5.2      8.129      8.604
REMARK  4 active torsions:
REMARK  status: ('A' for Active; 'I' for Inactive)
REMARK    1  A    between atoms: S_2  and  C_1 
REMARK    2  A    between atoms: C_7  and  S_2 
REMARK    3  A    between atoms: O_13  and  C_6 
REMARK    4  A    between atoms: C_17  and  O_13 
ROOT
ATOM      1  S   UNL d   1     -40.038  15.038  19.731  0.00  0.00     0.228 S 
ATOM      2  O   UNL d   1     -39.542  15.665  19.594  0.00  0.00    -0.216 OA
ATOM      3  O   UNL d   1     -40.565  14.404  19.806  0.00  0.00    -0.216 OA
ENDROOT
BRANCH   1   4
ATOM      4  C   UNL d   1     -39.796  14.956  20.478  0.00  0.00     0.188 A 
ATOM      5  N   UNL d   1     -39.168  14.544  20.807  0.00  0.00    -0.203 NA
ATOM      6  C   UNL d   1     -39.211  14.677  21.631  0.00  0.00     0.217 A 
ATOM      7  S   UNL d   1     -39.817  15.134  21.790  0.00  0.00    -0.029 SA
ATOM      8  C   UNL d   1     -40.200  15.323  21.092  0.00  0.00     0.119 A 
ATOM      9 CL   UNL d   1     -40.886  15.806  21.004  0.00  0.00    -0.073 Cl
BRANCH   6  10
ATOM     10  O   UNL d   1     -38.677  14.366  22.223  0.00  0.00    -0.282 OA
BRANCH  10  11
ATOM     11  C   UNL d   1     -38.694  13.587  22.433  0.00  0.00     0.125 C 
ATOM     12  C   UNL d   1     -38.280  13.329  23.086  0.00  0.00     0.029 C 
ENDBRANCH  10  11
ENDBRANCH   6  10
ENDBRANCH   1   4
BRANCH   1  13
ATOM     13  C   UNL d   1     -40.306  15.120  18.922  0.00  0.00     0.089 A 
ATOM     14  C   UNL d   1     -40.549  15.858  18.611  0.00  0.00     0.011 A 
ATOM     15  C   UNL d   1     -40.800  15.922  17.845  0.00  0.00     0.001 A 
ATOM     16  C   UNL d   1     -40.810  15.240  17.380  0.00  0.00     0.000 A 
ATOM     17  C   UNL d   1     -40.579  14.530  17.668  0.00  0.00     0.001 A 
ATOM     18  C   UNL d   1     -41.065  15.276  16.581  0.00  0.00     0.000 C 
ATOM     19  C   UNL d   1     -40.318  14.439  18.450  0.00  0.00     0.011 A 
ENDBRANCH   1  13
TORSDOF 4
ENDMDL
