MODEL 1
REMARK VINA RESULT:      34.9      0.000      0.000
REMARK  5 active torsions:
REMARK  status: ('A' for Active; 'I' for Inactive)
REMARK    1  A    between atoms: C_11  and  N_1 
REMARK    2  A    between atoms: C_2  and  S_13 
REMARK       I    between atoms: C_12  and  N_14 
REMARK    3  A    between atoms: C_18  and  C_12 
REMARK    4  A    between atoms: S_13  and  C_18 
REMARK    5  A    between atoms: N_14  and  C_19 
ROOT
ATOM      1  C   UNL d   1      46.149 -19.099  44.220  0.00  0.00     0.286 C 
ATOM      2  N   UNL d   1      46.139 -19.561  43.536  0.00  0.00    -0.208 NA
ATOM      3  O   UNL d   1      46.272 -19.454  44.954  0.00  0.00    -0.265 OA
ENDROOT
BRANCH   1   4
ATOM      4  C   UNL d   1      46.035 -18.279  44.164  0.00  0.00     0.101 C 
BRANCH   4   5
ATOM      5  S   UNL d   1      46.106 -17.811  44.845  0.00  0.00    -0.037 SA
BRANCH   5   6
ATOM      6  C   UNL d   1      45.895 -17.004  44.810  0.00  0.00     0.215 A 
ATOM      7  N   UNL d   1      45.139 -16.696  44.953  0.00  0.00    -0.214 NA
ATOM      8  C   UNL d   1      45.177 -15.875  44.858  0.00  0.00     0.107 A 
ATOM      9  C   UNL d   1      44.605 -15.290  44.930  0.00  0.00     0.021 A 
ATOM     10  C   UNL d   1      45.948 -15.681  44.660  0.00  0.00     0.120 A 
ATOM     11  C   UNL d   1      44.807 -14.500  44.801  0.00  0.00     0.002 A 
ATOM     12  C   UNL d   1      45.584 -14.300  44.600  0.00  0.00     0.002 A 
ATOM     13  C   UNL d   1      46.158 -14.894  44.530  0.00  0.00     0.026 A 
ATOM     14  O   UNL d   1      46.399 -16.374  44.628  0.00  0.00    -0.283 OA
ENDBRANCH   5   6
ENDBRANCH   4   5
ENDBRANCH   1   4
BRANCH   2  15
ATOM     15  C   UNL d   1      46.017 -19.211  42.803  0.00  0.00     0.085 A 
ATOM     16  C   UNL d   1      45.244 -19.169  42.485  0.00  0.00     0.021 A 
ATOM     17  C   UNL d   1      45.124 -18.822  41.760  0.00  0.00     0.021 A 
ATOM     18  C   UNL d   1      45.756 -18.508  41.327  0.00  0.00     0.086 A 
ATOM     19  C   UNL d   1      46.516 -18.551  41.642  0.00  0.00     0.021 A 
ATOM     20  C   UNL d   1      46.647 -18.903  42.382  0.00  0.00     0.021 A 
BRANCH  18  21
ATOM     21  N   UNL d   1      45.634 -18.158  40.594  0.00  0.00    -0.189 N 
ATOM     22  N   UNL d   1      44.915 -17.897  40.289  0.00  0.00    -0.038 NA
ATOM     23  N   UNL d   1      45.055 -17.585  39.541  0.00  0.00    -0.022 NA
ATOM     24  N   UNL d   1      45.857 -17.650  39.377  0.00  0.00    -0.104 NA
ATOM     25  C   UNL d   1      46.217 -18.006  40.031  0.00  0.00     0.226 A 
ENDBRANCH  18  21
ENDBRANCH   2  15
TORSDOF 5
ENDMDL
