MODEL 1
REMARK VINA RESULT:      -3.1      0.000      0.000
REMARK  6 active torsions:
REMARK  status: ('A' for Active; 'I' for Inactive)
REMARK    1  A    between atoms: N_3  and  S_1 
REMARK    2  A    between atoms: C_9  and  S_1 
REMARK    3  A    between atoms: C_2  and  N_3 
REMARK    4  A    between atoms: N_5  and  C_10 
REMARK    5  A    between atoms: C_19  and  C_8 
REMARK    6  A    between atoms: O_20  and  C_19 
ROOT
ATOM      1  S   UNL d   1      31.980  17.284 -23.993  0.00  0.00     0.287 S 
ATOM      2  O   UNL d   1      31.798  17.715 -24.693  0.00  0.00    -0.198 OA
ATOM      3  O   UNL d   1      32.170  16.856 -23.292  0.00  0.00    -0.198 OA
ENDROOT
BRANCH   1   4
ATOM      4  N   UNL d   1      32.756  17.632 -23.999  0.00  0.00    -0.130 NA
BRANCH   4   5
ATOM      5  C   UNL d   1      32.892  18.331 -23.588  0.00  0.00     0.227 A 
ATOM      6  S   UNL d   1      32.995  18.489 -22.775  0.00  0.00    -0.023 SA
ATOM      7  C   UNL d   1      33.114  19.318 -22.696  0.00  0.00     0.159 A 
ATOM      8  N   UNL d   1      33.084  19.647 -23.439  0.00  0.00    -0.137 NA
ATOM      9  N   UNL d   1      32.946  19.034 -23.990  0.00  0.00    -0.120 NA
BRANCH   7  10
ATOM     10  C   UNL d   1      33.241  19.722 -21.978  0.00  0.00     0.144 C 
BRANCH  10  11
ATOM     11  O   UNL d   1      32.739  20.385 -21.786  0.00  0.00    -0.324 OA
ATOM     12  C   UNL d   1      32.822  20.790 -21.047  0.00  0.00     0.182 C 
ENDBRANCH  10  11
ENDBRANCH   7  10
ENDBRANCH   4   5
ENDBRANCH   1   4
BRANCH   1  13
ATOM     13  C   UNL d   1      31.210  16.937 -23.985  0.00  0.00     0.105 A 
ATOM     14  C   UNL d   1      30.633  17.254 -24.433  0.00  0.00     0.015 A 
ATOM     15  C   UNL d   1      29.874  16.930 -24.440  0.00  0.00     0.024 A 
ATOM     16  C   UNL d   1      29.719  16.268 -23.974  0.00  0.00     0.127 A 
ATOM     17  C   UNL d   1      30.315  15.931 -23.503  0.00  0.00     0.024 A 
ATOM     18  C   UNL d   1      31.051  16.274 -23.519  0.00  0.00     0.015 A 
BRANCH  16  19
ATOM     19  N   UNL d   1      28.946  15.921 -23.967  0.00  0.00    -0.114 N 
ATOM     20  O   UNL d   1      28.460  16.018 -23.318  0.00  0.00    -0.532 OA
ATOM     21  O   UNL d   1      28.675  15.482 -24.612  0.00  0.00    -0.532 OA
ENDBRANCH  16  19
ENDBRANCH   1  13
TORSDOF 6
ENDMDL
MODEL 2
REMARK VINA RESULT:      -2.6      1.383      4.823
REMARK  6 active torsions:
REMARK  status: ('A' for Active; 'I' for Inactive)
REMARK    1  A    between atoms: N_3  and  S_1 
REMARK    2  A    between atoms: C_9  and  S_1 
REMARK    3  A    between atoms: C_2  and  N_3 
REMARK    4  A    between atoms: N_5  and  C_10 
REMARK    5  A    between atoms: C_19  and  C_8 
REMARK    6  A    between atoms: O_20  and  C_19 
ROOT
ATOM      1  S   UNL d   1      33.234  18.812 -23.031  0.00  0.00     0.287 S 
ATOM      2  O   UNL d   1      33.231  18.348 -22.328  0.00  0.00    -0.198 OA
ATOM      3  O   UNL d   1      33.238  19.269 -23.739  0.00  0.00    -0.198 OA
ENDROOT
BRANCH   1   4
ATOM      4  N   UNL d   1      33.241  18.093 -23.486  0.00  0.00    -0.130 NA
BRANCH   4   5
ATOM      5  C   UNL d   1      32.531  17.723 -23.672  0.00  0.00     0.227 A 
ATOM      6  S   UNL d   1      31.938  17.902 -24.230  0.00  0.00    -0.023 SA
ATOM      7  C   UNL d   1      31.341  17.313 -24.157  0.00  0.00     0.159 A 
ATOM      8  N   UNL d   1      31.571  16.796 -23.573  0.00  0.00    -0.137 NA
ATOM      9  N   UNL d   1      32.308  17.052 -23.274  0.00  0.00    -0.120 NA
BRANCH   7  10
ATOM     10  C   UNL d   1      30.642  17.275 -24.609  0.00  0.00     0.144 C 
BRANCH  10  11
ATOM     11  O   UNL d   1      30.060  16.681 -24.415  0.00  0.00    -0.324 OA
ATOM     12  C   UNL d   1      29.282  16.715 -24.747  0.00  0.00     0.182 C 
ENDBRANCH  10  11
ENDBRANCH   7  10
ENDBRANCH   4   5
ENDBRANCH   1   4
BRANCH   1  13
ATOM     13  C   UNL d   1      33.228  19.527 -22.580  0.00  0.00     0.105 A 
ATOM     14  C   UNL d   1      33.226  20.227 -22.957  0.00  0.00     0.015 A 
ATOM     15  C   UNL d   1      33.220  20.937 -22.535  0.00  0.00     0.024 A 
ATOM     16  C   UNL d   1      33.215  20.911 -21.711  0.00  0.00     0.127 A 
ATOM     17  C   UNL d   1      33.217  20.183 -21.309  0.00  0.00     0.024 A 
ATOM     18  C   UNL d   1      33.223  19.503 -21.755  0.00  0.00     0.015 A 
BRANCH  16  19
ATOM     19  N   UNL d   1      33.209  21.627 -21.260  0.00  0.00    -0.114 N 
ATOM     20  O   UNL d   1      33.172  22.349 -21.639  0.00  0.00    -0.532 OA
ATOM     21  O   UNL d   1      33.239  21.606 -20.435  0.00  0.00    -0.532 OA
ENDBRANCH  16  19
ENDBRANCH   1  13
TORSDOF 6
ENDMDL
MODEL 3
REMARK VINA RESULT:      -2.1      1.228      4.497
REMARK  6 active torsions:
REMARK  status: ('A' for Active; 'I' for Inactive)
REMARK    1  A    between atoms: N_3  and  S_1 
REMARK    2  A    between atoms: C_9  and  S_1 
REMARK    3  A    between atoms: C_2  and  N_3 
REMARK    4  A    between atoms: N_5  and  C_10 
REMARK    5  A    between atoms: C_19  and  C_8 
REMARK    6  A    between atoms: O_20  and  C_19 
ROOT
ATOM      1  S   UNL d   1      32.741  17.792 -24.075  0.00  0.00     0.287 S 
ATOM      2  O   UNL d   1      33.220  17.330 -23.559  0.00  0.00    -0.198 OA
ATOM      3  O   UNL d   1      32.261  18.248 -24.596  0.00  0.00    -0.198 OA
ENDROOT
BRANCH   1   4
ATOM      4  N   UNL d   1      32.627  17.103 -24.561  0.00  0.00    -0.130 NA
BRANCH   4   5
ATOM      5  C   UNL d   1      31.986  16.608 -24.420  0.00  0.00     0.227 A 
ATOM      6  S   UNL d   1      31.169  16.699 -24.564  0.00  0.00    -0.023 SA
ATOM      7  C   UNL d   1      30.791  15.996 -24.297  0.00  0.00     0.159 A 
ATOM      8  N   UNL d   1      31.364  15.499 -24.003  0.00  0.00    -0.137 NA
ATOM      9  N   UNL d   1      32.103  15.880 -24.080  0.00  0.00    -0.120 NA
BRANCH   7  10
ATOM     10  C   UNL d   1      29.971  15.845 -24.333  0.00  0.00     0.144 C 
BRANCH  10  11
ATOM     11  O   UNL d   1      29.470  16.157 -23.718  0.00  0.00    -0.324 OA
ATOM     12  C   UNL d   1      28.695  15.840 -23.590  0.00  0.00     0.182 C 
ENDBRANCH  10  11
ENDBRANCH   7  10
ENDBRANCH   4   5
ENDBRANCH   1   4
BRANCH   1  13
ATOM     13  C   UNL d   1      32.854  18.478 -23.594  0.00  0.00     0.105 A 
ATOM     14  C   UNL d   1      32.867  18.402 -22.801  0.00  0.00     0.015 A 
ATOM     15  C   UNL d   1      32.975  19.059 -22.314  0.00  0.00     0.024 A 
ATOM     16  C   UNL d   1      33.070  19.801 -22.660  0.00  0.00     0.127 A 
ATOM     17  C   UNL d   1      33.058  19.890 -23.486  0.00  0.00     0.024 A 
ATOM     18  C   UNL d   1      32.949  19.222 -23.938  0.00  0.00     0.015 A 
BRANCH  16  19
ATOM     19  N   UNL d   1      33.183  20.488 -22.177  0.00  0.00    -0.114 N 
ATOM     20  O   UNL d   1      33.235  20.413 -21.366  0.00  0.00    -0.532 OA
ATOM     21  O   UNL d   1      33.241  21.238 -22.518  0.00  0.00    -0.532 OA
ENDBRANCH  16  19
ENDBRANCH   1  13
TORSDOF 6
ENDMDL
MODEL 4
REMARK VINA RESULT:      -0.7      1.727      2.031
REMARK  6 active torsions:
REMARK  status: ('A' for Active; 'I' for Inactive)
REMARK    1  A    between atoms: N_3  and  S_1 
REMARK    2  A    between atoms: C_9  and  S_1 
REMARK    3  A    between atoms: C_2  and  N_3 
REMARK    4  A    between atoms: N_5  and  C_10 
REMARK    5  A    between atoms: C_19  and  C_8 
REMARK    6  A    between atoms: O_20  and  C_19 
ROOT
ATOM      1  S   UNL d   1      30.696  16.130 -24.460  0.00  0.00     0.287 S 
ATOM      2  O   UNL d   1      30.502  16.805 -24.924  0.00  0.00    -0.198 OA
ATOM      3  O   UNL d   1      30.897  15.455 -23.998  0.00  0.00    -0.198 OA
ENDROOT
BRANCH   1   4
ATOM      4  N   UNL d   1      31.492  16.174 -24.756  0.00  0.00    -0.130 NA
BRANCH   4   5
ATOM      5  C   UNL d   1      32.033  16.677 -24.396  0.00  0.00     0.227 A 
ATOM      6  S   UNL d   1      32.268  17.459 -24.569  0.00  0.00    -0.023 SA
ATOM      7  C   UNL d   1      32.846  17.677 -23.998  0.00  0.00     0.159 A 
ATOM      8  N   UNL d   1      32.954  17.045 -23.497  0.00  0.00    -0.137 NA
ATOM      9  N   UNL d   1      32.450  16.427 -23.746  0.00  0.00    -0.120 NA
BRANCH   7  10
ATOM     10  C   UNL d   1      33.234  18.414 -23.960  0.00  0.00     0.144 C 
BRANCH  10  11
ATOM     11  O   UNL d   1      32.897  19.077 -24.379  0.00  0.00    -0.324 OA
ATOM     12  C   UNL d   1      32.985  19.865 -24.082  0.00  0.00     0.182 C 
ENDBRANCH  10  11
ENDBRANCH   7  10
ENDBRANCH   4   5
ENDBRANCH   1   4
BRANCH   1  13
ATOM     13  C   UNL d   1      29.905  16.085 -24.165  0.00  0.00     0.105 A 
ATOM     14  C   UNL d   1      29.299  16.300 -24.634  0.00  0.00     0.015 A 
ATOM     15  C   UNL d   1      28.520  16.263 -24.364  0.00  0.00     0.024 A 
ATOM     16  C   UNL d   1      28.375  16.000 -23.597  0.00  0.00     0.127 A 
ATOM     17  C   UNL d   1      29.002  15.774 -23.100  0.00  0.00     0.024 A 
ATOM     18  C   UNL d   1      29.757  15.822 -23.396  0.00  0.00     0.015 A 
BRANCH  16  19
ATOM     19  N   UNL d   1      27.583  15.955 -23.302  0.00  0.00    -0.114 N 
ATOM     20  O   UNL d   1      27.425  16.141 -22.522  0.00  0.00    -0.532 OA
ATOM     21  O   UNL d   1      26.962  15.725 -23.795  0.00  0.00    -0.532 OA
ENDBRANCH  16  19
ENDBRANCH   1  13
TORSDOF 6
ENDMDL
MODEL 5
REMARK VINA RESULT:      -0.6      1.611      4.718
REMARK  6 active torsions:
REMARK  status: ('A' for Active; 'I' for Inactive)
REMARK    1  A    between atoms: N_3  and  S_1 
REMARK    2  A    between atoms: C_9  and  S_1 
REMARK    3  A    between atoms: C_2  and  N_3 
REMARK    4  A    between atoms: N_5  and  C_10 
REMARK    5  A    between atoms: C_19  and  C_8 
REMARK    6  A    between atoms: O_20  and  C_19 
ROOT
ATOM      1  S   UNL d   1      31.107  16.462 -24.263  0.00  0.00     0.287 S 
ATOM      2  O   UNL d   1      31.779  15.958 -24.209  0.00  0.00    -0.198 OA
ATOM      3  O   UNL d   1      30.429  16.960 -24.319  0.00  0.00    -0.198 OA
ENDROOT
BRANCH   1   4
ATOM      4  N   UNL d   1      30.637  15.788 -24.483  0.00  0.00    -0.130 NA
BRANCH   4   5
ATOM      5  C   UNL d   1      29.895  15.681 -24.147  0.00  0.00     0.227 A 
ATOM      6  S   UNL d   1      29.128  15.688 -24.476  0.00  0.00    -0.023 SA
ATOM      7  C   UNL d   1      28.587  15.543 -23.848  0.00  0.00     0.159 A 
ATOM      8  N   UNL d   1      29.017  15.453 -23.163  0.00  0.00    -0.137 NA
ATOM      9  N   UNL d   1      29.826  15.538 -23.352  0.00  0.00    -0.120 NA
BRANCH   7  10
ATOM     10  C   UNL d   1      27.758  15.502 -23.923  0.00  0.00     0.144 C 
BRANCH  10  11
ATOM     11  O   UNL d   1      27.273  15.804 -23.289  0.00  0.00    -0.324 OA
ATOM     12  C   UNL d   1      26.468  15.554 -23.205  0.00  0.00     0.182 C 
ENDBRANCH  10  11
ENDBRANCH   7  10
ENDBRANCH   4   5
ENDBRANCH   1   4
BRANCH   1  13
ATOM     13  C   UNL d   1      31.571  17.133 -24.044  0.00  0.00     0.105 A 
ATOM     14  C   UNL d   1      32.041  17.092 -23.403  0.00  0.00     0.015 A 
ATOM     15  C   UNL d   1      32.503  17.736 -23.173  0.00  0.00     0.024 A 
ATOM     16  C   UNL d   1      32.470  18.429 -23.617  0.00  0.00     0.127 A 
ATOM     17  C   UNL d   1      31.982  18.482 -24.288  0.00  0.00     0.024 A 
ATOM     18  C   UNL d   1      31.540  17.829 -24.487  0.00  0.00     0.015 A 
BRANCH  16  19
ATOM     19  N   UNL d   1      32.936  19.101 -23.397  0.00  0.00    -0.114 N 
ATOM     20  O   UNL d   1      33.234  19.598 -23.972  0.00  0.00    -0.532 OA
ATOM     21  O   UNL d   1      33.093  19.264 -22.603  0.00  0.00    -0.532 OA
ENDBRANCH  16  19
ENDBRANCH   1  13
TORSDOF 6
ENDMDL
