MODEL 1
REMARK VINA RESULT:      -7.1      0.000      0.000
REMARK  6 active torsions:
REMARK  status: ('A' for Active; 'I' for Inactive)
REMARK    1  A    between atoms: C_9  and  N_2 
REMARK    2  A    between atoms: O_11  and  C_7 
REMARK    3  A    between atoms: C_8  and  O_10 
REMARK    4  A    between atoms: C_12  and  C_9 
REMARK    5  A    between atoms: O_10  and  C_15 
REMARK    6  A    between atoms: C_15  and  C_12 
ROOT
ATOM      1  C   UNL d   1     -47.066  13.997  23.146  0.00  0.00     0.087 C 
ENDROOT
BRANCH   1   2
ATOM      2  N   UNL d   1     -46.450  13.475  22.975  0.00  0.00    -0.251 N 
ATOM      3  C   UNL d   1     -45.729  13.624  22.586  0.00  0.00     0.378 A 
ATOM      4  O   UNL d   1     -45.302  12.913  22.553  0.00  0.00    -0.258 OA
ATOM      5  O   UNL d   1     -45.492  14.353  22.290  0.00  0.00    -0.237 OA
ATOM      6  C   UNL d   1     -45.754  12.329  22.918  0.00  0.00     0.121 A 
ATOM      7  C   UNL d   1     -45.622  11.519  23.054  0.00  0.00     0.026 A 
ATOM      8  C   UNL d   1     -46.464  12.674  23.179  0.00  0.00     0.092 A 
ATOM      9  C   UNL d   1     -46.186  11.066  23.441  0.00  0.00     0.002 A 
ATOM     10  C   UNL d   1     -46.887  11.412  23.698  0.00  0.00     0.002 A 
ATOM     11  C   UNL d   1     -47.030  12.214  23.570  0.00  0.00     0.020 A 
ENDBRANCH   1   2
BRANCH   1  12
ATOM     12  C   UNL d   1     -47.598  14.206  22.562  0.00  0.00     0.046 C 
BRANCH  12  13
ATOM     13  C   UNL d   1     -48.241  14.689  22.745  0.00  0.00     0.124 C 
BRANCH  13  14
ATOM     14  O   UNL d   1     -48.962  14.581  22.358  0.00  0.00    -0.303 OA
BRANCH  14  15
ATOM     15  C   UNL d   1     -49.651  14.911  22.669  0.00  0.00     0.122 A 
ATOM     16  C   UNL d   1     -50.373  14.793  22.288  0.00  0.00     0.117 A 
ATOM     17  C   UNL d   1     -51.064  15.120  22.595  0.00  0.00     0.026 A 
ATOM     18  C   UNL d   1     -51.030  15.570  23.292  0.00  0.00     0.002 A 
ATOM     19  C   UNL d   1     -50.312  15.690  23.674  0.00  0.00     0.002 A 
ATOM     20  C   UNL d   1     -49.623  15.361  23.363  0.00  0.00     0.027 A 
BRANCH  16  21
ATOM     21  O   UNL d   1     -50.402  14.342  21.594  0.00  0.00    -0.326 OA
ATOM     22  C   UNL d   1     -51.064  13.871  21.440  0.00  0.00     0.181 C 
ENDBRANCH  16  21
ENDBRANCH  14  15
ENDBRANCH  13  14
ENDBRANCH  12  13
ENDBRANCH   1  12
TORSDOF 6
ENDMDL
MODEL 2
REMARK VINA RESULT:      -6.3      1.075      4.751
REMARK  6 active torsions:
REMARK  status: ('A' for Active; 'I' for Inactive)
REMARK    1  A    between atoms: C_9  and  N_2 
REMARK    2  A    between atoms: O_11  and  C_7 
REMARK    3  A    between atoms: C_8  and  O_10 
REMARK    4  A    between atoms: C_12  and  C_9 
REMARK    5  A    between atoms: O_10  and  C_15 
REMARK    6  A    between atoms: C_15  and  C_12 
ROOT
ATOM      1  C   UNL d   1     -48.619  14.136  23.218  0.00  0.00     0.087 C 
ENDROOT
BRANCH   1   2
ATOM      2  N   UNL d   1     -49.231  14.458  22.769  0.00  0.00    -0.251 N 
ATOM      3  C   UNL d   1     -49.404  15.257  22.614  0.00  0.00     0.378 A 
ATOM      4  O   UNL d   1     -50.079  15.286  22.132  0.00  0.00    -0.258 OA
ATOM      5  O   UNL d   1     -48.974  15.898  22.896  0.00  0.00    -0.237 OA
ATOM      6  C   UNL d   1     -50.323  14.512  21.989  0.00  0.00     0.121 A 
ATOM      7  C   UNL d   1     -50.954  14.194  21.551  0.00  0.00     0.026 A 
ATOM      8  C   UNL d   1     -49.800  13.999  22.381  0.00  0.00     0.092 A 
ATOM      9  C   UNL d   1     -51.060  13.382  21.508  0.00  0.00     0.002 A 
ATOM     10  C   UNL d   1     -50.540  12.877  21.898  0.00  0.00     0.002 A 
ATOM     11  C   UNL d   1     -49.910  13.180  22.335  0.00  0.00     0.020 A 
ENDBRANCH   1   2
BRANCH   1  12
ATOM     12  C   UNL d   1     -47.886  14.013  22.879  0.00  0.00     0.046 C 
BRANCH  12  13
ATOM     13  C   UNL d   1     -47.371  13.457  23.203  0.00  0.00     0.124 C 
BRANCH  13  14
ATOM     14  O   UNL d   1     -46.635  13.320  22.853  0.00  0.00    -0.303 OA
BRANCH  14  15
ATOM     15  C   UNL d   1     -46.217  12.631  23.025  0.00  0.00     0.122 A 
ATOM     16  C   UNL d   1     -45.464  12.515  22.708  0.00  0.00     0.117 A 
ATOM     17  C   UNL d   1     -45.043  11.828  22.877  0.00  0.00     0.026 A 
ATOM     18  C   UNL d   1     -45.380  11.251  23.370  0.00  0.00     0.002 A 
ATOM     19  C   UNL d   1     -46.130  11.363  23.687  0.00  0.00     0.002 A 
ATOM     20  C   UNL d   1     -46.548  12.052  23.515  0.00  0.00     0.027 A 
BRANCH  16  21
ATOM     21  O   UNL d   1     -45.132  13.094  22.218  0.00  0.00    -0.326 OA
ATOM     22  C   UNL d   1     -44.443  12.923  21.793  0.00  0.00     0.181 C 
ENDBRANCH  16  21
ENDBRANCH  14  15
ENDBRANCH  13  14
ENDBRANCH  12  13
ENDBRANCH   1  12
TORSDOF 6
ENDMDL
MODEL 3
REMARK VINA RESULT:      -5.9      1.864      5.263
REMARK  6 active torsions:
REMARK  status: ('A' for Active; 'I' for Inactive)
REMARK    1  A    between atoms: C_9  and  N_2 
REMARK    2  A    between atoms: O_11  and  C_7 
REMARK    3  A    between atoms: C_8  and  O_10 
REMARK    4  A    between atoms: C_12  and  C_9 
REMARK    5  A    between atoms: O_10  and  C_15 
REMARK    6  A    between atoms: C_15  and  C_12 
ROOT
ATOM      1  C   UNL d   1     -48.312  11.728  22.733  0.00  0.00     0.087 C 
ENDROOT
BRANCH   1   2
ATOM      2  N   UNL d   1     -49.100  11.969  22.771  0.00  0.00    -0.251 N 
ATOM      3  C   UNL d   1     -49.728  11.638  23.206  0.00  0.00     0.378 A 
ATOM      4  O   UNL d   1     -50.411  12.086  23.053  0.00  0.00    -0.258 OA
ATOM      5  O   UNL d   1     -49.671  10.982  23.698  0.00  0.00    -0.237 OA
ATOM      6  C   UNL d   1     -50.207  12.688  22.529  0.00  0.00     0.121 A 
ATOM      7  C   UNL d   1     -50.648  13.301  22.179  0.00  0.00     0.026 A 
ATOM      8  C   UNL d   1     -49.398  12.617  22.353  0.00  0.00     0.092 A 
ATOM      9  C   UNL d   1     -50.286  13.830  21.666  0.00  0.00     0.002 A 
ATOM     10  C   UNL d   1     -49.485  13.756  21.495  0.00  0.00     0.002 A 
ATOM     11  C   UNL d   1     -49.038  13.153  21.836  0.00  0.00     0.020 A 
ENDBRANCH   1   2
BRANCH   1  12
ATOM     12  C   UNL d   1     -47.852  11.729  23.408  0.00  0.00     0.046 C 
BRANCH  12  13
ATOM     13  C   UNL d   1     -47.119  11.352  23.408  0.00  0.00     0.124 C 
BRANCH  13  14
ATOM     14  O   UNL d   1     -46.429  11.789  23.283  0.00  0.00    -0.303 OA
BRANCH  14  15
ATOM     15  C   UNL d   1     -45.694  11.416  23.305  0.00  0.00     0.122 A 
ATOM     16  C   UNL d   1     -45.039  11.776  22.954  0.00  0.00     0.117 A 
ATOM     17  C   UNL d   1     -44.303  11.407  22.973  0.00  0.00     0.026 A 
ATOM     18  C   UNL d   1     -44.223  10.670  23.348  0.00  0.00     0.002 A 
ATOM     19  C   UNL d   1     -44.873  10.310  23.698  0.00  0.00     0.002 A 
ATOM     20  C   UNL d   1     -45.608  10.683  23.676  0.00  0.00     0.027 A 
BRANCH  16  21
ATOM     21  O   UNL d   1     -45.124  12.510  22.581  0.00  0.00    -0.326 OA
ATOM     22  C   UNL d   1     -44.567  12.750  22.019  0.00  0.00     0.181 C 
ENDBRANCH  16  21
ENDBRANCH  14  15
ENDBRANCH  13  14
ENDBRANCH  12  13
ENDBRANCH   1  12
TORSDOF 6
ENDMDL
MODEL 4
REMARK VINA RESULT:      -5.7      1.829      4.735
REMARK  6 active torsions:
REMARK  status: ('A' for Active; 'I' for Inactive)
REMARK    1  A    between atoms: C_9  and  N_2 
REMARK    2  A    between atoms: O_11  and  C_7 
REMARK    3  A    between atoms: C_8  and  O_10 
REMARK    4  A    between atoms: C_12  and  C_9 
REMARK    5  A    between atoms: O_10  and  C_15 
REMARK    6  A    between atoms: C_15  and  C_12 
ROOT
ATOM      1  C   UNL d   1     -48.587  11.807  22.587  0.00  0.00     0.087 C 
ENDROOT
BRANCH   1   2
ATOM      2  N   UNL d   1     -49.385  11.998  22.665  0.00  0.00    -0.251 N 
ATOM      3  C   UNL d   1     -49.958  11.661  23.167  0.00  0.00     0.378 A 
ATOM      4  O   UNL d   1     -50.679  12.050  23.033  0.00  0.00    -0.258 OA
ATOM      5  O   UNL d   1     -49.822  11.048  23.698  0.00  0.00    -0.237 OA
ATOM      6  C   UNL d   1     -50.554  12.623  22.454  0.00  0.00     0.121 A 
ATOM      7  C   UNL d   1     -51.059  13.178  22.096  0.00  0.00     0.026 A 
ATOM      8  C   UNL d   1     -49.756  12.593  22.226  0.00  0.00     0.092 A 
ATOM      9  C   UNL d   1     -50.772  13.690  21.522  0.00  0.00     0.002 A 
ATOM     10  C   UNL d   1     -49.980  13.656  21.299  0.00  0.00     0.002 A 
ATOM     11  C   UNL d   1     -49.470  13.110  21.647  0.00  0.00     0.020 A 
ENDBRANCH   1   2
BRANCH   1  12
ATOM     12  C   UNL d   1     -48.063  11.993  23.186  0.00  0.00     0.046 C 
BRANCH  12  13
ATOM     13  C   UNL d   1     -47.251  11.982  23.041  0.00  0.00     0.124 C 
BRANCH  13  14
ATOM     14  O   UNL d   1     -46.780  12.619  23.273  0.00  0.00    -0.303 OA
BRANCH  14  15
ATOM     15  C   UNL d   1     -46.076  12.779  22.875  0.00  0.00     0.122 A 
ATOM     16  C   UNL d   1     -45.899  13.552  22.644  0.00  0.00     0.117 A 
ATOM     17  C   UNL d   1     -45.197  13.716  22.247  0.00  0.00     0.026 A 
ATOM     18  C   UNL d   1     -44.666  13.100  22.079  0.00  0.00     0.002 A 
ATOM     19  C   UNL d   1     -44.839  12.330  22.307  0.00  0.00     0.002 A 
ATOM     20  C   UNL d   1     -45.544  12.170  22.705  0.00  0.00     0.027 A 
BRANCH  16  21
ATOM     21  O   UNL d   1     -46.431  14.163  22.814  0.00  0.00    -0.326 OA
ATOM     22  C   UNL d   1     -46.225  14.945  22.640  0.00  0.00     0.181 C 
ENDBRANCH  16  21
ENDBRANCH  14  15
ENDBRANCH  13  14
ENDBRANCH  12  13
ENDBRANCH   1  12
TORSDOF 6
ENDMDL
MODEL 5
REMARK VINA RESULT:      -5.3      1.846      2.601
REMARK  6 active torsions:
REMARK  status: ('A' for Active; 'I' for Inactive)
REMARK    1  A    between atoms: C_9  and  N_2 
REMARK    2  A    between atoms: O_11  and  C_7 
REMARK    3  A    between atoms: C_8  and  O_10 
REMARK    4  A    between atoms: C_12  and  C_9 
REMARK    5  A    between atoms: O_10  and  C_15 
REMARK    6  A    between atoms: C_15  and  C_12 
ROOT
ATOM      1  C   UNL d   1     -46.846  11.973  23.587  0.00  0.00     0.087 C 
ENDROOT
BRANCH   1   2
ATOM      2  N   UNL d   1     -46.198  12.326  23.218  0.00  0.00    -0.251 N 
ATOM      3  C   UNL d   1     -45.466  11.989  23.008  0.00  0.00     0.378 A 
ATOM      4  O   UNL d   1     -45.004  12.579  22.650  0.00  0.00    -0.258 OA
ATOM      5  O   UNL d   1     -45.250  11.207  23.138  0.00  0.00    -0.237 OA
ATOM      6  C   UNL d   1     -45.445  13.275  22.639  0.00  0.00     0.121 A 
ATOM      7  C   UNL d   1     -45.281  14.039  22.355  0.00  0.00     0.026 A 
ATOM      8  C   UNL d   1     -46.183  13.121  22.989  0.00  0.00     0.092 A 
ATOM      9  C   UNL d   1     -45.841  14.635  22.422  0.00  0.00     0.002 A 
ATOM     10  C   UNL d   1     -46.570  14.478  22.769  0.00  0.00     0.002 A 
ATOM     11  C   UNL d   1     -46.745  13.724  23.054  0.00  0.00     0.020 A 
ENDBRANCH   1   2
BRANCH   1  12
ATOM     12  C   UNL d   1     -47.376  11.534  23.147  0.00  0.00     0.046 C 
BRANCH  12  13
ATOM     13  C   UNL d   1     -48.185  11.596  23.296  0.00  0.00     0.124 C 
BRANCH  13  14
ATOM     14  O   UNL d   1     -48.718  11.657  22.668  0.00  0.00    -0.303 OA
BRANCH  14  15
ATOM     15  C   UNL d   1     -49.499  11.878  22.810  0.00  0.00     0.122 A 
ATOM     16  C   UNL d   1     -49.933  12.259  22.221  0.00  0.00     0.117 A 
ATOM     17  C   UNL d   1     -50.714  12.481  22.358  0.00  0.00     0.026 A 
ATOM     18  C   UNL d   1     -51.064  12.320  23.094  0.00  0.00     0.002 A 
ATOM     19  C   UNL d   1     -50.635  11.941  23.683  0.00  0.00     0.002 A 
ATOM     20  C   UNL d   1     -49.853  11.720  23.541  0.00  0.00     0.027 A 
BRANCH  16  21
ATOM     21  O   UNL d   1     -49.581  12.417  21.489  0.00  0.00    -0.326 OA
ATOM     22  C   UNL d   1     -49.759  13.121  21.093  0.00  0.00     0.181 C 
ENDBRANCH  16  21
ENDBRANCH  14  15
ENDBRANCH  13  14
ENDBRANCH  12  13
ENDBRANCH   1  12
TORSDOF 6
ENDMDL
