MODEL 1
REMARK VINA RESULT:      28.3      0.000      0.000
REMARK  3 active torsions:
REMARK  status: ('A' for Active; 'I' for Inactive)
REMARK       I    between atoms: C_4  and  N_1 
REMARK    1  A    between atoms: C_7  and  C_3 
REMARK    2  A    between atoms: C_9  and  C_4 
REMARK    3  A    between atoms: C_8  and  C_5 
ROOT
ATOM      1  N   UNL d   1      46.033 -18.012  43.136  0.00  0.00    -0.191 N 
ATOM      2  N   UNL d   1      45.897 -17.207  43.159  0.00  0.00    -0.163 NA
ATOM      3  C   UNL d   1      46.103 -18.264  43.938  0.00  0.00     0.110 A 
ATOM      4  C   UNL d   1      46.092 -18.482  42.480  0.00  0.00     0.303 C 
ATOM      5  C   UNL d   1      45.880 -16.953  43.944  0.00  0.00     0.103 A 
ATOM      6  C   UNL d   1      46.005 -17.597  44.417  0.00  0.00     0.042 A 
ATOM      7  O   UNL d   1      46.240 -19.332  42.585  0.00  0.00    -0.263 OA
ENDROOT
BRANCH   3   8
ATOM      8  C   UNL d   1      46.243 -19.037  44.191  0.00  0.00     0.118 A 
ATOM      9  O   UNL d   1      46.049 -19.334  44.922  0.00  0.00    -0.304 OA
ATOM     10  C   UNL d   1      46.287 -20.136  44.947  0.00  0.00     0.123 A 
ATOM     11  C   UNL d   1      46.627 -20.314  44.217  0.00  0.00     0.029 A 
ATOM     12  C   UNL d   1      46.594 -19.619  43.752  0.00  0.00     0.028 A 
ENDBRANCH   3   8
BRANCH   4  13
ATOM     13  C   UNL d   1      46.017 -18.188  41.722  0.00  0.00     0.158 A 
ATOM     14  O   UNL d   1      46.626 -17.972  41.214  0.00  0.00    -0.300 OA
ATOM     15  C   UNL d   1      46.306 -17.705  40.509  0.00  0.00     0.123 A 
ATOM     16  C   UNL d   1      45.488 -17.753  40.572  0.00  0.00     0.029 A 
ATOM     17  C   UNL d   1      45.302 -18.051  41.323  0.00  0.00     0.032 A 
ENDBRANCH   4  13
BRANCH   5  18
ATOM     18  C   UNL d   1      45.754 -16.163  44.179  0.00  0.00     0.019 A 
ATOM     19  C   UNL d   1      46.389 -15.679  44.229  0.00  0.00     0.002 A 
ATOM     20  C   UNL d   1      46.300 -14.892  44.459  0.00  0.00     0.007 A 
ATOM     21  C   UNL d   1      45.555 -14.609  44.634  0.00  0.00     0.035 A 
ATOM     22  C   UNL d   1      44.882 -15.098  44.587  0.00  0.00     0.007 A 
ATOM     23 BR   UNL d   1      45.473 -13.821  44.863  0.00  0.00    -0.049 Br
ATOM     24  C   UNL d   1      44.994 -15.904  44.350  0.00  0.00     0.002 A 
ENDBRANCH   5  18
TORSDOF 3
ENDMDL
MODEL 2
REMARK VINA RESULT:      29.4      0.817      2.659
REMARK  3 active torsions:
REMARK  status: ('A' for Active; 'I' for Inactive)
REMARK       I    between atoms: C_4  and  N_1 
REMARK    1  A    between atoms: C_7  and  C_3 
REMARK    2  A    between atoms: C_9  and  C_4 
REMARK    3  A    between atoms: C_8  and  C_5 
ROOT
ATOM      1  N   UNL d   1      46.114 -18.480  42.963  0.00  0.00    -0.191 N 
ATOM      2  N   UNL d   1      45.960 -17.942  43.558  0.00  0.00    -0.163 NA
ATOM      3  C   UNL d   1      46.211 -18.030  42.256  0.00  0.00     0.110 A 
ATOM      4  C   UNL d   1      46.166 -19.285  43.029  0.00  0.00     0.303 C 
ATOM      5  C   UNL d   1      45.957 -17.178  43.246  0.00  0.00     0.103 A 
ATOM      6  C   UNL d   1      46.110 -17.233  42.453  0.00  0.00     0.042 A 
ATOM      7  O   UNL d   1      46.337 -19.753  42.318  0.00  0.00    -0.263 OA
ENDROOT
BRANCH   3   8
ATOM      8  C   UNL d   1      46.376 -18.335  41.508  0.00  0.00     0.118 A 
ATOM      9  O   UNL d   1      46.446 -17.898  40.826  0.00  0.00    -0.304 OA
ATOM     10  C   UNL d   1      46.615 -18.424  40.198  0.00  0.00     0.123 A 
ATOM     11  C   UNL d   1      46.645 -19.185  40.515  0.00  0.00     0.029 A 
ATOM     12  C   UNL d   1      46.494 -19.117  41.335  0.00  0.00     0.028 A 
ENDBRANCH   3   8
BRANCH   4  13
ATOM     13  C   UNL d   1      46.064 -19.674  43.740  0.00  0.00     0.158 A 
ATOM     14  O   UNL d   1      46.641 -19.831  44.303  0.00  0.00    -0.300 OA
ATOM     15  C   UNL d   1      46.301 -20.232  44.931  0.00  0.00     0.123 A 
ATOM     16  C   UNL d   1      45.503 -20.328  44.762  0.00  0.00     0.029 A 
ATOM     17  C   UNL d   1      45.349 -19.984  44.024  0.00  0.00     0.032 A 
ENDBRANCH   4  13
BRANCH   5  18
ATOM     18  C   UNL d   1      45.818 -16.489  43.693  0.00  0.00     0.019 A 
ATOM     19  C   UNL d   1      45.635 -15.815  43.301  0.00  0.00     0.002 A 
ATOM     20  C   UNL d   1      45.491 -15.115  43.712  0.00  0.00     0.007 A 
ATOM     21  C   UNL d   1      45.537 -15.114  44.526  0.00  0.00     0.035 A 
ATOM     22  C   UNL d   1      45.727 -15.805  44.952  0.00  0.00     0.007 A 
ATOM     23 BR   UNL d   1      45.393 -14.411  44.932  0.00  0.00    -0.049 Br
ATOM     24  C   UNL d   1      45.871 -16.515  44.511  0.00  0.00     0.002 A 
ENDBRANCH   5  18
TORSDOF 3
ENDMDL
