MODEL 1
REMARK VINA RESULT:      -3.5      0.000      0.000
REMARK  1 active torsions:
REMARK  status: ('A' for Active; 'I' for Inactive)
REMARK    1  A    between atoms: C_6  and  C_1 
ROOT
ATOM      1  C   UNL d   1      32.717  22.872 -19.082  0.00  0.00     0.162 A 
ATOM      2  N   UNL d   1      32.369  23.452 -19.559  0.00  0.00    -0.225 NA
ATOM      3  N   UNL d   1      32.951  22.253 -19.552  0.00  0.00    -0.225 NA
ATOM      4  C   UNL d   1      32.387  23.190 -20.344  0.00  0.00     0.101 A 
ATOM      5  C   UNL d   1      32.745  22.454 -20.334  0.00  0.00     0.101 A 
ATOM      6  C   UNL d   1      32.127  23.524 -21.051  0.00  0.00     0.021 A 
ATOM      7  C   UNL d   1      32.850  22.033 -21.043  0.00  0.00     0.021 A 
ATOM      8  C   UNL d   1      32.222  23.120 -21.773  0.00  0.00     0.002 A 
ATOM      9  C   UNL d   1      32.584  22.370 -21.783  0.00  0.00     0.002 A 
ENDROOT
BRANCH   1  10
ATOM     10  C   UNL d   1      32.786  22.956 -18.294  0.00  0.00     0.036 A 
ATOM     11  C   UNL d   1      33.164  22.368 -17.848  0.00  0.00     0.005 A 
ATOM     12  C   UNL d   1      33.241  22.446 -17.031  0.00  0.00     0.030 A 
ATOM     13  C   UNL d   1      32.940  23.112 -16.651  0.00  0.00     0.140 A 
ATOM     14  C   UNL d   1      32.563  23.700 -17.091  0.00  0.00     0.030 A 
ATOM     15  F   UNL d   1      33.025  23.179 -15.819  0.00  0.00    -0.204 F 
ATOM     16  C   UNL d   1      32.483  23.631 -17.901  0.00  0.00     0.005 A 
ENDBRANCH   1  10
TORSDOF 1
ENDMDL
MODEL 2
REMARK VINA RESULT:      -3.2      3.076      4.359
REMARK  1 active torsions:
REMARK  status: ('A' for Active; 'I' for Inactive)
REMARK    1  A    between atoms: C_6  and  C_1 
ROOT
ATOM      1  C   UNL d   1      32.953  20.388 -22.106  0.00  0.00     0.162 A 
ATOM      2  N   UNL d   1      32.959  20.356 -22.934  0.00  0.00    -0.225 NA
ATOM      3  N   UNL d   1      33.039  19.634 -21.816  0.00  0.00    -0.225 NA
ATOM      4  C   UNL d   1      33.050  19.566 -23.165  0.00  0.00     0.101 A 
ATOM      5  C   UNL d   1      33.099  19.128 -22.475  0.00  0.00     0.101 A 
ATOM      6  C   UNL d   1      33.094  19.201 -23.901  0.00  0.00     0.021 A 
ATOM      7  C   UNL d   1      33.194  18.303 -22.513  0.00  0.00     0.021 A 
ATOM      8  C   UNL d   1      33.189  18.375 -23.963  0.00  0.00     0.002 A 
ATOM      9  C   UNL d   1      33.241  17.913 -23.272  0.00  0.00     0.002 A 
ENDROOT
BRANCH   1  10
ATOM     10  C   UNL d   1      32.874  21.071 -21.708  0.00  0.00     0.036 A 
ATOM     11  C   UNL d   1      32.424  21.094 -21.013  0.00  0.00     0.005 A 
ATOM     12  C   UNL d   1      32.335  21.798 -20.593  0.00  0.00     0.030 A 
ATOM     13  C   UNL d   1      32.696  22.487 -20.864  0.00  0.00     0.140 A 
ATOM     14  C   UNL d   1      33.146  22.469 -21.556  0.00  0.00     0.030 A 
ATOM     15  F   UNL d   1      32.599  23.196 -20.428  0.00  0.00    -0.204 F 
ATOM     16  C   UNL d   1      33.238  21.776 -21.978  0.00  0.00     0.005 A 
ENDBRANCH   1  10
TORSDOF 1
ENDMDL
MODEL 3
REMARK VINA RESULT:      -3.1      3.448      5.145
REMARK  1 active torsions:
REMARK  status: ('A' for Active; 'I' for Inactive)
REMARK    1  A    between atoms: C_6  and  C_1 
ROOT
ATOM      1  C   UNL d   1      32.913  20.485 -22.092  0.00  0.00     0.162 A 
ATOM      2  N   UNL d   1      33.241  21.191 -22.373  0.00  0.00    -0.225 NA
ATOM      3  N   UNL d   1      32.525  20.636 -21.395  0.00  0.00    -0.225 NA
ATOM      4  C   UNL d   1      33.054  21.797 -21.841  0.00  0.00     0.101 A 
ATOM      5  C   UNL d   1      32.614  21.451 -21.243  0.00  0.00     0.101 A 
ATOM      6  C   UNL d   1      33.225  22.602 -21.828  0.00  0.00     0.021 A 
ATOM      7  C   UNL d   1      32.335  21.914 -20.611  0.00  0.00     0.021 A 
ATOM      8  C   UNL d   1      32.955  23.085 -21.205  0.00  0.00     0.002 A 
ATOM      9  C   UNL d   1      32.507  22.751 -20.587  0.00  0.00     0.002 A 
ENDROOT
BRANCH   1  10
ATOM     10  C   UNL d   1      32.994  19.795 -22.479  0.00  0.00     0.036 A 
ATOM     11  C   UNL d   1      32.913  19.772 -23.304  0.00  0.00     0.005 A 
ATOM     12  C   UNL d   1      32.995  19.062 -23.714  0.00  0.00     0.030 A 
ATOM     13  C   UNL d   1      33.159  18.367 -23.304  0.00  0.00     0.140 A 
ATOM     14  C   UNL d   1      33.241  18.384 -22.483  0.00  0.00     0.030 A 
ATOM     15  F   UNL d   1      33.240  17.650 -23.733  0.00  0.00    -0.204 F 
ATOM     16  C   UNL d   1      33.161  19.084 -22.069  0.00  0.00     0.005 A 
ENDBRANCH   1  10
TORSDOF 1
ENDMDL
MODEL 4
REMARK VINA RESULT:      -3.1      3.943      5.697
REMARK  1 active torsions:
REMARK  status: ('A' for Active; 'I' for Inactive)
REMARK    1  A    between atoms: C_6  and  C_1 
ROOT
ATOM      1  C   UNL d   1      33.039  19.890 -22.466  0.00  0.00     0.162 A 
ATOM      2  N   UNL d   1      32.814  19.952 -21.672  0.00  0.00    -0.225 NA
ATOM      3  N   UNL d   1      33.233  20.629 -22.742  0.00  0.00    -0.225 NA
ATOM      4  C   UNL d   1      32.869  20.747 -21.446  0.00  0.00     0.101 A 
ATOM      5  C   UNL d   1      33.127  21.157 -22.106  0.00  0.00     0.101 A 
ATOM      6  C   UNL d   1      32.720  21.138 -20.737  0.00  0.00     0.021 A 
ATOM      7  C   UNL d   1      33.241  21.979 -22.066  0.00  0.00     0.021 A 
ATOM      8  C   UNL d   1      32.828  21.962 -20.674  0.00  0.00     0.002 A 
ATOM      9  C   UNL d   1      33.089  22.396 -21.335  0.00  0.00     0.002 A 
ENDROOT
BRANCH   1  10
ATOM     10  C   UNL d   1      33.047  19.195 -22.852  0.00  0.00     0.036 A 
ATOM     11  C   UNL d   1      32.863  19.169 -23.660  0.00  0.00     0.005 A 
ATOM     12  C   UNL d   1      32.868  18.453 -24.069  0.00  0.00     0.030 A 
ATOM     13  C   UNL d   1      33.057  17.755 -23.674  0.00  0.00     0.140 A 
ATOM     14  C   UNL d   1      33.240  17.776 -22.869  0.00  0.00     0.030 A 
ATOM     15  F   UNL d   1      33.058  17.033 -24.101  0.00  0.00    -0.204 F 
ATOM     16  C   UNL d   1      33.238  18.481 -22.457  0.00  0.00     0.005 A 
ENDBRANCH   1  10
TORSDOF 1
ENDMDL
MODEL 5
REMARK VINA RESULT:      -3.0      3.150      4.497
REMARK  1 active torsions:
REMARK  status: ('A' for Active; 'I' for Inactive)
REMARK    1  A    between atoms: C_6  and  C_1 
ROOT
ATOM      1  C   UNL d   1      32.966  20.330 -22.207  0.00  0.00     0.162 A 
ATOM      2  N   UNL d   1      33.089  19.586 -21.866  0.00  0.00    -0.225 NA
ATOM      3  N   UNL d   1      32.920  20.244 -23.013  0.00  0.00    -0.225 NA
ATOM      4  C   UNL d   1      33.121  19.022 -22.471  0.00  0.00     0.101 A 
ATOM      5  C   UNL d   1      33.017  19.431 -23.173  0.00  0.00     0.101 A 
ATOM      6  C   UNL d   1      33.229  18.207 -22.470  0.00  0.00     0.021 A 
ATOM      7  C   UNL d   1      33.019  19.022 -23.896  0.00  0.00     0.021 A 
ATOM      8  C   UNL d   1      33.236  17.776 -23.183  0.00  0.00     0.002 A 
ATOM      9  C   UNL d   1      33.131  18.174 -23.907  0.00  0.00     0.002 A 
ENDROOT
BRANCH   1  10
ATOM     10  C   UNL d   1      32.909  20.993 -21.772  0.00  0.00     0.036 A 
ATOM     11  C   UNL d   1      33.221  21.705 -22.060  0.00  0.00     0.005 A 
ATOM     12  C   UNL d   1      33.167  22.397 -21.617  0.00  0.00     0.030 A 
ATOM     13  C   UNL d   1      32.800  22.386 -20.879  0.00  0.00     0.140 A 
ATOM     14  C   UNL d   1      32.488  21.679 -20.587  0.00  0.00     0.030 A 
ATOM     15  F   UNL d   1      32.751  23.097 -20.437  0.00  0.00    -0.204 F 
ATOM     16  C   UNL d   1      32.538  20.989 -21.021  0.00  0.00     0.005 A 
ENDBRANCH   1  10
TORSDOF 1
ENDMDL
MODEL 6
REMARK VINA RESULT:      -3.0      7.632      8.564
REMARK  1 active torsions:
REMARK  status: ('A' for Active; 'I' for Inactive)
REMARK    1  A    between atoms: C_6  and  C_1 
ROOT
ATOM      1  C   UNL d   1      30.497  16.959 -24.128  0.00  0.00     0.162 A 
ATOM      2  N   UNL d   1      31.136  16.898 -23.606  0.00  0.00    -0.225 NA
ATOM      3  N   UNL d   1      30.722  17.411 -24.765  0.00  0.00    -0.225 NA
ATOM      4  C   UNL d   1      31.774  17.320 -23.922  0.00  0.00     0.101 A 
ATOM      5  C   UNL d   1      31.515  17.633 -24.633  0.00  0.00     0.101 A 
ATOM      6  C   UNL d   1      32.542  17.455 -23.657  0.00  0.00     0.021 A 
ATOM      7  C   UNL d   1      32.028  18.093 -25.097  0.00  0.00     0.021 A 
ATOM      8  C   UNL d   1      33.074  17.914 -24.106  0.00  0.00     0.002 A 
ATOM      9  C   UNL d   1      32.828  18.240 -24.831  0.00  0.00     0.002 A 
ENDROOT
BRANCH   1  10
ATOM     10  C   UNL d   1      29.796  16.613 -23.984  0.00  0.00     0.036 A 
ATOM     11  C   UNL d   1      29.098  17.058 -24.029  0.00  0.00     0.005 A 
ATOM     12  C   UNL d   1      28.367  16.708 -23.881  0.00  0.00     0.030 A 
ATOM     13  C   UNL d   1      28.325  15.909 -23.687  0.00  0.00     0.140 A 
ATOM     14  C   UNL d   1      29.017  15.461 -23.641  0.00  0.00     0.030 A 
ATOM     15  F   UNL d   1      27.575  15.564 -23.539  0.00  0.00    -0.204 F 
ATOM     16  C   UNL d   1      29.746  15.800 -23.786  0.00  0.00     0.005 A 
ENDBRANCH   1  10
TORSDOF 1
ENDMDL
MODEL 7
REMARK VINA RESULT:      -2.9      1.879      3.859
REMARK  1 active torsions:
REMARK  status: ('A' for Active; 'I' for Inactive)
REMARK    1  A    between atoms: C_6  and  C_1 
ROOT
ATOM      1  C   UNL d   1      32.664  22.939 -19.855  0.00  0.00     0.162 A 
ATOM      2  N   UNL d   1      32.227  23.474 -19.398  0.00  0.00    -0.225 NA
ATOM      3  N   UNL d   1      33.110  22.476 -19.358  0.00  0.00    -0.225 NA
ATOM      4  C   UNL d   1      32.404  23.343 -18.600  0.00  0.00     0.101 A 
ATOM      5  C   UNL d   1      32.946  22.729 -18.581  0.00  0.00     0.101 A 
ATOM      6  C   UNL d   1      32.144  23.698 -17.905  0.00  0.00     0.021 A 
ATOM      7  C   UNL d   1      33.241  22.458 -17.853  0.00  0.00     0.021 A 
ATOM      8  C   UNL d   1      32.426  23.442 -17.164  0.00  0.00     0.002 A 
ATOM      9  C   UNL d   1      32.978  22.819 -17.125  0.00  0.00     0.002 A 
ENDROOT
BRANCH   1  10
ATOM     10  C   UNL d   1      32.619  22.921 -20.648  0.00  0.00     0.036 A 
ATOM     11  C   UNL d   1      32.299  23.566 -21.058  0.00  0.00     0.005 A 
ATOM     12  C   UNL d   1      32.248  23.557 -21.880  0.00  0.00     0.030 A 
ATOM     13  C   UNL d   1      32.517  22.903 -22.302  0.00  0.00     0.140 A 
ATOM     14  C   UNL d   1      32.837  22.257 -21.898  0.00  0.00     0.030 A 
ATOM     15  F   UNL d   1      32.459  22.905 -23.139  0.00  0.00    -0.204 F 
ATOM     16  C   UNL d   1      32.891  22.258 -21.084  0.00  0.00     0.005 A 
ENDBRANCH   1  10
TORSDOF 1
ENDMDL
MODEL 8
REMARK VINA RESULT:      -2.8      7.859      8.629
REMARK  1 active torsions:
REMARK  status: ('A' for Active; 'I' for Inactive)
REMARK    1  A    between atoms: C_6  and  C_1 
ROOT
ATOM      1  C   UNL d   1      30.461  16.890 -24.091  0.00  0.00     0.162 A 
ATOM      2  N   UNL d   1      29.707  17.131 -24.336  0.00  0.00    -0.225 NA
ATOM      3  N   UNL d   1      30.382  16.246 -23.602  0.00  0.00    -0.225 NA
ATOM      4  C   UNL d   1      29.147  16.628 -23.994  0.00  0.00     0.101 A 
ATOM      5  C   UNL d   1      29.566  16.086 -23.544  0.00  0.00     0.101 A 
ATOM      6  C   UNL d   1      28.325  16.596 -24.035  0.00  0.00     0.021 A 
ATOM      7  C   UNL d   1      29.162  15.495 -23.122  0.00  0.00     0.021 A 
ATOM      8  C   UNL d   1      27.900  16.012 -23.620  0.00  0.00     0.002 A 
ATOM      9  C   UNL d   1      28.309  15.453 -23.157  0.00  0.00     0.002 A 
ENDROOT
BRANCH   1  10
ATOM     10  C   UNL d   1      31.123  17.262 -24.325  0.00  0.00     0.036 A 
ATOM     11  C   UNL d   1      31.859  17.020 -24.030  0.00  0.00     0.005 A 
ATOM     12  C   UNL d   1      32.551  17.400 -24.266  0.00  0.00     0.030 A 
ATOM     13  C   UNL d   1      32.515  18.026 -24.800  0.00  0.00     0.140 A 
ATOM     14  C   UNL d   1      31.784  18.271 -25.097  0.00  0.00     0.030 A 
ATOM     15  F   UNL d   1      33.227  18.404 -25.033  0.00  0.00    -0.204 F 
ATOM     16  C   UNL d   1      31.094  17.900 -24.868  0.00  0.00     0.005 A 
ENDBRANCH   1  10
TORSDOF 1
ENDMDL
MODEL 9
REMARK VINA RESULT:      -2.4      2.090      3.106
REMARK  1 active torsions:
REMARK  status: ('A' for Active; 'I' for Inactive)
REMARK    1  A    between atoms: C_6  and  C_1 
ROOT
ATOM      1  C   UNL d   1      32.957  22.726 -22.129  0.00  0.00     0.162 A 
ATOM      2  N   UNL d   1      32.900  23.407 -22.597  0.00  0.00    -0.225 NA
ATOM      3  N   UNL d   1      33.090  22.087 -22.613  0.00  0.00    -0.225 NA
ATOM      4  C   UNL d   1      33.001  23.190 -23.389  0.00  0.00     0.101 A 
ATOM      5  C   UNL d   1      33.117  22.379 -23.394  0.00  0.00     0.101 A 
ATOM      6  C   UNL d   1      33.001  23.620 -24.091  0.00  0.00     0.021 A 
ATOM      7  C   UNL d   1      33.237  21.980 -24.113  0.00  0.00     0.021 A 
ATOM      8  C   UNL d   1      33.120  23.241 -24.823  0.00  0.00     0.002 A 
ATOM      9  C   UNL d   1      33.239  22.417 -24.848  0.00  0.00     0.002 A 
ENDROOT
BRANCH   1  10
ATOM     10  C   UNL d   1      32.884  22.747 -21.338  0.00  0.00     0.036 A 
ATOM     11  C   UNL d   1      32.515  22.120 -20.940  0.00  0.00     0.005 A 
ATOM     12  C   UNL d   1      32.436  22.133 -20.120  0.00  0.00     0.030 A 
ATOM     13  C   UNL d   1      32.724  22.772 -19.688  0.00  0.00     0.140 A 
ATOM     14  C   UNL d   1      33.092  23.399 -20.080  0.00  0.00     0.030 A 
ATOM     15  F   UNL d   1      32.637  22.773 -18.854  0.00  0.00    -0.204 F 
ATOM     16  C   UNL d   1      33.175  23.394 -20.892  0.00  0.00     0.005 A 
ENDBRANCH   1  10
TORSDOF 1
ENDMDL
