MODEL 1
REMARK VINA RESULT:      62.0      0.000      0.000
REMARK  7 active torsions:
REMARK  status: ('A' for Active; 'I' for Inactive)
REMARK    1  A    between atoms: C_2  and  C_1 
REMARK    2  A    between atoms: C_16  and  N_4 
REMARK    3  A    between atoms: C_14  and  C_21 
REMARK    4  A    between atoms: C_22  and  C_16 
REMARK    5  A    between atoms: C_21  and  C_23 
REMARK    6  A    between atoms: C_25  and  C_22 
REMARK    7  A    between atoms: C_23  and  C_25 
ROOT
ATOM      1  C   UNL d   1     -51.221  25.854  33.978  0.00  0.00     0.093 A 
ATOM      2  N   UNL d   1     -50.930  26.888  34.729  0.00  0.00    -0.259 N 
ATOM      3  C   UNL d   1     -51.309  27.159  34.064  0.00  0.00     0.153 A 
ATOM      4  C   UNL d   1     -50.877  26.083  34.673  0.00  0.00     0.272 A 
ATOM      5  S   UNL d   1     -51.490  26.515  33.598  0.00  0.00    -0.053 SA
ATOM      6  S   UNL d   1     -51.473  27.958  33.910  0.00  0.00    -0.052 SA
ATOM      7  O   UNL d   1     -50.521  25.572  35.247  0.00  0.00    -0.266 OA
ENDROOT
BRANCH   1   8
ATOM      8  C   UNL d   1     -51.246  25.045  33.773  0.00  0.00     0.069 A 
ATOM      9  C   UNL d   1     -50.575  24.580  33.658  0.00  0.00     0.265 A 
ATOM     10  N   UNL d   1     -50.803  23.830  33.467  0.00  0.00    -0.272 N 
ATOM     11  O   UNL d   1     -49.782  24.839  33.726  0.00  0.00    -0.267 OA
ATOM     12  C   UNL d   1     -50.285  23.191  33.307  0.00  0.00     0.102 C 
ATOM     13  C   UNL d   1     -51.622  23.812  33.460  0.00  0.00     0.067 A 
ATOM     14  C   UNL d   1     -51.901  24.574  33.652  0.00  0.00     0.021 A 
ATOM     15  C   UNL d   1     -52.154  23.215  33.307  0.00  0.00     0.018 A 
ATOM     16  C   UNL d   1     -52.713  24.717  33.685  0.00  0.00     0.002 A 
ATOM     17  C   UNL d   1     -53.270  24.129  33.534  0.00  0.00     0.000 A 
ATOM     18  C   UNL d   1     -52.974  23.362  33.341  0.00  0.00     0.002 A 
ENDBRANCH   1   8
BRANCH   2  19
ATOM     19  C   UNL d   1     -50.647  27.365  35.355  0.00  0.00     0.084 C 
BRANCH  19  20
ATOM     20  C   UNL d   1     -50.493  27.025  36.073  0.00  0.00     0.019 C 
BRANCH  20  21
ATOM     21  C   UNL d   1     -50.518  27.496  36.763  0.00  0.00     0.002 C 
BRANCH  21  22
ATOM     22  C   UNL d   1     -51.084  27.349  37.323  0.00  0.00     0.006 C 
BRANCH  22  23
ATOM     23  C   UNL d   1     -51.094  26.608  37.710  0.00  0.00     0.070 C 
BRANCH  23  24
ATOM     24  C   UNL d   1     -51.454  26.533  38.431  0.00  0.00     0.211 C 
ATOM     25  O   UNL d   1     -52.063  25.981  38.538  0.00  0.00    -0.644 OA
ATOM     26  O   UNL d   1     -51.230  26.998  39.069  0.00  0.00    -0.644 OA
ENDBRANCH  23  24
ENDBRANCH  22  23
ENDBRANCH  21  22
ENDBRANCH  20  21
ENDBRANCH  19  20
ENDBRANCH   2  19
TORSDOF 7
ENDMDL
