MODEL 1
REMARK VINA RESULT:      67.4      0.000      0.000
REMARK  5 active torsions:
REMARK  status: ('A' for Active; 'I' for Inactive)
REMARK    1  A    between atoms: C_6  and  C_1 
REMARK    2  A    between atoms: C_9  and  C_5 
REMARK       I    between atoms: N_13  and  C_6 
REMARK    3  A    between atoms: C_7  and  C_15 
REMARK    4  A    between atoms: N_10  and  N_13 
REMARK    5  A    between atoms: C_15  and  N_10 
ROOT
ATOM      1  C   UNL d   1      15.272  15.954  -3.118  0.00  0.00     0.316 C 
ATOM      2  N   UNL d   1      14.733  15.732  -2.345  0.00  0.00    -0.104 NA
ATOM      3  O   UNL d   1      15.986  15.555  -3.190  0.00  0.00    -0.262 OA
ENDROOT
BRANCH   1   4
ATOM      4  C   UNL d   1      15.061  16.503  -3.688  0.00  0.00     0.164 A 
ATOM      5  C   UNL d   1      14.933  17.285  -3.472  0.00  0.00     0.047 A 
ATOM      6  C   UNL d   1      14.639  17.614  -4.813  0.00  0.00     0.105 A 
ATOM      7  N   UNL d   1      14.767  16.832  -5.030  0.00  0.00    -0.148 NA
ATOM      8  N   UNL d   1      14.978  16.275  -4.466  0.00  0.00    -0.143 NA
BRANCH   6   9
ATOM      9  C   UNL d   1      14.429  18.300  -5.207  0.00  0.00     0.019 A 
ATOM     10  C   UNL d   1      14.838  18.991  -5.057  0.00  0.00     0.002 A 
ATOM     11  C   UNL d   1      14.630  19.682  -5.451  0.00  0.00     0.000 A 
ATOM     12  C   UNL d   1      15.036  20.375  -5.305  0.00  0.00     0.000 A 
ATOM     13  C   UNL d   1      14.010  19.672  -5.995  0.00  0.00     0.000 A 
ATOM     14  C   UNL d   1      14.830  21.059  -5.695  0.00  0.00     0.000 A 
ATOM     15  C   UNL d   1      14.212  21.058  -6.239  0.00  0.00     0.000 A 
ATOM     16  C   UNL d   1      13.804  20.367  -6.388  0.00  0.00     0.000 A 
ATOM     17  C   UNL d   1      13.612  18.981  -6.135  0.00  0.00     0.000 A 
ATOM     18  C   UNL d   1      13.822  18.295  -5.740  0.00  0.00     0.002 A 
ENDBRANCH   6   9
ENDBRANCH   1   4
BRANCH   2  19
ATOM     19  N   UNL d   1      14.878  15.089  -1.589  0.00  0.00    -0.143 NA
BRANCH  19  20
ATOM     20  C   UNL d   1      15.203  14.309  -1.737  0.00  0.00     0.126 C 
BRANCH  20  21
ATOM     21  C   UNL d   1      14.915  13.628  -1.289  0.00  0.00     0.060 A 
ATOM     22  C   UNL d   1      14.402  13.047  -1.663  0.00  0.00     0.005 A 
ATOM     23  C   UNL d   1      14.114  12.366  -1.215  0.00  0.00     0.000 A 
ATOM     24  C   UNL d   1      14.171  13.144  -2.494  0.00  0.00     0.000 A 
ATOM     25  C   UNL d   1      13.596  11.780  -1.594  0.00  0.00     0.000 A 
ATOM     26  C   UNL d   1      14.339  12.261  -0.385  0.00  0.00     0.003 A 
ATOM     27  C   UNL d   1      13.368  11.880  -2.423  0.00  0.00     0.000 A 
ATOM     28  C   UNL d   1      13.653  12.557  -2.873  0.00  0.00     0.000 A 
ATOM     29  C   UNL d   1      14.856  12.850  -0.016  0.00  0.00     0.042 A 
ATOM     30  C   UNL d   1      15.144  13.531  -0.465  0.00  0.00     0.197 A 
ATOM     31  O   UNL d   1      15.654  14.109  -0.092  0.00  0.00    -0.286 OA
ENDBRANCH  20  21
ENDBRANCH  19  20
ENDBRANCH   2  19
TORSDOF 5
ENDMDL
