MODEL 1
REMARK VINA RESULT:      -8.2      0.000      0.000
REMARK  5 active torsions:
REMARK  status: ('A' for Active; 'I' for Inactive)
REMARK    1  A    between atoms: C_11  and  C_1 
REMARK    2  A    between atoms: C_12  and  N_3 
REMARK    3  A    between atoms: C_7  and  S_13 
REMARK    4  A    between atoms: C_14  and  C_11 
REMARK    5  A    between atoms: S_13  and  C_14 
ROOT
ATOM      1  C   UNL d   1     -47.629  12.668  23.178  0.00  0.00     0.057 A 
ATOM      2  C   UNL d   1     -48.406  12.939  23.143  0.00  0.00     0.067 A 
ATOM      3  N   UNL d   1     -48.391  13.718  22.904  0.00  0.00    -0.306 N 
ATOM      4  C   UNL d   1     -47.614  13.937  22.790  0.00  0.00     0.064 A 
ATOM      5  C   UNL d   1     -47.132  13.293  22.958  0.00  0.00     0.022 A 
ATOM      6  C   UNL d   1     -49.084  12.504  23.317  0.00  0.00     0.019 C 
ATOM      7  C   UNL d   1     -46.996  14.449  22.596  0.00  0.00     0.019 C 
ENDROOT
BRANCH   1   8
ATOM      8  C   UNL d   1     -47.018  12.115  23.310  0.00  0.00     0.204 C 
ATOM      9  O   UNL d   1     -47.180  11.396  23.698  0.00  0.00    -0.286 OA
BRANCH   8  10
ATOM     10  C   UNL d   1     -46.224  11.899  23.236  0.00  0.00     0.080 C 
BRANCH  10  11
ATOM     11  S   UNL d   1     -45.948  11.219  23.615  0.00  0.00    -0.043 SA
BRANCH  11  12
ATOM     12  C   UNL d   1     -45.164  10.974  23.511  0.00  0.00     0.233 A 
ATOM     13  N   UNL d   1     -44.871  10.231  23.693  0.00  0.00    -0.029 NA
ATOM     14  C   UNL d   1     -44.073  10.228  23.503  0.00  0.00     0.788 A 
ATOM     15  N   UNL d   1     -43.554   9.594  23.593  0.00  0.00     0.064 N 
ATOM     16  N   UNL d   1     -43.884  10.969  23.205  0.00  0.00     0.050 NA
ATOM     17  N   UNL d   1     -44.562  11.441  23.207  0.00  0.00    -0.105 NA
ENDBRANCH  11  12
ENDBRANCH  10  11
ENDBRANCH   8  10
ENDBRANCH   1   8
BRANCH   3  18
ATOM     18  C   UNL d   1     -49.057  14.209  22.795  0.00  0.00     0.064 A 
ATOM     19  C   UNL d   1     -49.472  14.146  22.125  0.00  0.00     0.020 A 
ATOM     20  C   UNL d   1     -50.137  14.638  22.018  0.00  0.00     0.031 A 
ATOM     21  C   UNL d   1     -50.356  15.179  22.602  0.00  0.00     0.140 A 
ATOM     22  C   UNL d   1     -49.914  15.228  23.287  0.00  0.00     0.031 A 
ATOM     23  F   UNL d   1     -51.015  15.666  22.497  0.00  0.00    -0.204 F 
ATOM     24  C   UNL d   1     -49.261  14.745  23.391  0.00  0.00     0.020 A 
ENDBRANCH   3  18
TORSDOF 5
ENDMDL
MODEL 2
REMARK VINA RESULT:      -7.8      1.436      2.010
REMARK  5 active torsions:
REMARK  status: ('A' for Active; 'I' for Inactive)
REMARK    1  A    between atoms: C_11  and  C_1 
REMARK    2  A    between atoms: C_12  and  N_3 
REMARK    3  A    between atoms: C_7  and  S_13 
REMARK    4  A    between atoms: C_14  and  C_11 
REMARK    5  A    between atoms: S_13  and  C_14 
ROOT
ATOM      1  C   UNL d   1     -47.138  13.388  22.925  0.00  0.00     0.057 A 
ATOM      2  C   UNL d   1     -47.625  14.047  22.833  0.00  0.00     0.067 A 
ATOM      3  N   UNL d   1     -48.395  13.809  22.953  0.00  0.00    -0.306 N 
ATOM      4  C   UNL d   1     -48.395  13.010  23.119  0.00  0.00     0.064 A 
ATOM      5  C   UNL d   1     -47.620  12.739  23.104  0.00  0.00     0.022 A 
ATOM      6  C   UNL d   1     -47.383  14.812  22.652  0.00  0.00     0.019 C 
ATOM      7  C   UNL d   1     -48.731  12.279  23.301  0.00  0.00     0.019 C 
ENDROOT
BRANCH   1   8
ATOM      8  C   UNL d   1     -46.418  12.968  22.945  0.00  0.00     0.204 C 
ATOM      9  O   UNL d   1     -46.143  12.640  23.660  0.00  0.00    -0.286 OA
BRANCH   8  10
ATOM     10  C   UNL d   1     -45.750  12.678  22.554  0.00  0.00     0.080 C 
BRANCH  10  11
ATOM     11  S   UNL d   1     -45.060  13.131  22.529  0.00  0.00    -0.043 SA
BRANCH  11  12
ATOM     12  C   UNL d   1     -44.383  12.838  22.154  0.00  0.00     0.233 A 
ATOM     13  N   UNL d   1     -43.939  13.240  21.594  0.00  0.00    -0.029 NA
ATOM     14  C   UNL d   1     -43.322  12.748  21.371  0.00  0.00     0.788 A 
ATOM     15  N   UNL d   1     -42.736  12.923  20.818  0.00  0.00     0.064 N 
ATOM     16  N   UNL d   1     -43.393  12.048  21.796  0.00  0.00     0.050 NA
ATOM     17  N   UNL d   1     -44.055  12.099  22.288  0.00  0.00    -0.105 NA
ENDBRANCH  11  12
ENDBRANCH  10  11
ENDBRANCH   8  10
ENDBRANCH   1   8
BRANCH   3  18
ATOM     18  C   UNL d   1     -49.070  14.299  22.914  0.00  0.00     0.064 A 
ATOM     19  C   UNL d   1     -49.258  14.742  23.541  0.00  0.00     0.020 A 
ATOM     20  C   UNL d   1     -49.932  15.231  23.499  0.00  0.00     0.031 A 
ATOM     21  C   UNL d   1     -50.393  15.250  22.814  0.00  0.00     0.140 A 
ATOM     22  C   UNL d   1     -50.182  14.785  22.177  0.00  0.00     0.031 A 
ATOM     23  F   UNL d   1     -51.060  15.734  22.771  0.00  0.00    -0.204 F 
ATOM     24  C   UNL d   1     -49.519  14.305  22.219  0.00  0.00     0.020 A 
ENDBRANCH   3  18
TORSDOF 5
ENDMDL
MODEL 3
REMARK VINA RESULT:      -7.2      2.049      2.644
REMARK  5 active torsions:
REMARK  status: ('A' for Active; 'I' for Inactive)
REMARK    1  A    between atoms: C_11  and  C_1 
REMARK    2  A    between atoms: C_12  and  N_3 
REMARK    3  A    between atoms: C_7  and  S_13 
REMARK    4  A    between atoms: C_14  and  C_11 
REMARK    5  A    between atoms: S_13  and  C_14 
ROOT
ATOM      1  C   UNL d   1     -46.758  13.066  22.725  0.00  0.00     0.057 A 
ATOM      2  C   UNL d   1     -47.363  12.567  22.977  0.00  0.00     0.067 A 
ATOM      3  N   UNL d   1     -48.073  12.899  22.750  0.00  0.00    -0.306 N 
ATOM      4  C   UNL d   1     -47.917  13.597  22.359  0.00  0.00     0.064 A 
ATOM      5  C   UNL d   1     -47.104  13.711  22.338  0.00  0.00     0.022 A 
ATOM      6  C   UNL d   1     -47.276  11.858  23.387  0.00  0.00     0.019 C 
ATOM      7  C   UNL d   1     -48.104  14.291  21.953  0.00  0.00     0.019 C 
ENDROOT
BRANCH   1   8
ATOM      8  C   UNL d   1     -45.969  13.317  22.624  0.00  0.00     0.204 C 
ATOM      9  O   UNL d   1     -45.616  13.828  23.180  0.00  0.00    -0.286 OA
BRANCH   8  10
ATOM     10  C   UNL d   1     -45.269  13.310  22.185  0.00  0.00     0.080 C 
BRANCH  10  11
ATOM     11  S   UNL d   1     -44.638  12.835  22.427  0.00  0.00    -0.043 SA
BRANCH  11  12
ATOM     12  C   UNL d   1     -43.948  12.795  21.971  0.00  0.00     0.233 A 
ATOM     13  N   UNL d   1     -43.617  13.419  21.555  0.00  0.00    -0.029 NA
ATOM     14  C   UNL d   1     -42.943  13.136  21.185  0.00  0.00     0.788 A 
ATOM     15  N   UNL d   1     -42.433  13.571  20.705  0.00  0.00     0.064 N 
ATOM     16  N   UNL d   1     -42.865  12.341  21.377  0.00  0.00     0.050 NA
ATOM     17  N   UNL d   1     -43.492  12.122  21.869  0.00  0.00    -0.105 NA
ENDBRANCH  11  12
ENDBRANCH  10  11
ENDBRANCH   8  10
ENDBRANCH   1   8
BRANCH   3  18
ATOM     18  C   UNL d   1     -48.830  12.578  22.892  0.00  0.00     0.064 A 
ATOM     19  C   UNL d   1     -49.210  12.775  23.557  0.00  0.00     0.020 A 
ATOM     20  C   UNL d   1     -49.966  12.453  23.697  0.00  0.00     0.031 A 
ATOM     21  C   UNL d   1     -50.310  11.938  23.151  0.00  0.00     0.140 A 
ATOM     22  C   UNL d   1     -49.901  11.747  22.470  0.00  0.00     0.031 A 
ATOM     23  F   UNL d   1     -51.059  11.619  23.289  0.00  0.00    -0.204 F 
ATOM     24  C   UNL d   1     -49.159  12.064  22.333  0.00  0.00     0.020 A 
ENDBRANCH   3  18
TORSDOF 5
ENDMDL
MODEL 4
REMARK VINA RESULT:      -6.1      2.560      5.441
REMARK  5 active torsions:
REMARK  status: ('A' for Active; 'I' for Inactive)
REMARK    1  A    between atoms: C_11  and  C_1 
REMARK    2  A    between atoms: C_12  and  N_3 
REMARK    3  A    between atoms: C_7  and  S_13 
REMARK    4  A    between atoms: C_14  and  C_11 
REMARK    5  A    between atoms: S_13  and  C_14 
ROOT
ATOM      1  C   UNL d   1     -46.682  13.187  22.858  0.00  0.00     0.057 A 
ATOM      2  C   UNL d   1     -46.453  12.467  23.187  0.00  0.00     0.067 A 
ATOM      3  N   UNL d   1     -45.702  12.296  22.918  0.00  0.00    -0.306 N 
ATOM      4  C   UNL d   1     -45.461  12.901  22.427  0.00  0.00     0.064 A 
ATOM      5  C   UNL d   1     -46.062  13.459  22.382  0.00  0.00     0.022 A 
ATOM      6  C   UNL d   1     -46.897  11.998  23.696  0.00  0.00     0.019 C 
ATOM      7  C   UNL d   1     -44.944  13.301  21.923  0.00  0.00     0.019 C 
ENDROOT
BRANCH   1   8
ATOM      8  C   UNL d   1     -47.191  13.833  22.714  0.00  0.00     0.204 C 
ATOM      9  O   UNL d   1     -46.966  14.603  22.940  0.00  0.00    -0.286 OA
BRANCH   8  10
ATOM     10  C   UNL d   1     -47.904  14.126  22.418  0.00  0.00     0.080 C 
BRANCH  10  11
ATOM     11  S   UNL d   1     -48.400  14.569  22.907  0.00  0.00    -0.043 SA
BRANCH  11  12
ATOM     12  C   UNL d   1     -49.211  14.614  22.747  0.00  0.00     0.233 A 
ATOM     13  N   UNL d   1     -49.593  14.246  22.122  0.00  0.00    -0.029 NA
ATOM     14  C   UNL d   1     -50.388  14.439  22.173  0.00  0.00     0.788 A 
ATOM     15  N   UNL d   1     -50.982  14.191  21.658  0.00  0.00     0.064 N 
ATOM     16  N   UNL d   1     -50.488  14.924  22.829  0.00  0.00     0.050 NA
ATOM     17  N   UNL d   1     -49.754  15.037  23.192  0.00  0.00    -0.105 NA
ENDBRANCH  11  12
ENDBRANCH  10  11
ENDBRANCH   8  10
ENDBRANCH   1   8
BRANCH   3  18
ATOM     18  C   UNL d   1     -45.256  11.618  23.113  0.00  0.00     0.064 A 
ATOM     19  C   UNL d   1     -44.486  11.603  22.934  0.00  0.00     0.020 A 
ATOM     20  C   UNL d   1     -44.043  10.924  23.130  0.00  0.00     0.031 A 
ATOM     21  C   UNL d   1     -44.403  10.282  23.504  0.00  0.00     0.140 A 
ATOM     22  C   UNL d   1     -45.200  10.318  23.680  0.00  0.00     0.031 A 
ATOM     23  F   UNL d   1     -43.965   9.610  23.698  0.00  0.00    -0.204 F 
ATOM     24  C   UNL d   1     -45.634  10.985  23.487  0.00  0.00     0.020 A 
ENDBRANCH   3  18
TORSDOF 5
ENDMDL
MODEL 5
REMARK VINA RESULT:      -5.8      8.987     10.131
REMARK  5 active torsions:
REMARK  status: ('A' for Active; 'I' for Inactive)
REMARK    1  A    between atoms: C_11  and  C_1 
REMARK    2  A    between atoms: C_12  and  N_3 
REMARK    3  A    between atoms: C_7  and  S_13 
REMARK    4  A    between atoms: C_14  and  C_11 
REMARK    5  A    between atoms: S_13  and  C_14 
ROOT
ATOM      1  C   UNL d   1     -39.273  14.976  19.330  0.00  0.00     0.057 A 
ATOM      2  C   UNL d   1     -38.776  14.906  18.677  0.00  0.00     0.067 A 
ATOM      3  N   UNL d   1     -39.193  14.532  18.083  0.00  0.00    -0.306 N 
ATOM      4  C   UNL d   1     -39.943  14.368  18.359  0.00  0.00     0.064 A 
ATOM      5  C   UNL d   1     -40.004  14.640  19.132  0.00  0.00     0.022 A 
ATOM      6  C   UNL d   1     -37.997  15.165  18.624  0.00  0.00     0.019 C 
ATOM      7  C   UNL d   1     -40.713  14.077  18.317  0.00  0.00     0.019 C 
ENDROOT
BRANCH   1   8
ATOM      8  C   UNL d   1     -39.487  15.194  20.106  0.00  0.00     0.204 C 
ATOM      9  O   UNL d   1     -39.866  15.922  20.249  0.00  0.00    -0.286 OA
BRANCH   8  10
ATOM     10  C   UNL d   1     -39.512  15.021  20.914  0.00  0.00     0.080 C 
BRANCH  10  11
ATOM     11  S   UNL d   1     -39.152  15.532  21.454  0.00  0.00    -0.043 SA
BRANCH  11  12
ATOM     12  C   UNL d   1     -38.987  15.276  22.224  0.00  0.00     0.233 A 
ATOM     13  N   UNL d   1     -38.708  14.532  22.427  0.00  0.00    -0.029 NA
ATOM     14  C   UNL d   1     -38.623  14.517  23.243  0.00  0.00     0.788 A 
ATOM     15  N   UNL d   1     -38.356  13.879  23.692  0.00  0.00     0.064 N 
ATOM     16  N   UNL d   1     -38.850  15.251  23.533  0.00  0.00     0.050 NA
ATOM     17  N   UNL d   1     -39.080  15.731  22.900  0.00  0.00    -0.105 NA
ENDBRANCH  11  12
ENDBRANCH  10  11
ENDBRANCH   8  10
ENDBRANCH   1   8
BRANCH   3  18
ATOM     18  C   UNL d   1     -38.901  14.348  17.323  0.00  0.00     0.064 A 
ATOM     19  C   UNL d   1     -38.571  13.640  17.201  0.00  0.00     0.020 A 
ATOM     20  C   UNL d   1     -38.280  13.459  16.441  0.00  0.00     0.031 A 
ATOM     21  C   UNL d   1     -38.338  14.010  15.828  0.00  0.00     0.140 A 
ATOM     22  C   UNL d   1     -38.682  14.735  15.975  0.00  0.00     0.031 A 
ATOM     23  F   UNL d   1     -38.050  13.831  15.076  0.00  0.00    -0.204 F 
ATOM     24  C   UNL d   1     -38.967  14.913  16.722  0.00  0.00     0.020 A 
ENDBRANCH   3  18
TORSDOF 5
ENDMDL
MODEL 6
REMARK VINA RESULT:      -5.2      7.316      8.945
REMARK  5 active torsions:
REMARK  status: ('A' for Active; 'I' for Inactive)
REMARK    1  A    between atoms: C_11  and  C_1 
REMARK    2  A    between atoms: C_12  and  N_3 
REMARK    3  A    between atoms: C_7  and  S_13 
REMARK    4  A    between atoms: C_14  and  C_11 
REMARK    5  A    between atoms: S_13  and  C_14 
ROOT
ATOM      1  C   UNL d   1     -40.488  14.244  19.658  0.00  0.00     0.057 A 
ATOM      2  C   UNL d   1     -40.360  14.363  18.852  0.00  0.00     0.067 A 
ATOM      3  N   UNL d   1     -39.556  14.330  18.719  0.00  0.00    -0.306 N 
ATOM      4  C   UNL d   1     -39.182  14.192  19.430  0.00  0.00     0.064 A 
ATOM      5  C   UNL d   1     -39.751  14.138  20.020  0.00  0.00     0.022 A 
ATOM      6  C   UNL d   1     -40.935  14.492  18.278  0.00  0.00     0.019 C 
ATOM      7  C   UNL d   1     -38.538  14.070  19.931  0.00  0.00     0.019 C 
ENDROOT
BRANCH   1   8
ATOM      8  C   UNL d   1     -40.939  14.165  20.355  0.00  0.00     0.204 C 
ATOM      9  O   UNL d   1     -41.019  14.807  20.879  0.00  0.00    -0.286 OA
BRANCH   8  10
ATOM     10  C   UNL d   1     -41.410  13.700  20.849  0.00  0.00     0.080 C 
BRANCH  10  11
ATOM     11  S   UNL d   1     -42.179  13.943  21.031  0.00  0.00    -0.043 SA
BRANCH  11  12
ATOM     12  C   UNL d   1     -42.738  13.393  21.296  0.00  0.00     0.233 A 
ATOM     13  N   UNL d   1     -43.531  13.550  21.430  0.00  0.00    -0.029 NA
ATOM     14  C   UNL d   1     -43.879  12.853  21.686  0.00  0.00     0.788 A 
ATOM     15  N   UNL d   1     -44.672  12.751  21.887  0.00  0.00     0.064 N 
ATOM     16  N   UNL d   1     -43.296  12.275  21.707  0.00  0.00     0.050 NA
ATOM     17  N   UNL d   1     -42.579  12.607  21.464  0.00  0.00    -0.105 NA
ENDBRANCH  11  12
ENDBRANCH  10  11
ENDBRANCH   8  10
ENDBRANCH   1   8
BRANCH   3  18
ATOM     18  C   UNL d   1     -39.179  14.421  17.979  0.00  0.00     0.064 A 
ATOM     19  C   UNL d   1     -38.966  15.146  17.746  0.00  0.00     0.020 A 
ATOM     20  C   UNL d   1     -38.591  15.235  17.007  0.00  0.00     0.031 A 
ATOM     21  C   UNL d   1     -38.444  14.576  16.530  0.00  0.00     0.140 A 
ATOM     22  C   UNL d   1     -38.672  13.836  16.789  0.00  0.00     0.031 A 
ATOM     23  F   UNL d   1     -38.072  14.663  15.798  0.00  0.00    -0.204 F 
ATOM     24  C   UNL d   1     -39.041  13.750  17.515  0.00  0.00     0.020 A 
ENDBRANCH   3  18
TORSDOF 5
ENDMDL
