MODEL 1
REMARK VINA RESULT:      -8.7      0.000      0.000
REMARK  3 active torsions:
REMARK  status: ('A' for Active; 'I' for Inactive)
REMARK    1  A    between atoms: C_8  and  C_2 
REMARK    2  A    between atoms: C_9  and  C_3 
REMARK    3  A    between atoms: N_6  and  C_8 
ROOT
ATOM      1  N   UNL d   1     -46.250  13.716  22.792  0.00  0.00    -0.121 NA
ATOM      2  C   UNL d   1     -47.473  14.245  22.850  0.00  0.00     0.222 A 
ATOM      3  C   UNL d   1     -46.762  13.130  23.059  0.00  0.00     0.204 A 
ATOM      4  O   UNL d   1     -47.522  13.463  23.094  0.00  0.00    -0.267 OA
ATOM      5  N   UNL d   1     -46.684  14.407  22.661  0.00  0.00    -0.119 NA
ENDROOT
BRANCH   2   6
ATOM      6  C   UNL d   1     -48.100  14.786  22.799  0.00  0.00     0.127 C 
BRANCH   6   7
ATOM      7  N   UNL d   1     -48.812  14.563  22.448  0.00  0.00    -0.301 N 
ATOM      8  C   UNL d   1     -49.516  14.854  22.750  0.00  0.00     0.064 A 
ATOM      9  C   UNL d   1     -50.235  14.639  22.407  0.00  0.00     0.016 A 
ATOM     10  C   UNL d   1     -49.518  15.361  23.393  0.00  0.00     0.018 A 
ATOM     11  C   UNL d   1     -50.941  14.924  22.702  0.00  0.00     0.001 A 
ATOM     12  C   UNL d   1     -50.234  14.126  21.757  0.00  0.00     0.003 A 
ATOM     13  C   UNL d   1     -50.939  15.430  23.344  0.00  0.00     0.000 A 
ATOM     14  C   UNL d   1     -50.223  15.652  23.695  0.00  0.00     0.002 A 
ATOM     15  C   UNL d   1     -49.525  13.835  21.456  0.00  0.00     0.019 A 
ATOM     16  C   UNL d   1     -48.805  14.055  21.804  0.00  0.00     0.080 A 
ENDBRANCH   6   7
ENDBRANCH   2   6
BRANCH   3  17
ATOM     17  C   UNL d   1     -46.557  12.353  23.256  0.00  0.00     0.043 A 
ATOM     18  C   UNL d   1     -47.147  11.829  23.500  0.00  0.00     0.004 A 
ATOM     19  C   UNL d   1     -46.947  11.053  23.698  0.00  0.00     0.000 A 
ATOM     20  C   UNL d   1     -46.159  10.806  23.651  0.00  0.00     0.000 A 
ATOM     21  C   UNL d   1     -45.573  11.338  23.406  0.00  0.00     0.000 A 
ATOM     22  C   UNL d   1     -45.777  12.111  23.209  0.00  0.00     0.004 A 
ENDBRANCH   3  17
TORSDOF 3
ENDMDL
MODEL 2
REMARK VINA RESULT:      -8.5      1.854      2.132
REMARK  3 active torsions:
REMARK  status: ('A' for Active; 'I' for Inactive)
REMARK    1  A    between atoms: C_8  and  C_2 
REMARK    2  A    between atoms: C_9  and  C_3 
REMARK    3  A    between atoms: N_6  and  C_8 
ROOT
ATOM      1  N   UNL d   1     -45.808  12.739  23.172  0.00  0.00    -0.121 NA
ATOM      2  C   UNL d   1     -47.102  12.485  23.371  0.00  0.00     0.222 A 
ATOM      3  C   UNL d   1     -45.883  11.933  23.320  0.00  0.00     0.204 A 
ATOM      4  O   UNL d   1     -46.690  11.779  23.444  0.00  0.00    -0.267 OA
ATOM      5  N   UNL d   1     -46.557  13.085  23.202  0.00  0.00    -0.119 NA
ENDROOT
BRANCH   2   6
ATOM      6  C   UNL d   1     -47.921  12.588  23.451  0.00  0.00     0.127 C 
BRANCH   6   7
ATOM      7  N   UNL d   1     -48.401  12.629  22.783  0.00  0.00    -0.301 N 
ATOM      8  C   UNL d   1     -49.206  12.498  22.859  0.00  0.00     0.064 A 
ATOM      9  C   UNL d   1     -49.697  12.536  22.197  0.00  0.00     0.016 A 
ATOM     10  C   UNL d   1     -49.536  12.328  23.589  0.00  0.00     0.018 A 
ATOM     11  C   UNL d   1     -50.501  12.407  22.265  0.00  0.00     0.001 A 
ATOM     12  C   UNL d   1     -49.366  12.707  21.458  0.00  0.00     0.003 A 
ATOM     13  C   UNL d   1     -50.827  12.237  22.996  0.00  0.00     0.000 A 
ATOM     14  C   UNL d   1     -50.341  12.197  23.665  0.00  0.00     0.002 A 
ATOM     15  C   UNL d   1     -48.557  12.838  21.384  0.00  0.00     0.019 A 
ATOM     16  C   UNL d   1     -48.067  12.799  22.054  0.00  0.00     0.080 A 
ENDBRANCH   6   7
ENDBRANCH   2   6
BRANCH   3  17
ATOM     17  C   UNL d   1     -45.269  11.379  23.342  0.00  0.00     0.043 A 
ATOM     18  C   UNL d   1     -45.407  10.635  23.673  0.00  0.00     0.004 A 
ATOM     19  C   UNL d   1     -44.797  10.080  23.697  0.00  0.00     0.000 A 
ATOM     20  C   UNL d   1     -44.053  10.272  23.390  0.00  0.00     0.000 A 
ATOM     21  C   UNL d   1     -43.922  11.020  23.060  0.00  0.00     0.000 A 
ATOM     22  C   UNL d   1     -44.534  11.571  23.038  0.00  0.00     0.004 A 
ENDBRANCH   3  17
TORSDOF 3
ENDMDL
MODEL 3
REMARK VINA RESULT:      -8.3      1.370      1.745
REMARK  3 active torsions:
REMARK  status: ('A' for Active; 'I' for Inactive)
REMARK    1  A    between atoms: C_8  and  C_2 
REMARK    2  A    between atoms: C_9  and  C_3 
REMARK    3  A    between atoms: N_6  and  C_8 
ROOT
ATOM      1  N   UNL d   1     -47.395  11.760  23.464  0.00  0.00    -0.121 NA
ATOM      2  C   UNL d   1     -48.423  12.610  23.482  0.00  0.00     0.222 A 
ATOM      3  C   UNL d   1     -47.134  12.474  23.147  0.00  0.00     0.204 A 
ATOM      4  O   UNL d   1     -47.776  13.000  23.160  0.00  0.00    -0.267 OA
ATOM      5  N   UNL d   1     -48.190  11.839  23.672  0.00  0.00    -0.119 NA
ENDROOT
BRANCH   2   6
ATOM      6  C   UNL d   1     -49.180  12.926  23.600  0.00  0.00     0.127 C 
BRANCH   6   7
ATOM      7  N   UNL d   1     -49.694  13.019  22.962  0.00  0.00    -0.301 N 
ATOM      8  C   UNL d   1     -50.119  13.716  22.887  0.00  0.00     0.064 A 
ATOM      9  C   UNL d   1     -50.637  13.820  22.253  0.00  0.00     0.016 A 
ATOM     10  C   UNL d   1     -50.038  14.317  23.437  0.00  0.00     0.018 A 
ATOM     11  C   UNL d   1     -51.064  14.512  22.172  0.00  0.00     0.001 A 
ATOM     12  C   UNL d   1     -50.720  13.213  21.697  0.00  0.00     0.003 A 
ATOM     13  C   UNL d   1     -50.980  15.110  22.723  0.00  0.00     0.000 A 
ATOM     14  C   UNL d   1     -50.462  15.014  23.362  0.00  0.00     0.002 A 
ATOM     15  C   UNL d   1     -50.293  12.515  21.774  0.00  0.00     0.019 A 
ATOM     16  C   UNL d   1     -49.773  12.415  22.414  0.00  0.00     0.080 A 
ENDBRANCH   6   7
ENDBRANCH   2   6
BRANCH   3  17
ATOM     17  C   UNL d   1     -46.372  12.636  22.868  0.00  0.00     0.043 A 
ATOM     18  C   UNL d   1     -45.780  12.067  22.954  0.00  0.00     0.004 A 
ATOM     19  C   UNL d   1     -45.019  12.225  22.677  0.00  0.00     0.000 A 
ATOM     20  C   UNL d   1     -44.855  12.951  22.315  0.00  0.00     0.000 A 
ATOM     21  C   UNL d   1     -45.454  13.517  22.232  0.00  0.00     0.000 A 
ATOM     22  C   UNL d   1     -46.212  13.355  22.510  0.00  0.00     0.004 A 
ENDBRANCH   3  17
TORSDOF 3
ENDMDL
MODEL 4
REMARK VINA RESULT:      -8.1      0.885      4.596
REMARK  3 active torsions:
REMARK  status: ('A' for Active; 'I' for Inactive)
REMARK    1  A    between atoms: C_8  and  C_2 
REMARK    2  A    between atoms: C_9  and  C_3 
REMARK    3  A    between atoms: N_6  and  C_8 
ROOT
ATOM      1  N   UNL d   1     -48.822  14.236  21.929  0.00  0.00    -0.121 NA
ATOM      2  C   UNL d   1     -47.669  14.163  22.596  0.00  0.00     0.222 A 
ATOM      3  C   UNL d   1     -48.942  14.571  22.672  0.00  0.00     0.204 A 
ATOM      4  O   UNL d   1     -48.223  14.523  23.084  0.00  0.00    -0.267 OA
ATOM      5  N   UNL d   1     -48.038  13.983  21.878  0.00  0.00    -0.119 NA
ENDROOT
BRANCH   2   6
ATOM      6  C   UNL d   1     -46.877  14.003  22.784  0.00  0.00     0.127 C 
BRANCH   6   7
ATOM      7  N   UNL d   1     -46.642  13.235  22.969  0.00  0.00    -0.301 N 
ATOM      8  C   UNL d   1     -45.907  12.970  22.721  0.00  0.00     0.064 A 
ATOM      9  C   UNL d   1     -45.660  12.204  22.900  0.00  0.00     0.016 A 
ATOM     10  C   UNL d   1     -45.408  13.459  22.294  0.00  0.00     0.018 A 
ATOM     11  C   UNL d   1     -44.929  11.932  22.657  0.00  0.00     0.001 A 
ATOM     12  C   UNL d   1     -46.164  11.708  23.332  0.00  0.00     0.003 A 
ATOM     13  C   UNL d   1     -44.433  12.423  22.230  0.00  0.00     0.000 A 
ATOM     14  C   UNL d   1     -44.673  13.194  22.046  0.00  0.00     0.002 A 
ATOM     15  C   UNL d   1     -46.901  11.976  23.580  0.00  0.00     0.019 A 
ATOM     16  C   UNL d   1     -47.144  12.749  23.397  0.00  0.00     0.080 A 
ENDBRANCH   6   7
ENDBRANCH   2   6
BRANCH   3  17
ATOM     17  C   UNL d   1     -49.649  14.894  22.954  0.00  0.00     0.043 A 
ATOM     18  C   UNL d   1     -49.627  15.596  23.390  0.00  0.00     0.004 A 
ATOM     19  C   UNL d   1     -50.330  15.922  23.674  0.00  0.00     0.000 A 
ATOM     20  C   UNL d   1     -51.050  15.544  23.521  0.00  0.00     0.000 A 
ATOM     21  C   UNL d   1     -51.064  14.841  23.084  0.00  0.00     0.000 A 
ATOM     22  C   UNL d   1     -50.360  14.519  22.802  0.00  0.00     0.004 A 
ENDBRANCH   3  17
TORSDOF 3
ENDMDL
MODEL 5
REMARK VINA RESULT:      -7.8      1.015      4.645
REMARK  3 active torsions:
REMARK  status: ('A' for Active; 'I' for Inactive)
REMARK    1  A    between atoms: C_8  and  C_2 
REMARK    2  A    between atoms: C_9  and  C_3 
REMARK    3  A    between atoms: N_6  and  C_8 
ROOT
ATOM      1  N   UNL d   1     -49.309  13.359  22.253  0.00  0.00    -0.121 NA
ATOM      2  C   UNL d   1     -48.338  12.861  23.021  0.00  0.00     0.222 A 
ATOM      3  C   UNL d   1     -49.290  13.800  22.948  0.00  0.00     0.204 A 
ATOM      4  O   UNL d   1     -48.684  13.488  23.423  0.00  0.00    -0.267 OA
ATOM      5  N   UNL d   1     -48.723  12.778  22.293  0.00  0.00    -0.119 NA
ENDROOT
BRANCH   2   6
ATOM      6  C   UNL d   1     -47.711  12.389  23.289  0.00  0.00     0.127 C 
BRANCH   6   7
ATOM      7  N   UNL d   1     -46.938  12.558  23.060  0.00  0.00    -0.301 N 
ATOM      8  C   UNL d   1     -46.349  12.005  23.198  0.00  0.00     0.064 A 
ATOM      9  C   UNL d   1     -45.571  12.162  22.973  0.00  0.00     0.016 A 
ATOM     10  C   UNL d   1     -46.521  11.291  23.560  0.00  0.00     0.018 A 
ATOM     11  C   UNL d   1     -44.979  11.616  23.107  0.00  0.00     0.001 A 
ATOM     12  C   UNL d   1     -45.395  12.883  22.607  0.00  0.00     0.003 A 
ATOM     13  C   UNL d   1     -45.155  10.904  23.469  0.00  0.00     0.000 A 
ATOM     14  C   UNL d   1     -45.933  10.738  23.698  0.00  0.00     0.002 A 
ATOM     15  C   UNL d   1     -45.988  13.437  22.469  0.00  0.00     0.019 A 
ATOM     16  C   UNL d   1     -46.769  13.274  22.697  0.00  0.00     0.080 A 
ENDBRANCH   6   7
ENDBRANCH   2   6
BRANCH   3  17
ATOM     17  C   UNL d   1     -49.782  14.437  23.138  0.00  0.00     0.043 A 
ATOM     18  C   UNL d   1     -50.545  14.289  23.418  0.00  0.00     0.004 A 
ATOM     19  C   UNL d   1     -51.040  14.921  23.608  0.00  0.00     0.000 A 
ATOM     20  C   UNL d   1     -50.769  15.698  23.518  0.00  0.00     0.000 A 
ATOM     21  C   UNL d   1     -50.003  15.838  23.237  0.00  0.00     0.000 A 
ATOM     22  C   UNL d   1     -49.512  15.204  23.048  0.00  0.00     0.004 A 
ENDBRANCH   3  17
TORSDOF 3
ENDMDL
MODEL 6
REMARK VINA RESULT:      -7.8      8.438      9.971
REMARK  3 active torsions:
REMARK  status: ('A' for Active; 'I' for Inactive)
REMARK    1  A    between atoms: C_8  and  C_2 
REMARK    2  A    between atoms: C_9  and  C_3 
REMARK    3  A    between atoms: N_6  and  C_8 
ROOT
ATOM      1  N   UNL d   1     -40.554  14.242  17.454  0.00  0.00    -0.121 NA
ATOM      2  C   UNL d   1     -40.241  14.107  18.745  0.00  0.00     0.222 A 
ATOM      3  C   UNL d   1     -39.738  14.327  17.523  0.00  0.00     0.204 A 
ATOM      4  O   UNL d   1     -39.547  14.243  18.327  0.00  0.00    -0.267 OA
ATOM      5  N   UNL d   1     -40.869  14.105  18.206  0.00  0.00    -0.119 NA
ENDROOT
BRANCH   2   6
ATOM      6  C   UNL d   1     -40.310  13.991  19.562  0.00  0.00     0.127 C 
BRANCH   6   7
ATOM      7  N   UNL d   1     -40.372  14.638  20.069  0.00  0.00    -0.301 N 
ATOM      8  C   UNL d   1     -39.949  14.640  20.771  0.00  0.00     0.064 A 
ATOM      9  C   UNL d   1     -40.003  15.282  21.287  0.00  0.00     0.016 A 
ATOM     10  C   UNL d   1     -39.469  14.008  20.973  0.00  0.00     0.018 A 
ATOM     11  C   UNL d   1     -39.585  15.291  21.988  0.00  0.00     0.001 A 
ATOM     12  C   UNL d   1     -40.488  15.921  21.085  0.00  0.00     0.003 A 
ATOM     13  C   UNL d   1     -39.106  14.658  22.186  0.00  0.00     0.000 A 
ATOM     14  C   UNL d   1     -39.046  14.009  21.675  0.00  0.00     0.002 A 
ATOM     15  C   UNL d   1     -40.912  15.917  20.380  0.00  0.00     0.019 A 
ATOM     16  C   UNL d   1     -40.854  15.269  19.865  0.00  0.00     0.080 A 
ENDBRANCH   6   7
ENDBRANCH   2   6
BRANCH   3  17
ATOM     17  C   UNL d   1     -39.207  14.471  16.906  0.00  0.00     0.043 A 
ATOM     18  C   UNL d   1     -39.066  15.249  16.666  0.00  0.00     0.004 A 
ATOM     19  C   UNL d   1     -38.537  15.396  16.050  0.00  0.00     0.000 A 
ATOM     20  C   UNL d   1     -38.151  14.765  15.679  0.00  0.00     0.000 A 
ATOM     21  C   UNL d   1     -38.297  13.989  15.925  0.00  0.00     0.000 A 
ATOM     22  C   UNL d   1     -38.826  13.846  16.540  0.00  0.00     0.004 A 
ENDBRANCH   3  17
TORSDOF 3
ENDMDL
MODEL 7
REMARK VINA RESULT:      -7.5      8.742     10.372
REMARK  3 active torsions:
REMARK  status: ('A' for Active; 'I' for Inactive)
REMARK    1  A    between atoms: C_8  and  C_2 
REMARK    2  A    between atoms: C_9  and  C_3 
REMARK    3  A    between atoms: N_6  and  C_8 
ROOT
ATOM      1  N   UNL d   1     -40.829  14.146  19.827  0.00  0.00    -0.121 NA
ATOM      2  C   UNL d   1     -40.272  14.448  18.653  0.00  0.00     0.222 A 
ATOM      3  C   UNL d   1     -40.188  14.641  19.975  0.00  0.00     0.204 A 
ATOM      4  O   UNL d   1     -39.844  14.826  19.242  0.00  0.00    -0.267 OA
ATOM      5  N   UNL d   1     -40.886  14.024  19.012  0.00  0.00    -0.119 NA
ENDROOT
BRANCH   2   6
ATOM      6  C   UNL d   1     -40.124  14.479  17.838  0.00  0.00     0.127 C 
BRANCH   6   7
ATOM      7  N   UNL d   1     -39.495  14.055  17.514  0.00  0.00    -0.301 N 
ATOM      8  C   UNL d   1     -39.035  14.402  16.932  0.00  0.00     0.064 A 
ATOM      9  C   UNL d   1     -38.403  13.988  16.600  0.00  0.00     0.016 A 
ATOM     10  C   UNL d   1     -39.193  15.162  16.669  0.00  0.00     0.018 A 
ATOM     11  C   UNL d   1     -37.940  14.326  16.019  0.00  0.00     0.001 A 
ATOM     12  C   UNL d   1     -38.241  13.220  16.864  0.00  0.00     0.003 A 
ATOM     13  C   UNL d   1     -38.101  15.085  15.760  0.00  0.00     0.000 A 
ATOM     14  C   UNL d   1     -38.734  15.508  16.086  0.00  0.00     0.002 A 
ATOM     15  C   UNL d   1     -38.704  12.874  17.450  0.00  0.00     0.019 A 
ATOM     16  C   UNL d   1     -39.339  13.295  17.780  0.00  0.00     0.080 A 
ENDBRANCH   6   7
ENDBRANCH   2   6
BRANCH   3  17
ATOM     17  C   UNL d   1     -39.933  14.904  20.716  0.00  0.00     0.043 A 
ATOM     18  C   UNL d   1     -40.156  15.655  20.978  0.00  0.00     0.004 A 
ATOM     19  C   UNL d   1     -39.905  15.922  21.717  0.00  0.00     0.000 A 
ATOM     20  C   UNL d   1     -39.431  15.435  22.190  0.00  0.00     0.000 A 
ATOM     21  C   UNL d   1     -39.211  14.684  21.922  0.00  0.00     0.000 A 
ATOM     22  C   UNL d   1     -39.465  14.422  21.183  0.00  0.00     0.004 A 
ENDBRANCH   3  17
TORSDOF 3
ENDMDL
MODEL 8
REMARK VINA RESULT:      -7.4      8.710      9.942
REMARK  3 active torsions:
REMARK  status: ('A' for Active; 'I' for Inactive)
REMARK    1  A    between atoms: C_8  and  C_2 
REMARK    2  A    between atoms: C_9  and  C_3 
REMARK    3  A    between atoms: N_6  and  C_8 
ROOT
ATOM      1  N   UNL d   1     -40.892  14.683  20.507  0.00  0.00    -0.121 NA
ATOM      2  C   UNL d   1     -40.315  14.237  19.390  0.00  0.00     0.222 A 
ATOM      3  C   UNL d   1     -40.078  14.675  20.633  0.00  0.00     0.204 A 
ATOM      4  O   UNL d   1     -39.722  14.397  19.936  0.00  0.00    -0.267 OA
ATOM      5  N   UNL d   1     -41.043  14.413  19.741  0.00  0.00    -0.119 NA
ENDROOT
BRANCH   2   6
ATOM      6  C   UNL d   1     -40.210  13.949  18.620  0.00  0.00     0.127 C 
BRANCH   6   7
ATOM      7  N   UNL d   1     -40.061  14.470  17.999  0.00  0.00    -0.301 N 
ATOM      8  C   UNL d   1     -39.503  14.271  17.433  0.00  0.00     0.064 A 
ATOM      9  C   UNL d   1     -39.346  14.784  16.807  0.00  0.00     0.016 A 
ATOM     10  C   UNL d   1     -39.095  13.562  17.478  0.00  0.00     0.018 A 
ATOM     11  C   UNL d   1     -38.792  14.593  16.238  0.00  0.00     0.001 A 
ATOM     12  C   UNL d   1     -39.758  15.500  16.759  0.00  0.00     0.003 A 
ATOM     13  C   UNL d   1     -38.385  13.885  16.287  0.00  0.00     0.000 A 
ATOM     14  C   UNL d   1     -38.537  13.363  16.912  0.00  0.00     0.002 A 
ATOM     15  C   UNL d   1     -40.318  15.698  17.329  0.00  0.00     0.019 A 
ATOM     16  C   UNL d   1     -40.472  15.178  17.957  0.00  0.00     0.080 A 
ENDBRANCH   6   7
ENDBRANCH   2   6
BRANCH   3  17
ATOM     17  C   UNL d   1     -39.687  14.902  21.326  0.00  0.00     0.043 A 
ATOM     18  C   UNL d   1     -39.362  14.322  21.816  0.00  0.00     0.004 A 
ATOM     19  C   UNL d   1     -38.971  14.544  22.508  0.00  0.00     0.000 A 
ATOM     20  C   UNL d   1     -38.909  15.345  22.706  0.00  0.00     0.000 A 
ATOM     21  C   UNL d   1     -39.237  15.921  22.210  0.00  0.00     0.000 A 
ATOM     22  C   UNL d   1     -39.626  15.694  21.520  0.00  0.00     0.004 A 
ENDBRANCH   3  17
TORSDOF 3
ENDMDL
MODEL 9
REMARK VINA RESULT:      -6.6      8.567      9.834
REMARK  3 active torsions:
REMARK  status: ('A' for Active; 'I' for Inactive)
REMARK    1  A    between atoms: C_8  and  C_2 
REMARK    2  A    between atoms: C_9  and  C_3 
REMARK    3  A    between atoms: N_6  and  C_8 
ROOT
ATOM      1  N   UNL d   1     -40.913  14.051  19.062  0.00  0.00    -0.121 NA
ATOM      2  C   UNL d   1     -40.395  14.600  20.162  0.00  0.00     0.222 A 
ATOM      3  C   UNL d   1     -40.521  14.739  18.836  0.00  0.00     0.204 A 
ATOM      4  O   UNL d   1     -40.201  15.078  19.523  0.00  0.00    -0.267 OA
ATOM      5  N   UNL d   1     -40.838  13.960  19.879  0.00  0.00    -0.119 NA
ENDROOT
BRANCH   2   6
ATOM      6  C   UNL d   1     -40.188  14.728  20.954  0.00  0.00     0.127 C 
BRANCH   6   7
ATOM      7  N   UNL d   1     -39.470  14.449  21.246  0.00  0.00    -0.301 N 
ATOM      8  C   UNL d   1     -39.103  14.849  21.860  0.00  0.00     0.064 A 
ATOM      9  C   UNL d   1     -38.383  14.579  22.160  0.00  0.00     0.016 A 
ATOM     10  C   UNL d   1     -39.442  15.520  22.184  0.00  0.00     0.018 A 
ATOM     11  C   UNL d   1     -38.012  14.972  22.771  0.00  0.00     0.001 A 
ATOM     12  C   UNL d   1     -38.039  13.901  21.833  0.00  0.00     0.003 A 
ATOM     13  C   UNL d   1     -38.353  15.642  23.093  0.00  0.00     0.000 A 
ATOM     14  C   UNL d   1     -39.075  15.920  22.798  0.00  0.00     0.002 A 
ATOM     15  C   UNL d   1     -38.409  13.500  21.216  0.00  0.00     0.019 A 
ATOM     16  C   UNL d   1     -39.133  13.777  20.918  0.00  0.00     0.080 A 
ENDBRANCH   6   7
ENDBRANCH   2   6
BRANCH   3  17
ATOM     17  C   UNL d   1     -40.459  15.037  18.067  0.00  0.00     0.043 A 
ATOM     18  C   UNL d   1     -40.997  15.609  17.810  0.00  0.00     0.004 A 
ATOM     19  C   UNL d   1     -40.939  15.909  17.044  0.00  0.00     0.000 A 
ATOM     20  C   UNL d   1     -40.342  15.636  16.539  0.00  0.00     0.000 A 
ATOM     21  C   UNL d   1     -39.807  15.063  16.804  0.00  0.00     0.000 A 
ATOM     22  C   UNL d   1     -39.869  14.766  17.570  0.00  0.00     0.004 A 
ENDBRANCH   3  17
TORSDOF 3
ENDMDL
