MODEL 1
REMARK VINA RESULT:      64.3      0.000      0.000
REMARK  7 active torsions:
REMARK  status: ('A' for Active; 'I' for Inactive)
REMARK    1  A    between atoms: C_3  and  C_1 
REMARK    2  A    between atoms: C_9  and  N_2 
REMARK    3  A    between atoms: C_6  and  C_3 
REMARK    4  A    between atoms: C_8  and  C_3 
REMARK       I    between atoms: N_11  and  C_6 
REMARK    5  A    between atoms: C_26  and  C_7 
REMARK    6  A    between atoms: C_21  and  N_11 
REMARK    7  A    between atoms: C_12  and  C_21 
ROOT
ATOM      1  C   UNL d   1      59.433  49.359  51.145  0.00  0.00     0.103 A 
ATOM      2  N   UNL d   1      58.662  49.448  50.874  0.00  0.00    -0.269 N 
ATOM      3  S   UNL d   1      59.426  49.443  51.966  0.00  0.00    -0.064 SA
ATOM      4  C   UNL d   1      58.172  49.587  51.524  0.00  0.00     0.271 A 
ATOM      5  C   UNL d   1      58.649  49.583  52.198  0.00  0.00     0.087 A 
ATOM      6  O   UNL d   1      57.359  49.707  51.501  0.00  0.00    -0.266 OA
ENDROOT
BRANCH   1   7
ATOM      7  C   UNL d   1      60.101  49.212  50.679  0.00  0.00     0.101 C 
BRANCH   7   8
ATOM      8  C   UNL d   1      60.604  48.582  50.863  0.00  0.00     0.283 C 
ATOM      9  N   UNL d   1      60.841  48.062  50.278  0.00  0.00    -0.204 NA
ATOM     10  O   UNL d   1      60.866  48.481  51.641  0.00  0.00    -0.265 OA
BRANCH   9  11
ATOM     11  C   UNL d   1      61.344  47.432  50.461  0.00  0.00     0.127 C 
BRANCH  11  12
ATOM     12  C   UNL d   1      61.429  46.798  49.944  0.00  0.00     0.119 A 
ATOM     13  O   UNL d   1      61.485  46.833  49.125  0.00  0.00    -0.304 OA
ATOM     14  C   UNL d   1      61.564  46.065  48.837  0.00  0.00     0.123 A 
ATOM     15  C   UNL d   1      61.557  45.553  49.479  0.00  0.00     0.029 A 
ATOM     16  C   UNL d   1      61.474  46.001  50.164  0.00  0.00     0.028 A 
ENDBRANCH  11  12
ENDBRANCH   9  11
ENDBRANCH   7   8
BRANCH   7  17
ATOM     17  C   UNL d   1      60.266  49.698  50.027  0.00  0.00     0.129 C 
ATOM     18  N   UNL d   1      60.725  49.403  49.412  0.00  0.00    -0.146 N 
ENDBRANCH   7  17
ENDBRANCH   1   7
BRANCH   2  19
ATOM     19  C   UNL d   1      58.016  49.494  50.363  0.00  0.00     0.067 A 
ATOM     20  C   UNL d   1      58.132  49.548  49.557  0.00  0.00     0.018 A 
ATOM     21  C   UNL d   1      57.491  49.594  49.050  0.00  0.00     0.008 A 
ATOM     22  C   UNL d   1      56.722  49.585  49.357  0.00  0.00     0.035 A 
ATOM     23  C   UNL d   1      56.607  49.530  50.171  0.00  0.00     0.008 A 
ATOM     24 BR   UNL d   1      56.073  49.630  48.854  0.00  0.00    -0.049 Br
ATOM     25  C   UNL d   1      57.252  49.484  50.675  0.00  0.00     0.018 A 
ENDBRANCH   2  19
BRANCH   5  26
ATOM     26  C   UNL d   1      58.383  49.701  52.972  0.00  0.00     0.011 C 
ATOM     27  C   UNL d   1      58.862  49.477  53.607  0.00  0.00     0.001 C 
ENDBRANCH   5  26
TORSDOF 7
ENDMDL
