MODEL 1
REMARK VINA RESULT:     125.4      0.000      0.000
REMARK  8 active torsions:
REMARK  status: ('A' for Active; 'I' for Inactive)
REMARK    1  A    between atoms: C_6  and  C_1 
REMARK    2  A    between atoms: S_11  and  C_3 
REMARK    3  A    between atoms: C_8  and  C_4 
REMARK       I    between atoms: N_10  and  C_6 
REMARK    4  A    between atoms: C_22  and  N_10 
REMARK    5  A    between atoms: C_21  and  S_11 
REMARK    6  A    between atoms: C_13  and  C_21 
REMARK    7  A    between atoms: O_20  and  C_13 
REMARK    8  A    between atoms: C_24  and  O_20 
ROOT
ATOM      1  C   UNL d   1     -57.128-100.045 -43.497  0.00  0.00     0.078 A 
ATOM      2  C   UNL d   1     -57.328 -99.369 -44.715  0.00  0.00     0.094 A 
ATOM      3  C   UNL d   1     -58.124 -99.265 -44.527  0.00  0.00     0.120 A 
ATOM      4  C   UNL d   1     -56.823 -99.760 -44.202  0.00  0.00     0.041 A 
ATOM      5  C   UNL d   1     -57.925 -99.941 -43.309  0.00  0.00     0.087 A 
ATOM      6  N   UNL d   1     -58.429 -99.550 -43.823  0.00  0.00    -0.238 NA
ATOM      7  C   UNL d   1     -57.029 -99.064 -45.456  0.00  0.00     0.103 C 
ATOM      8  N   UNL d   1     -56.723 -98.769 -46.181  0.00  0.00    -0.191 NA
ATOM      9  C   UNL d   1     -58.251-100.233 -42.581  0.00  0.00     0.021 C 
ENDROOT
BRANCH   4  10
ATOM     10  C   UNL d   1     -56.047 -99.861 -44.386  0.00  0.00     0.101 A 
ATOM     11  O   UNL d   1     -55.671-100.595 -44.426  0.00  0.00    -0.305 OA
ATOM     12  C   UNL d   1     -54.888-100.479 -44.627  0.00  0.00     0.123 A 
ATOM     13  C   UNL d   1     -54.786 -99.686 -44.708  0.00  0.00     0.029 A 
ATOM     14  C   UNL d   1     -55.473 -99.293 -44.567  0.00  0.00     0.027 A 
ENDBRANCH   4  10
BRANCH   3  15
ATOM     15  S   UNL d   1     -58.655 -98.863 -45.050  0.00  0.00    -0.061 SA
BRANCH  15  16
ATOM     16  C   UNL d   1     -59.394 -99.204 -45.226  0.00  0.00     0.105 C 
BRANCH  16  17
ATOM     17  C   UNL d   1     -59.592 -99.377 -46.003  0.00  0.00     0.307 C 
ATOM     18  O   UNL d   1     -59.737 -98.762 -46.527  0.00  0.00    -0.258 OA
BRANCH  17  19
ATOM     19  O   UNL d   1     -59.645-100.167 -46.250  0.00  0.00    -0.273 OA
BRANCH  19  20
ATOM     20  C   UNL d   1     -59.783-100.344 -47.037  0.00  0.00     0.103 C 
ATOM     21  C   UNL d   1     -59.763-101.127 -47.295  0.00  0.00     0.027 C 
ATOM     22  C   UNL d   1     -59.943 -99.731 -47.566  0.00  0.00     0.027 C 
ENDBRANCH  19  20
ENDBRANCH  17  19
ENDBRANCH  16  17
ENDBRANCH  15  16
ENDBRANCH   3  15
BRANCH   1  23
ATOM     23  C   UNL d   1     -56.619-100.454 -42.951  0.00  0.00     0.281 C 
ATOM     24  N   UNL d   1     -56.525-101.265 -43.012  0.00  0.00    -0.208 NA
ATOM     25  O   UNL d   1     -56.224-100.026 -42.367  0.00  0.00    -0.265 OA
BRANCH  24  26
ATOM     26  C   UNL d   1     -56.023-101.660 -42.472  0.00  0.00     0.085 A 
ATOM     27  C   UNL d   1     -55.205-101.573 -42.530  0.00  0.00     0.019 A 
ATOM     28  C   UNL d   1     -54.718-101.972 -41.984  0.00  0.00     0.002 A 
ATOM     29  C   UNL d   1     -55.053-102.443 -41.401  0.00  0.00     0.000 A 
ATOM     30  C   UNL d   1     -55.871-102.514 -41.364  0.00  0.00     0.002 A 
ATOM     31  C   UNL d   1     -56.354-102.130 -41.889  0.00  0.00     0.019 A 
ENDBRANCH  24  26
ENDBRANCH   1  23
TORSDOF 8
ENDMDL
