MODEL 1
REMARK VINA RESULT:      56.3      0.000      0.000
REMARK  4 active torsions:
REMARK  status: ('A' for Active; 'I' for Inactive)
REMARK    1  A    between atoms: S_5  and  C_3 
REMARK    2  A    between atoms: C_12  and  S_5 
REMARK    3  A    between atoms: C_23  and  N_6 
REMARK    4  A    between atoms: C_28  and  C_23 
ROOT
ATOM      1  C   UNL d   1      13.944  13.112  -2.569  0.00  0.00     0.155 A 
ATOM      2  C   UNL d   1      13.946  13.818  -2.978  0.00  0.00     0.092 A 
ATOM      3  C   UNL d   1      14.531  14.466  -1.865  0.00  0.00     0.124 A 
ATOM      4  N   UNL d   1      13.647  12.431  -2.924  0.00  0.00    -0.210 NA
ATOM      5  N   UNL d   1      14.233  13.079  -1.812  0.00  0.00    -0.273 N 
ATOM      6  C   UNL d   1      14.530  13.752  -1.451  0.00  0.00     0.181 A 
ATOM      7  C   UNL d   1      13.653  13.852  -3.744  0.00  0.00     0.269 A 
ATOM      8  N   UNL d   1      13.358  13.172  -4.096  0.00  0.00    -0.258 N 
ATOM      9  C   UNL d   1      14.238  14.496  -2.629  0.00  0.00     0.022 A 
ATOM     10  C   UNL d   1      13.358  12.461  -3.679  0.00  0.00     0.152 A 
ATOM     11  N   UNL d   1      14.824  13.713  -0.677  0.00  0.00    -0.128 N 
ATOM     12  C   UNL d   1      13.062  13.194  -4.865  0.00  0.00     0.084 A 
ATOM     13  O   UNL d   1      13.653  14.572  -4.166  0.00  0.00    -0.266 OA
ATOM     14  C   UNL d   1      13.062  11.779  -4.034  0.00  0.00     0.038 A 
ATOM     15  C   UNL d   1      12.769  12.516  -5.214  0.00  0.00     0.019 A 
ATOM     16  C   UNL d   1      12.769  11.805  -4.797  0.00  0.00     0.005 A 
ENDROOT
BRANCH   3  17
ATOM     17  S   UNL d   1      14.830  15.150  -1.506  0.00  0.00     0.213 S 
ATOM     18  O   UNL d   1      15.096  15.435  -2.243  0.00  0.00    -0.217 OA
ATOM     19  O   UNL d   1      14.569  14.876  -0.769  0.00  0.00    -0.217 OA
BRANCH  17  20
ATOM     20  C   UNL d   1      15.127  15.836  -1.133  0.00  0.00     0.088 A 
ATOM     21  C   UNL d   1      15.523  15.776  -0.409  0.00  0.00     0.014 A 
ATOM     22  C   UNL d   1      15.821  16.461  -0.035  0.00  0.00     0.030 A 
ATOM     23  C   UNL d   1      15.718  17.204  -0.390  0.00  0.00     0.140 A 
ATOM     24  C   UNL d   1      15.315  17.258  -1.125  0.00  0.00     0.030 A 
ATOM     25  F   UNL d   1      16.010  17.889  -0.025  0.00  0.00    -0.204 F 
ATOM     26  C   UNL d   1      15.020  16.575  -1.495  0.00  0.00     0.014 A 
ENDBRANCH  17  20
ENDBRANCH   3  17
BRANCH   5  27
ATOM     27  C   UNL d   1      14.232  12.353  -1.391  0.00  0.00     0.083 C 
BRANCH  27  28
ATOM     28  C   UNL d   1      14.412  12.351  -0.574  0.00  0.00     0.019 C 
ATOM     29  C   UNL d   1      14.059  11.793  -0.063  0.00  0.00     0.002 C 
ENDBRANCH  27  28
ENDBRANCH   5  27
TORSDOF 4
ENDMDL
