MODEL 1
REMARK VINA RESULT:      -4.5      0.000      0.000
REMARK  5 active torsions:
REMARK  status: ('A' for Active; 'I' for Inactive)
REMARK    1  A    between atoms: N_2  and  S_1 
REMARK    2  A    between atoms: C_3  and  S_1 
REMARK    3  A    between atoms: C_8  and  N_2 
REMARK    4  A    between atoms: C_7  and  C_6 
REMARK    5  A    between atoms: C_16  and  C_8 
ROOT
ATOM      1  C   UNL d   1      58.667  -0.104  29.770  0.00  0.00     0.105 A 
ATOM      2  C   UNL d   1      57.569  -0.115  31.012  0.00  0.00     0.000 A 
ATOM      3  C   UNL d   1      58.837   0.288  30.474  0.00  0.00     0.013 A 
ATOM      4  C   UNL d   1      57.951  -0.501  29.685  0.00  0.00     0.013 A 
ATOM      5  C   UNL d   1      58.285   0.283  31.098  0.00  0.00     0.001 A 
ATOM      6  C   UNL d   1      57.400  -0.507  30.309  0.00  0.00     0.001 A 
ENDROOT
BRANCH   1   7
ATOM      7  S   UNL d   1      59.217  -0.095  29.154  0.00  0.00     0.285 S 
ATOM      8  O   UNL d   1      59.015   0.680  28.978  0.00  0.00    -0.198 OA
ATOM      9  O   UNL d   1      59.760  -0.084  28.544  0.00  0.00    -0.198 OA
BRANCH   7  10
ATOM     10  N   UNL d   1      59.422  -0.875  29.328  0.00  0.00    -0.155 NA
BRANCH  10  11
ATOM     11  C   UNL d   1      59.938  -1.284  28.827  0.00  0.00     0.137 C 
BRANCH  11  12
ATOM     12  C   UNL d   1      60.199  -2.050  29.038  0.00  0.00     0.120 A 
ATOM     13  O   UNL d   1      60.813  -2.235  29.561  0.00  0.00    -0.304 OA
ATOM     14  C   UNL d   1      60.872  -3.057  29.598  0.00  0.00     0.123 A 
ATOM     15  C   UNL d   1      60.304  -3.377  29.105  0.00  0.00     0.029 A 
ATOM     16  C   UNL d   1      59.885  -2.756  28.757  0.00  0.00     0.028 A 
ENDBRANCH  11  12
ENDBRANCH  10  11
ENDBRANCH   7  10
ENDBRANCH   1   7
BRANCH   2  17
ATOM     17  C   UNL d   1      57.032  -0.118  31.627  0.00  0.00     0.000 A 
ATOM     18  C   UNL d   1      56.772  -0.835  31.940  0.00  0.00     0.000 A 
ATOM     19  C   UNL d   1      56.229  -0.847  32.561  0.00  0.00     0.000 A 
ATOM     20  C   UNL d   1      55.945  -0.126  32.869  0.00  0.00     0.000 A 
ATOM     21  C   UNL d   1      56.204   0.590  32.557  0.00  0.00     0.000 A 
ATOM     22  C   UNL d   1      55.402  -0.134  33.490  0.00  0.00     0.000 C 
ATOM     23  C   UNL d   1      56.747   0.598  31.936  0.00  0.00     0.000 A 
ENDBRANCH   2  17
TORSDOF 5
ENDMDL
MODEL 2
REMARK VINA RESULT:      -2.6      8.324      9.994
REMARK  5 active torsions:
REMARK  status: ('A' for Active; 'I' for Inactive)
REMARK    1  A    between atoms: N_2  and  S_1 
REMARK    2  A    between atoms: C_3  and  S_1 
REMARK    3  A    between atoms: C_8  and  N_2 
REMARK    4  A    between atoms: C_7  and  C_6 
REMARK    5  A    between atoms: C_16  and  C_8 
ROOT
ATOM      1  C   UNL d   1      59.573  -9.172  34.737  0.00  0.00     0.105 A 
ATOM      2  C   UNL d   1      59.910  -9.385  33.127  0.00  0.00     0.000 A 
ATOM      3  C   UNL d   1      58.976  -9.398  34.216  0.00  0.00     0.013 A 
ATOM      4  C   UNL d   1      60.337  -9.053  34.456  0.00  0.00     0.013 A 
ATOM      5  C   UNL d   1      59.145  -9.504  33.407  0.00  0.00     0.001 A 
ATOM      6  C   UNL d   1      60.507  -9.160  33.647  0.00  0.00     0.001 A 
ENDROOT
BRANCH   1   7
ATOM      7  S   UNL d   1      59.400  -9.068  35.537  0.00  0.00     0.285 S 
ATOM      8  O   UNL d   1      59.047  -9.807  35.562  0.00  0.00    -0.198 OA
ATOM      9  O   UNL d   1      59.228  -8.967  36.329  0.00  0.00    -0.198 OA
BRANCH   7  10
ATOM     10  N   UNL d   1      59.755  -8.323  35.515  0.00  0.00    -0.155 NA
BRANCH  10  11
ATOM     11  C   UNL d   1      59.665  -7.809  36.156  0.00  0.00     0.137 C 
BRANCH  11  12
ATOM     12  C   UNL d   1      60.008  -7.046  36.125  0.00  0.00     0.120 A 
ATOM     13  O   UNL d   1      60.795  -6.852  36.290  0.00  0.00    -0.304 OA
ATOM     14  C   UNL d   1      60.879  -6.038  36.188  0.00  0.00     0.123 A 
ATOM     15  C   UNL d   1      60.156  -5.731  35.963  0.00  0.00     0.029 A 
ATOM     16  C   UNL d   1      59.614  -6.353  35.924  0.00  0.00     0.028 A 
ENDBRANCH  11  12
ENDBRANCH  10  11
ENDBRANCH   7  10
ENDBRANCH   1   7
BRANCH   2  17
ATOM     17  C   UNL d   1      60.072  -9.491  32.334  0.00  0.00     0.000 A 
ATOM     18  C   UNL d   1      59.460  -9.450  31.783  0.00  0.00     0.000 A 
ATOM     19  C   UNL d   1      59.614  -9.556  30.980  0.00  0.00     0.000 A 
ATOM     20  C   UNL d   1      60.396  -9.705  30.730  0.00  0.00     0.000 A 
ATOM     21  C   UNL d   1      61.007  -9.746  31.279  0.00  0.00     0.000 A 
ATOM     22  C   UNL d   1      60.554  -9.811  29.927  0.00  0.00     0.000 C 
ATOM     23  C   UNL d   1      60.849  -9.640  32.082  0.00  0.00     0.000 A 
ENDBRANCH   2  17
TORSDOF 5
ENDMDL
