MODEL 1
REMARK VINA RESULT:      -8.3      0.000      0.000
REMARK  1 active torsions:
REMARK  status: ('A' for Active; 'I' for Inactive)
REMARK    1  A    between atoms: C_5  and  N_1 
ROOT
ATOM      1  N   UNL d   1     -47.984  12.346  23.018  0.00  0.00    -0.226 N 
ATOM      2  C   UNL d   1     -47.821  11.607  23.341  0.00  0.00     0.359 A 
ATOM      3  C   UNL d   1     -47.374  12.899  22.921  0.00  0.00     0.273 A 
ATOM      4  N   UNL d   1     -47.051  11.413  23.569  0.00  0.00    -0.153 NA
ATOM      5  C   UNL d   1     -46.441  11.966  23.472  0.00  0.00     0.288 A 
ATOM      6  C   UNL d   1     -46.603  12.710  23.147  0.00  0.00     0.124 A 
ATOM      7  O   UNL d   1     -48.420  11.054  23.440  0.00  0.00    -0.244 OA
ATOM      8  O   UNL d   1     -47.531  13.638  22.599  0.00  0.00    -0.266 OA
ATOM      9  O   UNL d   1     -45.673  11.780  23.696  0.00  0.00    -0.265 OA
ENDROOT
BRANCH   1  10
ATOM     10  C   UNL d   1     -48.749  12.535  22.792  0.00  0.00     0.072 A 
ATOM     11  C   UNL d   1     -49.268  12.885  23.348  0.00  0.00     0.029 A 
ATOM     12  C   UNL d   1     -50.033  13.074  23.123  0.00  0.00     0.059 A 
ATOM     13 CL   UNL d   1     -50.540  13.420  23.676  0.00  0.00    -0.082 Cl
ATOM     14  C   UNL d   1     -50.294  12.922  22.360  0.00  0.00     0.011 A 
ATOM     15  C   UNL d   1     -49.777  12.575  21.813  0.00  0.00     0.002 A 
ATOM     16  C   UNL d   1     -51.064  13.112  22.132  0.00  0.00     0.001 C 
ATOM     17  C   UNL d   1     -49.000  12.382  22.036  0.00  0.00     0.018 A 
ENDBRANCH   1  10
TORSDOF 1
ENDMDL
MODEL 2
REMARK VINA RESULT:      -8.2      0.479      1.224
REMARK  1 active torsions:
REMARK  status: ('A' for Active; 'I' for Inactive)
REMARK    1  A    between atoms: C_5  and  N_1 
ROOT
ATOM      1  N   UNL d   1     -48.063  12.445  22.873  0.00  0.00    -0.226 N 
ATOM      2  C   UNL d   1     -47.469  13.013  22.914  0.00  0.00     0.359 A 
ATOM      3  C   UNL d   1     -47.907  11.666  23.108  0.00  0.00     0.273 A 
ATOM      4  N   UNL d   1     -46.717  12.810  23.189  0.00  0.00    -0.153 NA
ATOM      5  C   UNL d   1     -46.561  12.031  23.424  0.00  0.00     0.288 A 
ATOM      6  C   UNL d   1     -47.157  11.457  23.383  0.00  0.00     0.124 A 
ATOM      7  O   UNL d   1     -47.617  13.787  22.682  0.00  0.00    -0.244 OA
ATOM      8  O   UNL d   1     -48.496  11.094  23.069  0.00  0.00    -0.266 OA
ATOM      9  O   UNL d   1     -45.815  11.822  23.698  0.00  0.00    -0.265 OA
ENDROOT
BRANCH   1  10
ATOM     10  C   UNL d   1     -48.808  12.650  22.600  0.00  0.00     0.072 A 
ATOM     11  C   UNL d   1     -49.396  12.887  23.145  0.00  0.00     0.029 A 
ATOM     12  C   UNL d   1     -50.141  13.093  22.873  0.00  0.00     0.059 A 
ATOM     13 CL   UNL d   1     -50.717  13.326  23.417  0.00  0.00    -0.082 Cl
ATOM     14  C   UNL d   1     -50.314  13.068  22.071  0.00  0.00     0.011 A 
ATOM     15  C   UNL d   1     -49.729  12.833  21.534  0.00  0.00     0.002 A 
ATOM     16  C   UNL d   1     -51.064  13.274  21.795  0.00  0.00     0.001 C 
ATOM     17  C   UNL d   1     -48.972  12.623  21.805  0.00  0.00     0.018 A 
ENDBRANCH   1  10
TORSDOF 1
ENDMDL
MODEL 3
REMARK VINA RESULT:      -7.7      1.977      3.442
REMARK  1 active torsions:
REMARK  status: ('A' for Active; 'I' for Inactive)
REMARK    1  A    between atoms: C_5  and  N_1 
ROOT
ATOM      1  N   UNL d   1     -49.114  13.263  22.409  0.00  0.00    -0.226 N 
ATOM      2  C   UNL d   1     -49.274  13.199  21.604  0.00  0.00     0.359 A 
ATOM      3  C   UNL d   1     -49.607  13.721  22.893  0.00  0.00     0.273 A 
ATOM      4  N   UNL d   1     -49.924  13.591  21.276  0.00  0.00    -0.153 NA
ATOM      5  C   UNL d   1     -50.417  14.049  21.761  0.00  0.00     0.288 A 
ATOM      6  C   UNL d   1     -50.257  14.114  22.571  0.00  0.00     0.124 A 
ATOM      7  O   UNL d   1     -48.790  12.748  21.118  0.00  0.00    -0.244 OA
ATOM      8  O   UNL d   1     -49.452  13.788  23.697  0.00  0.00    -0.266 OA
ATOM      9  O   UNL d   1     -51.064  14.440  21.442  0.00  0.00    -0.265 OA
ENDROOT
BRANCH   1  10
ATOM     10  C   UNL d   1     -48.469  12.874  22.730  0.00  0.00     0.072 A 
ATOM     11  C   UNL d   1     -47.730  13.264  22.770  0.00  0.00     0.029 A 
ATOM     12  C   UNL d   1     -47.084  12.876  23.091  0.00  0.00     0.059 A 
ATOM     13 CL   UNL d   1     -46.358  13.266  23.128  0.00  0.00    -0.082 Cl
ATOM     14  C   UNL d   1     -47.156  12.108  23.373  0.00  0.00     0.011 A 
ATOM     15  C   UNL d   1     -47.889  11.725  23.331  0.00  0.00     0.002 A 
ATOM     16  C   UNL d   1     -46.507  11.715  23.697  0.00  0.00     0.001 C 
ATOM     17  C   UNL d   1     -48.548  12.115  23.007  0.00  0.00     0.018 A 
ENDBRANCH   1  10
TORSDOF 1
ENDMDL
MODEL 4
REMARK VINA RESULT:      -7.6      1.734      3.085
REMARK  1 active torsions:
REMARK  status: ('A' for Active; 'I' for Inactive)
REMARK    1  A    between atoms: C_5  and  N_1 
ROOT
ATOM      1  N   UNL d   1     -48.795  12.499  23.039  0.00  0.00    -0.226 N 
ATOM      2  C   UNL d   1     -49.013  11.711  22.946  0.00  0.00     0.359 A 
ATOM      3  C   UNL d   1     -49.335  13.044  23.352  0.00  0.00     0.273 A 
ATOM      4  N   UNL d   1     -49.770  11.460  23.163  0.00  0.00    -0.153 NA
ATOM      5  C   UNL d   1     -50.310  12.005  23.476  0.00  0.00     0.288 A 
ATOM      6  C   UNL d   1     -50.092  12.799  23.570  0.00  0.00     0.124 A 
ATOM      7  O   UNL d   1     -48.483  11.165  22.636  0.00  0.00    -0.244 OA
ATOM      8  O   UNL d   1     -49.123  13.832  23.447  0.00  0.00    -0.266 OA
ATOM      9  O   UNL d   1     -51.064  11.763  23.694  0.00  0.00    -0.265 OA
ENDROOT
BRANCH   1  10
ATOM     10  C   UNL d   1     -48.043  12.744  22.822  0.00  0.00     0.072 A 
ATOM     11  C   UNL d   1     -47.412  12.670  23.367  0.00  0.00     0.029 A 
ATOM     12  C   UNL d   1     -46.661  12.915  23.152  0.00  0.00     0.059 A 
ATOM     13 CL   UNL d   1     -46.043  12.840  23.694  0.00  0.00    -0.082 Cl
ATOM     14  C   UNL d   1     -46.522  13.231  22.407  0.00  0.00     0.011 A 
ATOM     15  C   UNL d   1     -47.149  13.302  21.870  0.00  0.00     0.002 A 
ATOM     16  C   UNL d   1     -45.766  13.478  22.187  0.00  0.00     0.001 C 
ATOM     17  C   UNL d   1     -47.913  13.055  22.084  0.00  0.00     0.018 A 
ENDBRANCH   1  10
TORSDOF 1
ENDMDL
