MODEL 1
REMARK VINA RESULT:      27.4      0.000      0.000
REMARK  4 active torsions:
REMARK  status: ('A' for Active; 'I' for Inactive)
REMARK    1  A    between atoms: C_2  and  C_1 
REMARK    2  A    between atoms: N_4  and  C_1 
REMARK    3  A    between atoms: O_13  and  C_5 
REMARK    4  A    between atoms: O_12  and  C_6 
ROOT
ATOM      1  C   UNL d   1      13.537  12.434  -2.476  0.00  0.00     0.031 A 
ATOM      2  C   UNL d   1      13.491  13.095  -3.987  0.00  0.00     0.138 A 
ATOM      3  C   UNL d   1      13.467  12.272  -3.897  0.00  0.00     0.118 A 
ATOM      4  C   UNL d   1      13.538  13.588  -3.321  0.00  0.00     0.118 A 
ATOM      5  C   UNL d   1      13.490  11.950  -3.142  0.00  0.00     0.029 A 
ATOM      6  C   UNL d   1      13.561  13.256  -2.567  0.00  0.00     0.029 A 
ATOM      7  O   UNL d   1      13.469  13.436  -4.741  0.00  0.00    -0.324 OA
ATOM      8  C   UNL d   1      13.444  13.721  -5.508  0.00  0.00     0.182 C 
ENDROOT
BRANCH   4   9
ATOM      9  O   UNL d   1      13.563  14.410  -3.410  0.00  0.00    -0.326 OA
ATOM     10  C   UNL d   1      14.153  14.845  -3.043  0.00  0.00     0.181 C 
ENDBRANCH   4   9
BRANCH   3  11
ATOM     11  O   UNL d   1      13.419  11.780  -4.573  0.00  0.00    -0.326 OA
ATOM     12  C   UNL d   1      12.770  11.863  -5.091  0.00  0.00     0.181 C 
ENDBRANCH   3  11
BRANCH   1  13
ATOM     13  C   UNL d   1      13.560  12.108  -1.726  0.00  0.00     0.120 C 
ATOM     14  S   UNL d   1      12.867  11.780  -1.401  0.00  0.00    -0.059 SA
BRANCH  13  15
ATOM     15  N   UNL d   1      14.270  12.107  -1.295  0.00  0.00    -0.292 N 
ATOM     16  C   UNL d   1      14.266  12.439  -0.554  0.00  0.00     0.108 A 
ATOM     17  C   UNL d   1      14.965  12.451  -0.102  0.00  0.00     0.142 A 
ATOM     18  O   UNL d   1      15.656  12.127  -0.405  0.00  0.00    -0.300 OA
ATOM     19  C   UNL d   1      15.653  11.791  -1.158  0.00  0.00     0.142 A 
ATOM     20  C   UNL d   1      14.964  11.781  -1.601  0.00  0.00     0.108 A 
ENDBRANCH  13  15
ENDBRANCH   1  13
TORSDOF 4
ENDMDL
