MODEL 1
REMARK VINA RESULT:      -9.1      0.000      0.000
REMARK  8 active torsions:
REMARK  status: ('A' for Active; 'I' for Inactive)
REMARK    1  A    between atoms: O_18  and  C_5 
REMARK    2  A    between atoms: C_7  and  C_15 
REMARK       I    between atoms: N_14  and  C_7 
REMARK    3  A    between atoms: O_10  and  C_8 
REMARK    4  A    between atoms: O_19  and  C_9 
REMARK    5  A    between atoms: C_15  and  O_10 
REMARK    6  A    between atoms: C_20  and  N_14 
REMARK    7  A    between atoms: C_16  and  C_26 
REMARK    8  A    between atoms: C_26  and  C_20 
ROOT
ATOM      1  C   UNL d   1      51.432  34.153  52.494  0.00  0.00     0.304 C 
ATOM      2  O   UNL d   1      51.404  34.177  51.667  0.00  0.00    -0.263 OA
ATOM      3  N   UNL d   1      50.785  34.375  52.947  0.00  0.00    -0.205 NA
ENDROOT
BRANCH   1   4
ATOM      4  C   UNL d   1      52.126  33.903  52.868  0.00  0.00     0.185 C 
BRANCH   4   5
ATOM      5  O   UNL d   1      52.383  33.127  52.776  0.00  0.00    -0.298 OA
BRANCH   5   6
ATOM      6  C   UNL d   1      53.014  32.852  53.218  0.00  0.00     0.122 A 
ATOM      7  C   UNL d   1      53.151  32.041  53.285  0.00  0.00     0.117 A 
ATOM      8  O   UNL d   1      52.746  31.387  52.970  0.00  0.00    -0.330 OA
ATOM      9  C   UNL d   1      53.789  31.764  53.731  0.00  0.00     0.022 A 
ATOM     10  C   UNL d   1      53.140  30.702  53.226  0.00  0.00     0.117 A 
ATOM     11  C   UNL d   1      52.541  30.355  52.783  0.00  0.00     0.035 C 
ATOM     12  C   UNL d   1      53.582  30.088  53.519  0.00  0.00     0.035 C 
ATOM     13  C   UNL d   1      53.781  30.937  53.694  0.00  0.00     0.003 A 
ATOM     14  C   UNL d   1      54.287  32.299  54.109  0.00  0.00     0.002 A 
ATOM     15  C   UNL d   1      54.151  33.097  54.042  0.00  0.00     0.002 A 
ATOM     16  C   UNL d   1      53.513  33.374  53.595  0.00  0.00     0.027 A 
ENDBRANCH   5   6
ENDBRANCH   4   5
ENDBRANCH   1   4
BRANCH   3  17
ATOM     17  C   UNL d   1      50.099  34.622  52.577  0.00  0.00     0.102 C 
BRANCH  17  18
ATOM     18  C   UNL d   1      49.440  34.837  53.026  0.00  0.00     0.021 C 
BRANCH  18  19
ATOM     19  C   UNL d   1      48.772  35.154  52.656  0.00  0.00     0.004 A 
ATOM     20  C   UNL d   1      48.335  35.734  53.028  0.00  0.00     0.026 A 
ATOM     21  C   UNL d   1      47.666  36.056  52.666  0.00  0.00     0.116 A 
ATOM     22  C   UNL d   1      47.439  35.787  51.920  0.00  0.00     0.116 A 
ATOM     23  C   UNL d   1      47.876  35.201  51.541  0.00  0.00     0.026 A 
ATOM     24  C   UNL d   1      48.547  34.876  51.900  0.00  0.00     0.002 A 
BRANCH  21  25
ATOM     25  O   UNL d   1      47.233  36.635  53.038  0.00  0.00    -0.326 OA
ATOM     26  C   UNL d   1      47.255  36.708  53.870  0.00  0.00     0.181 C 
ENDBRANCH  21  25
BRANCH  22  27
ATOM     27  O   UNL d   1      46.770  36.104  51.550  0.00  0.00    -0.326 OA
ATOM     28  C   UNL d   1      46.386  35.679  50.957  0.00  0.00     0.181 C 
ENDBRANCH  22  27
ENDBRANCH  18  19
ENDBRANCH  17  18
ENDBRANCH   3  17
TORSDOF 8
ENDMDL
MODEL 2
REMARK VINA RESULT:      -9.0      0.797      1.673
REMARK  8 active torsions:
REMARK  status: ('A' for Active; 'I' for Inactive)
REMARK    1  A    between atoms: O_18  and  C_5 
REMARK    2  A    between atoms: C_7  and  C_15 
REMARK       I    between atoms: N_14  and  C_7 
REMARK    3  A    between atoms: O_10  and  C_8 
REMARK    4  A    between atoms: O_19  and  C_9 
REMARK    5  A    between atoms: C_15  and  O_10 
REMARK    6  A    between atoms: C_20  and  N_14 
REMARK    7  A    between atoms: C_16  and  C_26 
REMARK    8  A    between atoms: C_26  and  C_20 
ROOT
ATOM      1  C   UNL d   1      50.967  34.019  52.541  0.00  0.00     0.304 C 
ATOM      2  O   UNL d   1      51.218  34.444  51.876  0.00  0.00    -0.263 OA
ATOM      3  N   UNL d   1      50.253  34.189  52.908  0.00  0.00    -0.205 NA
ENDROOT
BRANCH   1   4
ATOM      4  C   UNL d   1      51.446  33.414  52.838  0.00  0.00     0.185 C 
BRANCH   4   5
ATOM      5  O   UNL d   1      52.215  33.581  53.076  0.00  0.00    -0.298 OA
BRANCH   5   6
ATOM      6  C   UNL d   1      52.707  32.974  53.318  0.00  0.00     0.122 A 
ATOM      7  C   UNL d   1      53.293  33.114  53.882  0.00  0.00     0.117 A 
ATOM      8  O   UNL d   1      53.506  33.805  54.294  0.00  0.00    -0.330 OA
ATOM      9  C   UNL d   1      53.789  32.501  54.126  0.00  0.00     0.022 A 
ATOM     10  C   UNL d   1      54.140  33.612  54.795  0.00  0.00     0.117 A 
ATOM     11  C   UNL d   1      54.060  34.409  54.980  0.00  0.00     0.035 C 
ATOM     12  C   UNL d   1      54.753  33.340  55.251  0.00  0.00     0.035 C 
ATOM     13  C   UNL d   1      54.312  32.810  54.689  0.00  0.00     0.003 A 
ATOM     14  C   UNL d   1      53.699  31.749  53.804  0.00  0.00     0.002 A 
ATOM     15  C   UNL d   1      53.122  31.612  53.248  0.00  0.00     0.002 A 
ATOM     16  C   UNL d   1      52.626  32.226  53.005  0.00  0.00     0.027 A 
ENDBRANCH   5   6
ENDBRANCH   4   5
ENDBRANCH   1   4
BRANCH   3  17
ATOM     17  C   UNL d   1      49.779  34.787  52.614  0.00  0.00     0.102 C 
BRANCH  17  18
ATOM     18  C   UNL d   1      49.289  35.214  53.122  0.00  0.00     0.021 C 
BRANCH  18  19
ATOM     19  C   UNL d   1      48.568  35.513  52.849  0.00  0.00     0.004 A 
ATOM     20  C   UNL d   1      48.080  35.928  53.353  0.00  0.00     0.026 A 
ATOM     21  C   UNL d   1      47.357  36.229  53.088  0.00  0.00     0.116 A 
ATOM     22  C   UNL d   1      47.129  36.108  52.304  0.00  0.00     0.116 A 
ATOM     23  C   UNL d   1      47.619  35.689  51.792  0.00  0.00     0.026 A 
ATOM     24  C   UNL d   1      48.343  35.386  52.054  0.00  0.00     0.002 A 
BRANCH  21  25
ATOM     25  O   UNL d   1      46.872  36.643  53.593  0.00  0.00    -0.326 OA
ATOM     26  C   UNL d   1      47.065  36.709  54.403  0.00  0.00     0.181 C 
ENDBRANCH  21  25
BRANCH  22  27
ATOM     27  O   UNL d   1      46.408  36.406  52.031  0.00  0.00    -0.326 OA
ATOM     28  C   UNL d   1      46.017  36.033  51.408  0.00  0.00     0.181 C 
ENDBRANCH  22  27
ENDBRANCH  18  19
ENDBRANCH  17  18
ENDBRANCH   3  17
TORSDOF 8
ENDMDL
MODEL 3
REMARK VINA RESULT:      -8.3      1.185      6.670
REMARK  8 active torsions:
REMARK  status: ('A' for Active; 'I' for Inactive)
REMARK    1  A    between atoms: O_18  and  C_5 
REMARK    2  A    between atoms: C_7  and  C_15 
REMARK       I    between atoms: N_14  and  C_7 
REMARK    3  A    between atoms: O_10  and  C_8 
REMARK    4  A    between atoms: O_19  and  C_9 
REMARK    5  A    between atoms: C_15  and  O_10 
REMARK    6  A    between atoms: C_20  and  N_14 
REMARK    7  A    between atoms: C_16  and  C_26 
REMARK    8  A    between atoms: C_26  and  C_20 
ROOT
ATOM      1  C   UNL d   1      50.322  34.133  52.760  0.00  0.00     0.304 C 
ATOM      2  O   UNL d   1      50.097  33.588  53.342  0.00  0.00    -0.263 OA
ATOM      3  N   UNL d   1      51.112  34.317  52.635  0.00  0.00    -0.205 NA
ENDROOT
BRANCH   1   4
ATOM      4  C   UNL d   1      49.740  34.495  52.298  0.00  0.00     0.185 C 
BRANCH   4   5
ATOM      5  O   UNL d   1      49.196  35.003  52.650  0.00  0.00    -0.298 OA
BRANCH   5   6
ATOM      6  C   UNL d   1      48.523  35.224  52.242  0.00  0.00     0.122 A 
ATOM      7  C   UNL d   1      47.931  35.656  52.622  0.00  0.00     0.117 A 
ATOM      8  O   UNL d   1      47.870  35.939  53.402  0.00  0.00    -0.330 OA
ATOM      9  C   UNL d   1      47.251  35.879  52.209  0.00  0.00     0.022 A 
ATOM     10  C   UNL d   1      47.146  36.339  53.467  0.00  0.00     0.117 A 
ATOM     11  C   UNL d   1      47.424  36.439  54.234  0.00  0.00     0.035 C 
ATOM     12  C   UNL d   1      46.424  36.709  53.445  0.00  0.00     0.035 C 
ATOM     13  C   UNL d   1      46.767  36.301  52.732  0.00  0.00     0.003 A 
ATOM     14  C   UNL d   1      47.165  35.670  51.418  0.00  0.00     0.002 A 
ATOM     15  C   UNL d   1      47.749  35.244  51.046  0.00  0.00     0.002 A 
ATOM     16  C   UNL d   1      48.429  35.021  51.458  0.00  0.00     0.027 A 
ENDBRANCH   5   6
ENDBRANCH   4   5
ENDBRANCH   1   4
BRANCH   3  17
ATOM     17  C   UNL d   1      51.688  33.959  53.091  0.00  0.00     0.102 C 
BRANCH  17  18
ATOM     18  C   UNL d   1      52.486  34.072  52.915  0.00  0.00     0.021 C 
BRANCH  18  19
ATOM     19  C   UNL d   1      53.068  33.832  53.451  0.00  0.00     0.004 A 
ATOM     20  C   UNL d   1      53.371  33.077  53.416  0.00  0.00     0.026 A 
ATOM     21  C   UNL d   1      53.953  32.830  53.948  0.00  0.00     0.116 A 
ATOM     22  C   UNL d   1      54.228  33.355  54.522  0.00  0.00     0.116 A 
ATOM     23  C   UNL d   1      53.924  34.119  54.562  0.00  0.00     0.026 A 
ATOM     24  C   UNL d   1      53.342  34.370  54.030  0.00  0.00     0.002 A 
BRANCH  21  25
ATOM     25  O   UNL d   1      54.254  32.075  53.910  0.00  0.00    -0.326 OA
ATOM     26  C   UNL d   1      53.776  31.443  53.647  0.00  0.00     0.181 C 
ENDBRANCH  21  25
BRANCH  22  27
ATOM     27  O   UNL d   1      54.809  33.116  55.059  0.00  0.00    -0.326 OA
ATOM     28  C   UNL d   1      55.170  33.670  55.551  0.00  0.00     0.181 C 
ENDBRANCH  22  27
ENDBRANCH  18  19
ENDBRANCH  17  18
ENDBRANCH   3  17
TORSDOF 8
ENDMDL
