MODEL 1
REMARK VINA RESULT:      58.9      0.000      0.000
REMARK  2 active torsions:
REMARK  status: ('A' for Active; 'I' for Inactive)
REMARK    1  A    between atoms: N_10  and  C_3 
REMARK    2  A    between atoms: C_12  and  C_5 
ROOT
ATOM      1  N   UNL d   1      45.979 -17.495  42.450  0.00  0.00    -0.196 N 
ATOM      2  C   UNL d   1      46.154 -18.201  42.050  0.00  0.00     0.167 A 
ATOM      3  C   UNL d   1      46.011 -17.482  43.270  0.00  0.00     0.152 A 
ATOM      4  N   UNL d   1      45.752 -16.858  41.213  0.00  0.00    -0.163 NA
ATOM      5  C   UNL d   1      46.128 -18.235  41.243  0.00  0.00     0.055 A 
ATOM      6  N   UNL d   1      46.357 -18.878  42.481  0.00  0.00    -0.227 NA
ATOM      7  C   UNL d   1      46.211 -18.148  43.697  0.00  0.00     0.052 A 
ATOM      8  C   UNL d   1      45.925 -17.560  40.817  0.00  0.00     0.104 A 
ATOM      9  C   UNL d   1      46.385 -18.850  43.300  0.00  0.00     0.086 A 
ATOM     10  C   UNL d   1      46.238 -18.113  44.524  0.00  0.00     0.004 A 
ATOM     11  C   UNL d   1      45.896 -17.580  40.011  0.00  0.00     0.023 C 
ATOM     12  C   UNL d   1      46.587 -19.525  43.726  0.00  0.00     0.019 A 
ATOM     13  C   UNL d   1      46.444 -18.801  44.953  0.00  0.00     0.000 A 
ATOM     14  C   UNL d   1      46.618 -19.503  44.556  0.00  0.00     0.002 A 
ENDROOT
BRANCH   3  15
ATOM     15  N   UNL d   1      45.835 -16.766  43.679  0.00  0.00    -0.286 N 
ATOM     16  C   UNL d   1      46.351 -16.108  43.608  0.00  0.00     0.101 A 
ATOM     17  C   UNL d   1      46.172 -15.386  44.021  0.00  0.00     0.100 A 
ATOM     18  N   UNL d   1      45.485 -15.331  44.497  0.00  0.00    -0.299 N 
ATOM     19  C   UNL d   1      44.965 -15.991  44.570  0.00  0.00     0.100 A 
ATOM     20  C   UNL d   1      45.314 -14.609  44.905  0.00  0.00     0.100 C 
ATOM     21  C   UNL d   1      45.136 -16.717  44.160  0.00  0.00     0.101 A 
ENDBRANCH   3  15
BRANCH   5  22
ATOM     22  C   UNL d   1      46.301 -18.937  40.846  0.00  0.00     0.004 A 
ATOM     23  C   UNL d   1      46.471 -19.607  41.275  0.00  0.00     0.000 A 
ATOM     24  C   UNL d   1      46.645 -20.309  40.878  0.00  0.00     0.000 A 
ATOM     25  C   UNL d   1      46.646 -20.330  40.058  0.00  0.00     0.000 A 
ATOM     26  C   UNL d   1      46.473 -19.649  39.635  0.00  0.00     0.000 A 
ATOM     27  C   UNL d   1      46.300 -18.947  40.032  0.00  0.00     0.000 A 
ENDBRANCH   5  22
TORSDOF 2
ENDMDL
