MODEL 1
REMARK VINA RESULT:      -3.3      0.000      0.000
REMARK  4 active torsions:
REMARK  status: ('A' for Active; 'I' for Inactive)
REMARK    1  A    between atoms: N_2  and  S_1 
REMARK    2  A    between atoms: C_3  and  S_1 
REMARK    3  A    between atoms: C_6  and  N_2 
REMARK    4  A    between atoms: C_13  and  N_2 
ROOT
ATOM      1  S   UNL d   1     -41.533-122.547 -51.976  0.00  0.00     0.271 S 
ATOM      2  O   UNL d   1     -41.123-123.136 -51.752  0.00  0.00    -0.200 OA
ATOM      3  O   UNL d   1     -41.980-121.915 -52.251  0.00  0.00    -0.200 OA
ENDROOT
BRANCH   1   4
ATOM      4  N   UNL d   1     -41.584-122.246 -51.202  0.00  0.00    -0.231 N 
BRANCH   4   5
ATOM      5  C   UNL d   1     -42.094-122.601 -50.654  0.00  0.00     0.075 A 
ATOM      6  C   UNL d   1     -41.809-123.205 -50.158  0.00  0.00     0.018 A 
ATOM      7  C   UNL d   1     -42.316-123.565 -49.607  0.00  0.00     0.002 A 
ATOM      8  C   UNL d   1     -43.110-123.321 -49.552  0.00  0.00     0.000 A 
ATOM      9  C   UNL d   1     -43.393-122.716 -50.051  0.00  0.00     0.002 A 
ATOM     10  C   UNL d   1     -42.885-122.357 -50.602  0.00  0.00     0.018 A 
ENDBRANCH   4   5
BRANCH   4  11
ATOM     11  C   UNL d   1     -41.123-121.594 -50.981  0.00  0.00     0.092 C 
ATOM     12  C   UNL d   1     -41.484-120.879 -50.782  0.00  0.00     0.021 C 
ENDBRANCH   4  11
ENDBRANCH   1   4
BRANCH   1  13
ATOM     13  C   UNL d   1     -41.505-122.794 -52.687  0.00  0.00     0.104 A 
ATOM     14  C   UNL d   1     -41.373-123.528 -52.835  0.00  0.00     0.015 A 
ATOM     15  C   UNL d   1     -41.347-123.765 -53.541  0.00  0.00     0.022 A 
ATOM     16  C   UNL d   1     -41.450-123.288 -54.108  0.00  0.00     0.103 A 
ATOM     17  C   UNL d   1     -41.581-122.562 -53.973  0.00  0.00     0.022 A 
ATOM     18  N   UNL d   1     -41.421-123.537 -54.817  0.00  0.00    -0.148 N 
ATOM     19  C   UNL d   1     -41.610-122.311 -53.264  0.00  0.00     0.015 A 
ENDBRANCH   1  13
TORSDOF 4
ENDMDL
MODEL 2
REMARK VINA RESULT:      -2.9      1.036      3.375
REMARK  4 active torsions:
REMARK  status: ('A' for Active; 'I' for Inactive)
REMARK    1  A    between atoms: N_2  and  S_1 
REMARK    2  A    between atoms: C_3  and  S_1 
REMARK    3  A    between atoms: C_6  and  N_2 
REMARK    4  A    between atoms: C_13  and  N_2 
ROOT
ATOM      1  S   UNL d   1     -41.749-122.614 -50.926  0.00  0.00     0.271 S 
ATOM      2  O   UNL d   1     -41.158-123.077 -50.884  0.00  0.00    -0.200 OA
ATOM      3  O   UNL d   1     -42.407-122.122 -50.945  0.00  0.00    -0.200 OA
ENDROOT
BRANCH   1   4
ATOM      4  N   UNL d   1     -41.468-122.266 -51.628  0.00  0.00    -0.231 N 
BRANCH   4   5
ATOM      5  C   UNL d   1     -41.535-122.675 -52.345  0.00  0.00     0.075 A 
ATOM      6  C   UNL d   1     -42.018-122.367 -52.949  0.00  0.00     0.018 A 
ATOM      7  C   UNL d   1     -42.090-122.772 -53.671  0.00  0.00     0.002 A 
ATOM      8  C   UNL d   1     -41.677-123.485 -53.791  0.00  0.00     0.000 A 
ATOM      9  C   UNL d   1     -41.194-123.790 -53.184  0.00  0.00     0.002 A 
ATOM     10  C   UNL d   1     -41.123-123.385 -52.462  0.00  0.00     0.018 A 
ENDBRANCH   4   5
BRANCH   4  11
ATOM     11  C   UNL d   1     -41.123-121.513 -51.606  0.00  0.00     0.092 C 
ATOM     12  C   UNL d   1     -41.574-120.844 -51.779  0.00  0.00     0.021 C 
ENDBRANCH   4  11
ENDBRANCH   1   4
BRANCH   1  13
ATOM     13  C   UNL d   1     -42.029-122.910 -50.292  0.00  0.00     0.104 A 
ATOM     14  C   UNL d   1     -41.652-123.457 -49.923  0.00  0.00     0.015 A 
ATOM     15  C   UNL d   1     -41.936-123.744 -49.296  0.00  0.00     0.022 A 
ATOM     16  C   UNL d   1     -42.589-123.500 -49.025  0.00  0.00     0.103 A 
ATOM     17  C   UNL d   1     -42.968-122.961 -49.382  0.00  0.00     0.022 A 
ATOM     18  N   UNL d   1     -42.866-123.797 -48.392  0.00  0.00    -0.148 N 
ATOM     19  C   UNL d   1     -42.692-122.663 -50.016  0.00  0.00     0.015 A 
ENDBRANCH   1  13
TORSDOF 4
ENDMDL
