MODEL 1
REMARK VINA RESULT:      37.5      0.000      0.000
REMARK  4 active torsions:
REMARK  status: ('A' for Active; 'I' for Inactive)
REMARK    1  A    between atoms: N_3  and  S_1 
REMARK    2  A    between atoms: C_4  and  S_1 
REMARK    3  A    between atoms: C_2  and  C_5 
REMARK    4  A    between atoms: C_8  and  N_3 
ROOT
ATOM      1  N   UNL d   1      60.046  49.486  50.374  0.00  0.00    -0.158 NA
ENDROOT
BRANCH   1   2
ATOM      2  S   UNL d   1      59.245  49.518  50.183  0.00  0.00     0.285 S 
ATOM      3  O   UNL d   1      59.049  49.680  50.976  0.00  0.00    -0.198 OA
ATOM      4  O   UNL d   1      59.438  49.357  49.398  0.00  0.00    -0.198 OA
BRANCH   2   5
ATOM      5  C   UNL d   1      58.441  49.551  49.999  0.00  0.00     0.105 A 
ATOM      6  C   UNL d   1      57.880  49.587  50.597  0.00  0.00     0.013 A 
ATOM      7  C   UNL d   1      57.087  49.619  50.408  0.00  0.00     0.001 A 
ATOM      8  C   UNL d   1      56.839  49.617  49.617  0.00  0.00     0.000 A 
ATOM      9  C   UNL d   1      57.404  49.581  49.020  0.00  0.00     0.001 A 
ATOM     10  C   UNL d   1      56.037  49.650  49.425  0.00  0.00     0.000 C 
ATOM     11  C   UNL d   1      58.207  49.548  49.203  0.00  0.00     0.013 A 
ENDBRANCH   2   5
ENDBRANCH   1   2
BRANCH   1  12
ATOM     12  C   UNL d   1      60.371  49.545  51.135  0.00  0.00     0.094 A 
ATOM     13  C   UNL d   1      59.875  49.500  51.799  0.00  0.00     0.024 A 
ATOM     14  C   UNL d   1      60.203  49.560  52.558  0.00  0.00     0.073 A 
ATOM     15  C   UNL d   1      61.020  49.663  52.658  0.00  0.00     0.004 A 
ATOM     16  C   UNL d   1      61.509  49.706  51.991  0.00  0.00     0.002 A 
ATOM     17  C   UNL d   1      61.182  49.647  51.232  0.00  0.00     0.020 A 
BRANCH  14  18
ATOM     18  C   UNL d   1      59.714  49.516  53.221  0.00  0.00     0.419 C 
ATOM     19  F   UNL d   1      60.029  49.641  53.974  0.00  0.00    -0.166 F 
ATOM     20  F   UNL d   1      58.915  49.349  53.138  0.00  0.00    -0.166 F 
ATOM     21  F   UNL d   1      60.463  49.691  53.521  0.00  0.00    -0.166 F 
ENDBRANCH  14  18
ENDBRANCH   1  12
TORSDOF 4
ENDMDL
