MODEL 1
REMARK VINA RESULT:      46.2      0.000      0.000
REMARK  4 active torsions:
REMARK  status: ('A' for Active; 'I' for Inactive)
REMARK    1  A    between atoms: C_6  and  C_1 
REMARK    2  A    between atoms: C_7  and  N_3 
REMARK    3  A    between atoms: C_9  and  C_6 
REMARK    4  A    between atoms: N_8  and  C_9 
ROOT
ATOM      1  C   UNL d   1     -56.018-102.473 -36.949  0.00  0.00     0.058 A 
ATOM      2  C   UNL d   1     -55.523-102.591 -37.600  0.00  0.00     0.067 A 
ATOM      3  N   UNL d   1     -55.965-102.515 -38.295  0.00  0.00    -0.306 N 
ATOM      4  C   UNL d   1     -56.737-102.349 -38.056  0.00  0.00     0.064 A 
ATOM      5  C   UNL d   1     -56.751-102.328 -37.254  0.00  0.00     0.022 A 
ATOM      6  C   UNL d   1     -54.711-102.758 -37.564  0.00  0.00     0.019 C 
ATOM      7  C   UNL d   1     -57.389-102.226 -38.569  0.00  0.00     0.019 C 
ENDROOT
BRANCH   1   8
ATOM      8  C   UNL d   1     -55.800-102.499 -36.145  0.00  0.00     0.214 C 
ATOM      9  O   UNL d   1     -56.282-102.858 -35.589  0.00  0.00    -0.285 OA
BRANCH   8  10
ATOM     10  C   UNL d   1     -55.086-102.158 -35.910  0.00  0.00     0.123 C 
BRANCH  10  11
ATOM     11  N   UNL d   1     -54.973-101.348 -35.978  0.00  0.00    -0.300 N 
ATOM     12  C   UNL d   1     -54.920-101.021 -36.713  0.00  0.00     0.080 A 
ATOM     13  C   UNL d   1     -54.805-100.197 -36.795  0.00  0.00     0.019 A 
ATOM     14  C   UNL d   1     -54.750 -99.754 -36.104  0.00  0.00     0.003 A 
ATOM     15  C   UNL d   1     -54.803-100.081 -35.369  0.00  0.00     0.019 A 
ATOM     16  C   UNL d   1     -54.919-100.907 -35.327  0.00  0.00     0.080 A 
ENDBRANCH  10  11
ENDBRANCH   8  10
ENDBRANCH   1   8
BRANCH   3  17
ATOM     17  C   UNL d   1     -55.779-102.572 -39.074  0.00  0.00     0.064 A 
ATOM     18  C   UNL d   1     -56.372-102.769 -39.621  0.00  0.00     0.020 A 
ATOM     19  C   UNL d   1     -56.177-102.829 -40.435  0.00  0.00     0.031 A 
ATOM     20  C   UNL d   1     -55.422-102.694 -40.674  0.00  0.00     0.140 A 
ATOM     21  C   UNL d   1     -54.847-102.502 -40.141  0.00  0.00     0.031 A 
ATOM     22  F   UNL d   1     -55.234-102.752 -41.462  0.00  0.00    -0.204 F 
ATOM     23  C   UNL d   1     -55.013-102.436 -39.321  0.00  0.00     0.020 A 
ENDBRANCH   3  17
TORSDOF 4
ENDMDL
