MODEL 1
REMARK VINA RESULT:     -11.0      0.000      0.000
REMARK  2 active torsions:
REMARK  status: ('A' for Active; 'I' for Inactive)
REMARK    1  A    between atoms: C_9  and  C_3 
REMARK    2  A    between atoms: C_8  and  C_4 
ROOT
ATOM      1  N   UNL d   1      53.928  31.548  54.129  0.00  0.00    -0.242 NA
ATOM      2  N   UNL d   1      52.635  32.079  53.255  0.00  0.00    -0.242 NA
ATOM      3  C   UNL d   1      53.772  32.355  54.071  0.00  0.00     0.099 A 
ATOM      4  C   UNL d   1      53.130  32.619  53.636  0.00  0.00     0.099 A 
ATOM      5  C   UNL d   1      53.437  31.010  53.750  0.00  0.00     0.101 A 
ATOM      6  C   UNL d   1      52.794  31.274  53.316  0.00  0.00     0.099 A 
ATOM      7  C   UNL d   1      53.593  30.206  53.810  0.00  0.00     0.042 A 
ATOM      8  C   UNL d   1      52.301  30.736  52.935  0.00  0.00     0.022 A 
ATOM      9  C   UNL d   1      53.102  29.666  53.430  0.00  0.00     0.104 A 
ATOM     10  N   UNL d   1      53.259  28.866  53.490  0.00  0.00    -0.148 N 
ATOM     11  C   UNL d   1      52.459  29.929  52.996  0.00  0.00     0.023 A 
ENDROOT
BRANCH   3  12
ATOM     12  C   UNL d   1      54.262  32.889  54.449  0.00  0.00     0.019 A 
ATOM     13  C   UNL d   1      54.920  33.204  54.048  0.00  0.00     0.002 A 
ATOM     14  C   UNL d   1      55.421  33.746  54.426  0.00  0.00     0.000 A 
ATOM     15  C   UNL d   1      55.266  33.977  55.211  0.00  0.00     0.000 A 
ATOM     16  C   UNL d   1      54.602  33.656  55.608  0.00  0.00     0.000 A 
ATOM     17  C   UNL d   1      54.108  33.118  55.227  0.00  0.00     0.002 A 
ENDBRANCH   3  12
BRANCH   4  18
ATOM     18  C   UNL d   1      52.969  33.419  53.575  0.00  0.00     0.019 A 
ATOM     19  C   UNL d   1      52.478  33.785  54.140  0.00  0.00     0.002 A 
ATOM     20  C   UNL d   1      52.311  34.597  54.083  0.00  0.00     0.000 A 
ATOM     21  C   UNL d   1      52.636  35.048  53.460  0.00  0.00     0.000 A 
ATOM     22  C   UNL d   1      53.126  34.686  52.895  0.00  0.00     0.000 A 
ATOM     23  C   UNL d   1      53.294  33.870  52.951  0.00  0.00     0.002 A 
ENDBRANCH   4  18
TORSDOF 2
ENDMDL
MODEL 2
REMARK VINA RESULT:     -10.8      0.324      2.128
REMARK  2 active torsions:
REMARK  status: ('A' for Active; 'I' for Inactive)
REMARK    1  A    between atoms: C_9  and  C_3 
REMARK    2  A    between atoms: C_8  and  C_4 
ROOT
ATOM      1  N   UNL d   1      52.710  31.955  53.250  0.00  0.00    -0.242 NA
ATOM      2  N   UNL d   1      54.036  31.508  54.121  0.00  0.00    -0.242 NA
ATOM      3  C   UNL d   1      53.171  32.527  53.624  0.00  0.00     0.099 A 
ATOM      4  C   UNL d   1      53.830  32.305  54.056  0.00  0.00     0.099 A 
ATOM      5  C   UNL d   1      52.915  31.162  53.313  0.00  0.00     0.101 A 
ATOM      6  C   UNL d   1      53.574  30.940  53.746  0.00  0.00     0.099 A 
ATOM      7  C   UNL d   1      52.455  30.593  52.940  0.00  0.00     0.042 A 
ATOM      8  C   UNL d   1      53.781  30.146  53.811  0.00  0.00     0.022 A 
ATOM      9  C   UNL d   1      52.660  29.798  53.003  0.00  0.00     0.104 A 
ATOM     10  N   UNL d   1      52.201  29.233  52.631  0.00  0.00    -0.148 N 
ATOM     11  C   UNL d   1      53.319  29.576  53.436  0.00  0.00     0.023 A 
ENDROOT
BRANCH   3  12
ATOM     12  C   UNL d   1      52.965  33.315  53.559  0.00  0.00     0.019 A 
ATOM     13  C   UNL d   1      52.458  33.659  54.123  0.00  0.00     0.002 A 
ATOM     14  C   UNL d   1      52.245  34.458  54.063  0.00  0.00     0.000 A 
ATOM     15  C   UNL d   1      52.540  34.920  53.436  0.00  0.00     0.000 A 
ATOM     16  C   UNL d   1      53.050  34.568  52.873  0.00  0.00     0.000 A 
ATOM     17  C   UNL d   1      53.257  33.773  52.937  0.00  0.00     0.002 A 
ENDBRANCH   3  12
BRANCH   4  18
ATOM     18  C   UNL d   1      54.291  32.868  54.430  0.00  0.00     0.019 A 
ATOM     19  C   UNL d   1      54.127  33.075  55.222  0.00  0.00     0.002 A 
ATOM     20  C   UNL d   1      54.592  33.646  55.607  0.00  0.00     0.000 A 
ATOM     21  C   UNL d   1      55.222  34.014  55.202  0.00  0.00     0.000 A 
ATOM     22  C   UNL d   1      55.388  33.810  54.414  0.00  0.00     0.000 A 
ATOM     23  C   UNL d   1      54.922  33.237  54.026  0.00  0.00     0.002 A 
ENDBRANCH   4  18
TORSDOF 2
ENDMDL
MODEL 3
REMARK VINA RESULT:      -9.6      1.403      3.387
REMARK  2 active torsions:
REMARK  status: ('A' for Active; 'I' for Inactive)
REMARK    1  A    between atoms: C_9  and  C_3 
REMARK    2  A    between atoms: C_8  and  C_4 
ROOT
ATOM      1  N   UNL d   1      51.905  32.685  53.071  0.00  0.00    -0.242 NA
ATOM      2  N   UNL d   1      52.581  34.048  53.704  0.00  0.00    -0.242 NA
ATOM      3  C   UNL d   1      52.641  32.648  53.440  0.00  0.00     0.099 A 
ATOM      4  C   UNL d   1      52.977  33.325  53.754  0.00  0.00     0.099 A 
ATOM      5  C   UNL d   1      51.510  33.403  53.021  0.00  0.00     0.101 A 
ATOM      6  C   UNL d   1      51.846  34.081  53.336  0.00  0.00     0.099 A 
ATOM      7  C   UNL d   1      50.776  33.438  52.654  0.00  0.00     0.042 A 
ATOM      8  C   UNL d   1      51.452  34.802  53.287  0.00  0.00     0.022 A 
ATOM      9  C   UNL d   1      50.380  34.158  52.604  0.00  0.00     0.104 A 
ATOM     10  N   UNL d   1      49.650  34.190  52.238  0.00  0.00    -0.148 N 
ATOM     11  C   UNL d   1      50.716  34.835  52.918  0.00  0.00     0.023 A 
ENDROOT
BRANCH   3  12
ATOM     12  C   UNL d   1      53.032  31.932  53.488  0.00  0.00     0.019 A 
ATOM     13  C   UNL d   1      52.916  31.440  54.150  0.00  0.00     0.002 A 
ATOM     14  C   UNL d   1      53.310  30.712  54.205  0.00  0.00     0.000 A 
ATOM     15  C   UNL d   1      53.825  30.471  53.596  0.00  0.00     0.000 A 
ATOM     16  C   UNL d   1      53.936  30.972  52.934  0.00  0.00     0.000 A 
ATOM     17  C   UNL d   1      53.542  31.693  52.884  0.00  0.00     0.002 A 
ENDBRANCH   3  12
BRANCH   4  18
ATOM     18  C   UNL d   1      53.708  33.295  54.121  0.00  0.00     0.019 A 
ATOM     19  C   UNL d   1      53.749  33.197  54.949  0.00  0.00     0.002 A 
ATOM     20  C   UNL d   1      54.488  33.166  55.327  0.00  0.00     0.000 A 
ATOM     21  C   UNL d   1      55.190  33.232  54.880  0.00  0.00     0.000 A 
ATOM     22  C   UNL d   1      55.152  33.330  54.056  0.00  0.00     0.000 A 
ATOM     23  C   UNL d   1      54.410  33.362  53.674  0.00  0.00     0.002 A 
ENDBRANCH   4  18
TORSDOF 2
ENDMDL
MODEL 4
REMARK VINA RESULT:      -9.1      1.473      3.246
REMARK  2 active torsions:
REMARK  status: ('A' for Active; 'I' for Inactive)
REMARK    1  A    between atoms: C_9  and  C_3 
REMARK    2  A    between atoms: C_8  and  C_4 
ROOT
ATOM      1  N   UNL d   1      52.423  33.839  53.696  0.00  0.00    -0.242 NA
ATOM      2  N   UNL d   1      51.841  32.420  53.092  0.00  0.00    -0.242 NA
ATOM      3  C   UNL d   1      52.878  33.153  53.741  0.00  0.00     0.099 A 
ATOM      4  C   UNL d   1      52.588  32.448  53.441  0.00  0.00     0.099 A 
ATOM      5  C   UNL d   1      51.679  33.812  53.349  0.00  0.00     0.101 A 
ATOM      6  C   UNL d   1      51.390  33.107  53.048  0.00  0.00     0.099 A 
ATOM      7  C   UNL d   1      51.228  34.497  53.304  0.00  0.00     0.042 A 
ATOM      8  C   UNL d   1      50.645  33.078  52.700  0.00  0.00     0.022 A 
ATOM      9  C   UNL d   1      50.482  34.471  52.956  0.00  0.00     0.104 A 
ATOM     10  N   UNL d   1      50.034  35.153  52.913  0.00  0.00    -0.148 N 
ATOM     11  C   UNL d   1      50.192  33.766  52.656  0.00  0.00     0.023 A 
ENDROOT
BRANCH   3  12
ATOM     12  C   UNL d   1      53.618  33.182  54.087  0.00  0.00     0.019 A 
ATOM     13  C   UNL d   1      53.695  33.089  54.911  0.00  0.00     0.002 A 
ATOM     14  C   UNL d   1      54.442  33.117  55.268  0.00  0.00     0.000 A 
ATOM     15  C   UNL d   1      55.121  33.239  54.801  0.00  0.00     0.000 A 
ATOM     16  C   UNL d   1      55.036  33.331  53.972  0.00  0.00     0.000 A 
ATOM     17  C   UNL d   1      54.291  33.302  53.623  0.00  0.00     0.002 A 
ENDBRANCH   3  12
BRANCH   4  18
ATOM     18  C   UNL d   1      53.035  31.763  53.483  0.00  0.00     0.019 A 
ATOM     19  C   UNL d   1      52.957  31.262  54.145  0.00  0.00     0.002 A 
ATOM     20  C   UNL d   1      53.408  30.565  54.193  0.00  0.00     0.000 A 
ATOM     21  C   UNL d   1      53.939  30.367  53.580  0.00  0.00     0.000 A 
ATOM     22  C   UNL d   1      54.018  30.865  52.920  0.00  0.00     0.000 A 
ATOM     23  C   UNL d   1      53.566  31.565  52.870  0.00  0.00     0.002 A 
ENDBRANCH   4  18
TORSDOF 2
ENDMDL
