MODEL 1
REMARK VINA RESULT:      18.3      0.000      0.000
REMARK  9 active torsions:
REMARK  status: ('A' for Active; 'I' for Inactive)
REMARK    1  A    between atoms: C_21  and  N_1 
REMARK    2  A    between atoms: S_17  and  C_3 
REMARK    3  A    between atoms: C_16  and  C_32 
REMARK       I    between atoms: N_19  and  C_16 
REMARK    4  A    between atoms: C_29  and  S_17 
REMARK    5  A    between atoms: C_22  and  N_19 
REMARK    6  A    between atoms: C_31  and  C_21 
REMARK    7  A    between atoms: C_23  and  C_22 
REMARK    8  A    between atoms: O_30  and  C_24 
REMARK    9  A    between atoms: C_32  and  C_31 
ROOT
ATOM      1  N   UNL d   1     -44.888-121.612 -52.830  0.00  0.00    -0.195 NA
ATOM      2  C   UNL d   1     -44.501-121.830 -52.137  0.00  0.00     0.086 C 
ATOM      3  C   UNL d   1     -44.126-122.048 -51.433  0.00  0.00     0.170 C 
ENDROOT
BRANCH   3   4
ATOM      4  S   UNL d   1     -43.322-122.227 -51.436  0.00  0.00    -0.060 SA
BRANCH   4   5
ATOM      5  C   UNL d   1     -42.962-122.565 -50.747  0.00  0.00     0.178 A 
ATOM      6  N   UNL d   1     -42.235-122.919 -50.817  0.00  0.00    -0.253 N 
ATOM      7  C   UNL d   1     -41.874-123.253 -50.149  0.00  0.00     0.268 A 
ATOM      8  C   UNL d   1     -42.251-123.227 -49.407  0.00  0.00     0.076 A 
ATOM      9  O   UNL d   1     -41.137-123.612 -50.219  0.00  0.00    -0.267 OA
ATOM     10  C   UNL d   1     -41.890-123.560 -48.742  0.00  0.00     0.033 A 
ATOM     11  C   UNL d   1     -42.978-122.872 -49.338  0.00  0.00     0.090 A 
ATOM     12  C   UNL d   1     -42.267-123.537 -47.988  0.00  0.00     0.119 A 
ATOM     13  O   UNL d   1     -42.053-123.818 -47.220  0.00  0.00    -0.300 OA
ATOM     14  C   UNL d   1     -42.994-123.181 -47.923  0.00  0.00     0.121 A 
ATOM     15  C   UNL d   1     -42.651-123.635 -46.676  0.00  0.00     0.304 A 
ATOM     16  O   UNL d   1     -43.226-123.243 -47.117  0.00  0.00    -0.299 OA
ATOM     17  C   UNL d   1     -43.354-122.847 -48.595  0.00  0.00     0.046 A 
ATOM     18  N   UNL d   1     -43.338-122.538 -50.010  0.00  0.00    -0.222 NA
BRANCH   6  19
ATOM     19  C   UNL d   1     -41.858-122.941 -51.576  0.00  0.00     0.085 C 
BRANCH  19  20
ATOM     20  C   UNL d   1     -41.331-122.342 -51.778  0.00  0.00     0.024 C 
BRANCH  20  21
ATOM     21  C   UNL d   1     -41.123-122.244 -52.573  0.00  0.00     0.064 C 
BRANCH  21  22
ATOM     22  C   UNL d   1     -41.173-121.498 -52.920  0.00  0.00     0.279 C 
ATOM     23  N   UNL d   1     -41.266-121.432 -53.735  0.00  0.00    -0.206 NA
ATOM     24  O   UNL d   1     -41.130-120.819 -52.449  0.00  0.00    -0.265 OA
BRANCH  23  25
ATOM     25  C   UNL d   1     -41.309-122.108 -54.199  0.00  0.00     0.102 C 
BRANCH  25  26
ATOM     26  C   UNL d   1     -41.836-122.127 -54.843  0.00  0.00     0.019 A 
ATOM     27  C   UNL d   1     -42.010-121.446 -55.248  0.00  0.00     0.004 A 
ATOM     28  C   UNL d   1     -42.530-121.472 -55.882  0.00  0.00     0.024 A 
ATOM     29  C   UNL d   1     -42.878-122.180 -56.112  0.00  0.00     0.094 A 
ATOM     30  C   UNL d   1     -42.699-122.869 -55.698  0.00  0.00     0.024 A 
ATOM     31  C   UNL d   1     -42.172-122.850 -55.053  0.00  0.00     0.004 A 
BRANCH  29  32
ATOM     32  O   UNL d   1     -43.400-122.207 -56.748  0.00  0.00    -0.328 OA
ATOM     33  C   UNL d   1     -44.078-122.671 -56.681  0.00  0.00     0.181 C 
ENDBRANCH  29  32
ENDBRANCH  25  26
ENDBRANCH  23  25
ENDBRANCH  21  22
ENDBRANCH  20  21
ENDBRANCH  19  20
ENDBRANCH   6  19
ENDBRANCH   4   5
ENDBRANCH   3   4
TORSDOF 9
ENDMDL
MODEL 2
REMARK VINA RESULT:      18.4      1.518      1.724
REMARK  9 active torsions:
REMARK  status: ('A' for Active; 'I' for Inactive)
REMARK    1  A    between atoms: C_21  and  N_1 
REMARK    2  A    between atoms: S_17  and  C_3 
REMARK    3  A    between atoms: C_16  and  C_32 
REMARK       I    between atoms: N_19  and  C_16 
REMARK    4  A    between atoms: C_29  and  S_17 
REMARK    5  A    between atoms: C_22  and  N_19 
REMARK    6  A    between atoms: C_31  and  C_21 
REMARK    7  A    between atoms: C_23  and  C_22 
REMARK    8  A    between atoms: O_30  and  C_24 
REMARK    9  A    between atoms: C_32  and  C_31 
ROOT
ATOM      1  N   UNL d   1     -41.887-119.276 -52.596  0.00  0.00    -0.195 NA
ATOM      2  C   UNL d   1     -42.000-119.906 -52.079  0.00  0.00     0.086 C 
ATOM      3  C   UNL d   1     -42.129-120.538 -51.561  0.00  0.00     0.170 C 
ENDROOT
BRANCH   3   4
ATOM      4  S   UNL d   1     -41.486-120.928 -51.223  0.00  0.00    -0.060 SA
BRANCH   4   5
ATOM      5  C   UNL d   1     -41.617-121.564 -50.679  0.00  0.00     0.178 A 
ATOM      6  N   UNL d   1     -41.437-122.322 -50.908  0.00  0.00    -0.253 N 
ATOM      7  C   UNL d   1     -41.561-122.952 -50.384  0.00  0.00     0.268 A 
ATOM      8  C   UNL d   1     -41.870-122.814 -49.623  0.00  0.00     0.076 A 
ATOM      9  O   UNL d   1     -41.378-123.720 -50.616  0.00  0.00    -0.267 OA
ATOM     10  C   UNL d   1     -41.994-123.442 -49.101  0.00  0.00     0.033 A 
ATOM     11  C   UNL d   1     -42.051-122.056 -49.394  0.00  0.00     0.090 A 
ATOM     12  C   UNL d   1     -42.306-123.309 -48.329  0.00  0.00     0.119 A 
ATOM     13  O   UNL d   1     -42.494-123.817 -47.680  0.00  0.00    -0.300 OA
ATOM     14  C   UNL d   1     -42.486-122.550 -48.104  0.00  0.00     0.121 A 
ATOM     15  C   UNL d   1     -42.790-123.370 -47.049  0.00  0.00     0.304 A 
ATOM     16  O   UNL d   1     -42.782-122.591 -47.318  0.00  0.00    -0.299 OA
ATOM     17  C   UNL d   1     -42.360-121.919 -48.633  0.00  0.00     0.046 A 
ATOM     18  N   UNL d   1     -41.925-121.426 -49.923  0.00  0.00    -0.222 NA
BRANCH   6  19
ATOM     19  C   UNL d   1     -41.123-122.454 -51.685  0.00  0.00     0.085 C 
BRANCH  19  20
ATOM     20  C   UNL d   1     -41.642-122.528 -52.319  0.00  0.00     0.024 C 
BRANCH  20  21
ATOM     21  C   UNL d   1     -41.345-122.766 -53.053  0.00  0.00     0.064 C 
BRANCH  21  22
ATOM     22  C   UNL d   1     -41.832-123.173 -53.579  0.00  0.00     0.279 C 
ATOM     23  N   UNL d   1     -41.871-122.937 -54.367  0.00  0.00    -0.206 NA
ATOM     24  O   UNL d   1     -42.279-123.817 -53.315  0.00  0.00    -0.265 OA
BRANCH  23  25
ATOM     25  C   UNL d   1     -41.425-122.298 -54.626  0.00  0.00     0.102 C 
BRANCH  25  26
ATOM     26  C   UNL d   1     -41.584-121.966 -55.373  0.00  0.00     0.019 A 
ATOM     27  C   UNL d   1     -41.126-122.163 -56.013  0.00  0.00     0.004 A 
ATOM     28  C   UNL d   1     -41.289-121.833 -56.745  0.00  0.00     0.024 A 
ATOM     29  C   UNL d   1     -41.911-121.303 -56.840  0.00  0.00     0.094 A 
ATOM     30  C   UNL d   1     -42.373-121.106 -56.188  0.00  0.00     0.024 A 
ATOM     31  C   UNL d   1     -42.214-121.438 -55.441  0.00  0.00     0.004 A 
BRANCH  29  32
ATOM     32  O   UNL d   1     -42.075-120.972 -57.575  0.00  0.00    -0.328 OA
ATOM     33  C   UNL d   1     -41.773-120.224 -57.745  0.00  0.00     0.181 C 
ENDBRANCH  29  32
ENDBRANCH  25  26
ENDBRANCH  23  25
ENDBRANCH  21  22
ENDBRANCH  20  21
ENDBRANCH  19  20
ENDBRANCH   6  19
ENDBRANCH   4   5
ENDBRANCH   3   4
TORSDOF 9
ENDMDL
