MODEL 1
REMARK VINA RESULT:      51.6      0.000      0.000
REMARK  7 active torsions:
REMARK  status: ('A' for Active; 'I' for Inactive)
REMARK    1  A    between atoms: S_2  and  C_1 
REMARK    2  A    between atoms: C_6  and  S_2 
REMARK    3  A    between atoms: C_24  and  C_16 
REMARK    4  A    between atoms: C_25  and  C_24 
REMARK    5  A    between atoms: C_28  and  C_25 
REMARK    6  A    between atoms: C_26  and  C_27 
REMARK    7  A    between atoms: C_27  and  C_28 
ROOT
ATOM      1  C   UNL d   1     -54.722-101.448 -40.401  0.00  0.00     0.151 A 
ATOM      2  C   UNL d   1     -54.722-102.099 -40.909  0.00  0.00     0.311 A 
ATOM      3  C   UNL d   1     -54.720-100.686 -40.709  0.00  0.00     0.019 A 
ATOM      4  O   UNL d   1     -54.721-101.986 -41.724  0.00  0.00    -0.272 OA
ATOM      5  C   UNL d   1     -54.719-101.222 -42.032  0.00  0.00     0.106 A 
ATOM      6  C   UNL d   1     -54.719-100.572 -41.524  0.00  0.00     0.024 A 
ATOM      7  C   UNL d   1     -54.718-101.109 -42.847  0.00  0.00     0.067 A 
ATOM      8  C   UNL d   1     -54.716-100.337 -43.165  0.00  0.00     0.198 A 
ATOM      9  C   UNL d   1     -54.717 -99.809 -41.832  0.00  0.00     0.005 A 
ATOM     10  C   UNL d   1     -54.715 -99.687 -42.658  0.00  0.00     0.039 A 
ATOM     11  O   UNL d   1     -54.724-102.877 -40.596  0.00  0.00    -0.258 OA
ATOM     12  O   UNL d   1     -54.714-100.225 -43.981  0.00  0.00    -0.286 OA
ENDROOT
BRANCH   1  13
ATOM     13  S   UNL d   1     -54.724-101.570 -39.576  0.00  0.00     0.215 S 
ATOM     14  O   UNL d   1     -54.735-100.744 -39.455  0.00  0.00    -0.217 OA
ATOM     15  O   UNL d   1     -54.712-102.391 -39.693  0.00  0.00    -0.217 OA
BRANCH  13  16
ATOM     16  C   UNL d   1     -54.725-101.682 -38.761  0.00  0.00     0.089 A 
ATOM     17  C   UNL d   1     -54.720-101.028 -38.253  0.00  0.00     0.025 A 
ATOM     18  C   UNL d   1     -54.722-101.138 -37.430  0.00  0.00     0.086 A 
ATOM     19 CL   UNL d   1     -54.716-100.485 -36.926  0.00  0.00    -0.080 Cl
ATOM     20  C   UNL d   1     -54.728-101.901 -37.117  0.00  0.00     0.151 A 
ATOM     21  C   UNL d   1     -54.734-102.552 -37.621  0.00  0.00     0.031 A 
ATOM     22  F   UNL d   1     -54.730-102.011 -36.298  0.00  0.00    -0.203 F 
ATOM     23  C   UNL d   1     -54.732-102.441 -38.436  0.00  0.00     0.014 A 
ENDBRANCH  13  16
ENDBRANCH   1  13
BRANCH  10  24
ATOM     24  C   UNL d   1     -54.714 -98.919 -42.972  0.00  0.00     0.003 C 
BRANCH  24  25
ATOM     25  C   UNL d   1     -54.891 -98.790 -43.767  0.00  0.00     0.000 C 
BRANCH  25  26
ATOM     26  C   UNL d   1     -55.588 -99.086 -44.091  0.00  0.00     0.000 C 
BRANCH  26  27
ATOM     27  C   UNL d   1     -55.866 -98.810 -44.817  0.00  0.00     0.000 C 
BRANCH  27  28
ATOM     28  C   UNL d   1     -56.666 -98.878 -45.018  0.00  0.00     0.000 C 
ATOM     29  C   UNL d   1     -57.123 -99.480 -44.699  0.00  0.00     0.000 C 
ENDBRANCH  27  28
ENDBRANCH  26  27
ENDBRANCH  25  26
ENDBRANCH  24  25
ENDBRANCH  10  24
TORSDOF 7
ENDMDL
