MODEL 1
REMARK VINA RESULT:      55.2      0.000      0.000
REMARK  5 active torsions:
REMARK  status: ('A' for Active; 'I' for Inactive)
REMARK    1  A    between atoms: N_9  and  C_2 
REMARK    2  A    between atoms: N_8  and  C_3 
REMARK    3  A    between atoms: N_10  and  C_6 
REMARK    4  A    between atoms: C_7  and  C_11 
REMARK    5  A    between atoms: C_13  and  N_10 
ROOT
ATOM      1  N   UNL d   1     -58.630 -98.902 -44.263  0.00  0.00     0.133 NA
ATOM      2  C   UNL d   1     -58.225 -98.885 -44.987  0.00  0.00     0.765 A 
ATOM      3  C   UNL d   1     -58.209 -98.870 -43.554  0.00  0.00     0.765 A 
ATOM      4  N   UNL d   1     -57.400 -98.836 -44.997  0.00  0.00     0.134 NA
ATOM      5  N   UNL d   1     -57.383 -98.821 -43.564  0.00  0.00     0.134 NA
ATOM      6  C   UNL d   1     -56.978 -98.804 -44.283  0.00  0.00     0.780 A 
ENDROOT
BRANCH   6   7
ATOM      7  N   UNL d   1     -56.157 -98.755 -44.298  0.00  0.00    -0.058 NA
BRANCH   7   8
ATOM      8  C   UNL d   1     -55.700 -99.405 -44.080  0.00  0.00     0.100 A 
ATOM      9  C   UNL d   1     -55.631-100.049 -44.603  0.00  0.00     0.024 A 
ATOM     10  C   UNL d   1     -55.172-100.702 -44.386  0.00  0.00     0.073 A 
ATOM     11  C   UNL d   1     -54.788-100.710 -43.652  0.00  0.00     0.004 A 
ATOM     12  C   UNL d   1     -54.863-100.066 -43.141  0.00  0.00     0.002 A 
ATOM     13  C   UNL d   1     -55.316 -99.417 -43.351  0.00  0.00     0.020 A 
BRANCH  10  14
ATOM     14  C   UNL d   1     -55.101-101.338 -44.895  0.00  0.00     0.419 C 
ATOM     15  F   UNL d   1     -55.003-101.205 -45.701  0.00  0.00    -0.166 F 
ATOM     16  F   UNL d   1     -55.126-102.100 -44.605  0.00  0.00    -0.166 F 
ATOM     17  F   UNL d   1     -55.050-100.671 -45.379  0.00  0.00    -0.166 F 
ENDBRANCH  10  14
ENDBRANCH   7   8
ENDBRANCH   6   7
BRANCH   3  18
ATOM     18  N   UNL d   1     -58.614 -98.887 -42.830  0.00  0.00    -0.137 N 
ATOM     19  C   UNL d   1     -58.190 -98.783 -42.126  0.00  0.00     0.098 A 
ATOM     20  C   UNL d   1     -58.599 -98.802 -41.410  0.00  0.00     0.021 A 
ATOM     21  C   UNL d   1     -59.820 -99.022 -42.102  0.00  0.00     0.021 A 
ATOM     22  C   UNL d   1     -59.429 -99.006 -42.822  0.00  0.00     0.098 A 
ENDBRANCH   3  18
BRANCH   2  23
ATOM     23  N   UNL d   1     -58.647 -98.917 -45.700  0.00  0.00    -0.137 N 
ATOM     24  C   UNL d   1     -58.258 -98.758 -46.405  0.00  0.00     0.098 A 
ATOM     25  C   UNL d   1     -58.676 -98.790 -47.106  0.00  0.00     0.021 A 
ATOM     26  C   UNL d   1     -59.861 -99.137 -46.401  0.00  0.00     0.021 A 
ATOM     27  C   UNL d   1     -59.448 -99.107 -45.687  0.00  0.00     0.098 A 
ENDBRANCH   2  23
TORSDOF 5
ENDMDL
