MODEL 1
REMARK VINA RESULT:      -9.8      0.000      0.000
REMARK  4 active torsions:
REMARK  status: ('A' for Active; 'I' for Inactive)
REMARK    1  A    between atoms: N_2  and  S_1 
REMARK    2  A    between atoms: C_3  and  S_1 
REMARK    3  A    between atoms: C_6  and  N_2 
REMARK    4  A    between atoms: C_13  and  N_2 
ROOT
ATOM      1  S   UNL d   1      52.584  32.893  53.263  0.00  0.00     0.271 S 
ATOM      2  O   UNL d   1      52.341  32.852  53.973  0.00  0.00    -0.200 OA
ATOM      3  O   UNL d   1      52.825  32.955  52.480  0.00  0.00    -0.200 OA
ENDROOT
BRANCH   1   4
ATOM      4  N   UNL d   1      53.269  32.454  53.439  0.00  0.00    -0.231 N 
BRANCH   4   5
ATOM      5  C   UNL d   1      53.842  32.769  53.947  0.00  0.00     0.075 A 
ATOM      6  C   UNL d   1      54.522  33.127  53.628  0.00  0.00     0.018 A 
ATOM      7  C   UNL d   1      55.100  33.445  54.133  0.00  0.00     0.002 A 
ATOM      8  C   UNL d   1      54.998  33.406  54.958  0.00  0.00     0.000 A 
ATOM      9  C   UNL d   1      54.316  33.048  55.275  0.00  0.00     0.002 A 
ATOM     10  C   UNL d   1      53.738  32.730  54.769  0.00  0.00     0.018 A 
ENDBRANCH   4   5
BRANCH   4  11
ATOM     11  C   UNL d   1      53.375  31.703  53.104  0.00  0.00     0.092 C 
ATOM     12  C   UNL d   1      53.285  31.026  53.568  0.00  0.00     0.021 C 
ENDBRANCH   4  11
ENDBRANCH   1   4
BRANCH   1  13
ATOM     13  C   UNL d   1      51.975  33.293  53.073  0.00  0.00     0.104 A 
ATOM     14  C   UNL d   1      52.019  33.835  52.543  0.00  0.00     0.015 A 
ATOM     15  C   UNL d   1      51.411  34.226  52.361  0.00  0.00     0.022 A 
ATOM     16  C   UNL d   1      50.756  34.091  52.696  0.00  0.00     0.103 A 
ATOM     17  C   UNL d   1      50.702  33.558  53.220  0.00  0.00     0.022 A 
ATOM     18  N   UNL d   1      50.149  34.491  52.505  0.00  0.00    -0.148 N 
ATOM     19  C   UNL d   1      51.309  33.157  53.412  0.00  0.00     0.015 A 
ENDBRANCH   1  13
TORSDOF 4
ENDMDL
MODEL 2
REMARK VINA RESULT:      -9.4      0.922      3.292
REMARK  4 active torsions:
REMARK  status: ('A' for Active; 'I' for Inactive)
REMARK    1  A    between atoms: N_2  and  S_1 
REMARK    2  A    between atoms: C_3  and  S_1 
REMARK    3  A    between atoms: C_6  and  N_2 
REMARK    4  A    between atoms: C_13  and  N_2 
ROOT
ATOM      1  S   UNL d   1      53.299  32.887  53.657  0.00  0.00     0.271 S 
ATOM      2  O   UNL d   1      52.881  32.675  54.245  0.00  0.00    -0.200 OA
ATOM      3  O   UNL d   1      53.778  33.128  53.035  0.00  0.00    -0.200 OA
ENDROOT
BRANCH   1   4
ATOM      4  N   UNL d   1      52.711  32.656  53.115  0.00  0.00    -0.231 N 
BRANCH   4   5
ATOM      5  C   UNL d   1      52.060  33.150  52.977  0.00  0.00     0.075 A 
ATOM      6  C   UNL d   1      52.104  33.729  52.382  0.00  0.00     0.018 A 
ATOM      7  C   UNL d   1      51.455  34.228  52.239  0.00  0.00     0.002 A 
ATOM      8  C   UNL d   1      50.761  34.147  52.691  0.00  0.00     0.000 A 
ATOM      9  C   UNL d   1      50.721  33.565  53.286  0.00  0.00     0.002 A 
ATOM     10  C   UNL d   1      51.370  33.067  53.430  0.00  0.00     0.018 A 
ENDBRANCH   4   5
BRANCH   4  11
ATOM     11  C   UNL d   1      52.779  31.932  52.716  0.00  0.00     0.092 C 
ATOM     12  C   UNL d   1      52.438  31.250  53.033  0.00  0.00     0.021 C 
ENDBRANCH   4  11
ENDBRANCH   1   4
BRANCH   1  13
ATOM     13  C   UNL d   1      53.849  33.106  54.123  0.00  0.00     0.104 A 
ATOM     14  C   UNL d   1      53.714  33.192  54.865  0.00  0.00     0.015 A 
ATOM     15  C   UNL d   1      54.263  33.409  55.320  0.00  0.00     0.022 A 
ATOM     16  C   UNL d   1      54.949  33.543  55.053  0.00  0.00     0.103 A 
ATOM     17  C   UNL d   1      55.093  33.461  54.322  0.00  0.00     0.022 A 
ATOM     18  N   UNL d   1      55.496  33.761  55.520  0.00  0.00    -0.148 N 
ATOM     19  C   UNL d   1      54.546  33.242  53.853  0.00  0.00     0.015 A 
ENDBRANCH   1  13
TORSDOF 4
ENDMDL
MODEL 3
REMARK VINA RESULT:      -8.7      1.756      2.846
REMARK  4 active torsions:
REMARK  status: ('A' for Active; 'I' for Inactive)
REMARK    1  A    between atoms: N_2  and  S_1 
REMARK    2  A    between atoms: C_3  and  S_1 
REMARK    3  A    between atoms: C_6  and  N_2 
REMARK    4  A    between atoms: C_13  and  N_2 
ROOT
ATOM      1  S   UNL d   1      53.776  32.454  53.844  0.00  0.00     0.271 S 
ATOM      2  O   UNL d   1      53.492  32.370  54.536  0.00  0.00    -0.200 OA
ATOM      3  O   UNL d   1      54.074  32.516  53.081  0.00  0.00    -0.200 OA
ENDROOT
BRANCH   1   4
ATOM      4  N   UNL d   1      54.077  33.208  54.024  0.00  0.00    -0.231 N 
BRANCH   4   5
ATOM      5  C   UNL d   1      53.568  33.862  54.042  0.00  0.00     0.075 A 
ATOM      6  C   UNL d   1      53.386  34.260  53.334  0.00  0.00     0.018 A 
ATOM      7  C   UNL d   1      52.877  34.916  53.345  0.00  0.00     0.002 A 
ATOM      8  C   UNL d   1      52.549  35.175  54.065  0.00  0.00     0.000 A 
ATOM      9  C   UNL d   1      52.733  34.775  54.772  0.00  0.00     0.002 A 
ATOM     10  C   UNL d   1      53.243  34.119  54.760  0.00  0.00     0.018 A 
ENDBRANCH   4   5
BRANCH   4  11
ATOM     11  C   UNL d   1      54.885  33.303  54.185  0.00  0.00     0.092 C 
ATOM     12  C   UNL d   1      55.136  33.501  54.946  0.00  0.00     0.021 C 
ENDBRANCH   4  11
ENDBRANCH   1   4
BRANCH   1  13
ATOM     13  C   UNL d   1      53.514  31.774  53.652  0.00  0.00     0.104 A 
ATOM     14  C   UNL d   1      53.039  31.696  53.064  0.00  0.00     0.015 A 
ATOM     15  C   UNL d   1      52.785  31.020  52.880  0.00  0.00     0.022 A 
ATOM     16  C   UNL d   1      52.993  30.415  53.268  0.00  0.00     0.103 A 
ATOM     17  C   UNL d   1      53.462  30.481  53.849  0.00  0.00     0.022 A 
ATOM     18  N   UNL d   1      52.731  29.738  53.074  0.00  0.00    -0.148 N 
ATOM     19  C   UNL d   1      53.725  31.159  54.045  0.00  0.00     0.015 A 
ENDBRANCH   1  13
TORSDOF 4
ENDMDL
MODEL 4
REMARK VINA RESULT:      -8.3      1.292      3.278
REMARK  4 active torsions:
REMARK  status: ('A' for Active; 'I' for Inactive)
REMARK    1  A    between atoms: N_2  and  S_1 
REMARK    2  A    between atoms: C_3  and  S_1 
REMARK    3  A    between atoms: C_6  and  N_2 
REMARK    4  A    between atoms: C_13  and  N_2 
ROOT
ATOM      1  S   UNL d   1      53.542  32.480  53.792  0.00  0.00     0.271 S 
ATOM      2  O   UNL d   1      53.159  32.331  54.422  0.00  0.00    -0.200 OA
ATOM      3  O   UNL d   1      53.982  32.659  53.122  0.00  0.00    -0.200 OA
ENDROOT
BRANCH   1   4
ATOM      4  N   UNL d   1      52.994  32.065  53.323  0.00  0.00    -0.231 N 
BRANCH   4   5
ATOM      5  C   UNL d   1      53.008  31.237  53.308  0.00  0.00     0.075 A 
ATOM      6  C   UNL d   1      53.255  30.843  52.618  0.00  0.00     0.018 A 
ATOM      7  C   UNL d   1      53.271  30.012  52.597  0.00  0.00     0.002 A 
ATOM      8  C   UNL d   1      53.040  29.575  53.267  0.00  0.00     0.000 A 
ATOM      9  C   UNL d   1      52.793  29.973  53.956  0.00  0.00     0.002 A 
ATOM     10  C   UNL d   1      52.777  30.804  53.977  0.00  0.00     0.018 A 
ENDBRANCH   4   5
BRANCH   4  11
ATOM     11  C   UNL d   1      52.437  32.482  52.873  0.00  0.00     0.092 C 
ATOM     12  C   UNL d   1      51.685  32.634  53.179  0.00  0.00     0.021 C 
ENDBRANCH   4  11
ENDBRANCH   1   4
BRANCH   1  13
ATOM     13  C   UNL d   1      54.055  32.862  54.191  0.00  0.00     0.104 A 
ATOM     14  C   UNL d   1      54.709  33.078  53.871  0.00  0.00     0.015 A 
ATOM     15  C   UNL d   1      55.212  33.455  54.271  0.00  0.00     0.022 A 
ATOM     16  C   UNL d   1      55.078  33.626  54.987  0.00  0.00     0.103 A 
ATOM     17  C   UNL d   1      54.436  33.418  55.313  0.00  0.00     0.022 A 
ATOM     18  N   UNL d   1      55.592  34.007  55.383  0.00  0.00    -0.148 N 
ATOM     19  C   UNL d   1      53.921  33.036  54.918  0.00  0.00     0.015 A 
ENDBRANCH   1  13
TORSDOF 4
ENDMDL
