MODEL 1
REMARK VINA RESULT:      -2.1      0.000      0.000
REMARK  3 active torsions:
REMARK  status: ('A' for Active; 'I' for Inactive)
REMARK    1  A    between atoms: C_11  and  C_6 
REMARK    2  A    between atoms: O_20  and  C_11 
REMARK    3  A    between atoms: C_22  and  O_20 
ROOT
ATOM      1  C   UNL d   1      32.928  19.875 -23.366  0.00  0.00     0.155 A 
ATOM      2  C   UNL d   1      32.905  19.383 -22.704  0.00  0.00     0.091 A 
ATOM      3  N   UNL d   1      33.017  20.687 -23.274  0.00  0.00    -0.210 NA
ATOM      4  N   UNL d   1      33.063  20.518 -21.857  0.00  0.00    -0.258 N 
ATOM      5  N   UNL d   1      32.860  19.552 -24.121  0.00  0.00    -0.272 N 
ATOM      6  C   UNL d   1      32.747  18.241 -23.557  0.00  0.00     0.100 A 
ATOM      7  C   UNL d   1      33.084  21.003 -22.524  0.00  0.00     0.152 A 
ATOM      8  C   UNL d   1      32.973  19.704 -21.949  0.00  0.00     0.269 A 
ATOM      9  C   UNL d   1      32.770  18.733 -24.219  0.00  0.00     0.176 A 
ATOM     10  C   UNL d   1      32.816  18.567 -22.793  0.00  0.00     0.016 A 
ATOM     11  C   UNL d   1      33.175  21.822 -22.427  0.00  0.00     0.035 A 
ATOM     12  C   UNL d   1      33.130  20.839 -21.102  0.00  0.00     0.084 A 
ATOM     13  N   UNL d   1      32.702  18.408 -24.976  0.00  0.00    -0.128 N 
ATOM     14  O   UNL d   1      32.950  19.213 -21.287  0.00  0.00    -0.266 OA
ATOM     15  C   UNL d   1      33.219  21.646 -21.015  0.00  0.00     0.019 A 
ATOM     16  C   UNL d   1      33.241  22.137 -21.677  0.00  0.00     0.005 A 
ATOM     17  C   UNL d   1      32.883  20.044 -24.783  0.00  0.00     0.102 C 
ATOM     18  C   UNL d   1      33.197  22.314 -23.089  0.00  0.00     0.003 C 
ENDROOT
BRANCH   6  19
ATOM     19  C   UNL d   1      32.657  17.425 -23.651  0.00  0.00     0.303 C 
ATOM     20  O   UNL d   1      33.231  16.991 -24.055  0.00  0.00    -0.259 OA
BRANCH  19  21
ATOM     21  O   UNL d   1      31.995  17.046 -23.341  0.00  0.00    -0.271 OA
BRANCH  21  22
ATOM     22  C   UNL d   1      31.806  16.284 -23.588  0.00  0.00     0.126 C 
ATOM     23  C   UNL d   1      31.142  15.906 -23.280  0.00  0.00     0.029 C 
ENDBRANCH  21  22
ENDBRANCH  19  21
ENDBRANCH   6  19
TORSDOF 3
ENDMDL
MODEL 2
REMARK VINA RESULT:      -2.1      1.842      4.483
REMARK  3 active torsions:
REMARK  status: ('A' for Active; 'I' for Inactive)
REMARK    1  A    between atoms: C_11  and  C_6 
REMARK    2  A    between atoms: O_20  and  C_11 
REMARK    3  A    between atoms: C_22  and  O_20 
ROOT
ATOM      1  C   UNL d   1      33.185  21.400 -22.268  0.00  0.00     0.155 A 
ATOM      2  C   UNL d   1      33.198  21.063 -21.516  0.00  0.00     0.091 A 
ATOM      3  N   UNL d   1      33.189  20.920 -22.936  0.00  0.00    -0.210 NA
ATOM      4  N   UNL d   1      33.220  19.763 -22.100  0.00  0.00    -0.258 N 
ATOM      5  N   UNL d   1      33.168  22.219 -22.352  0.00  0.00    -0.272 N 
ATOM      6  C   UNL d   1      33.176  22.371 -20.928  0.00  0.00     0.100 A 
ATOM      7  C   UNL d   1      33.207  20.108 -22.849  0.00  0.00     0.152 A 
ATOM      8  C   UNL d   1      33.215  20.244 -21.431  0.00  0.00     0.269 A 
ATOM      9  C   UNL d   1      33.163  22.708 -21.681  0.00  0.00     0.176 A 
ATOM     10  C   UNL d   1      33.194  21.542 -20.843  0.00  0.00     0.016 A 
ATOM     11  C   UNL d   1      33.211  19.620 -23.520  0.00  0.00     0.035 A 
ATOM     12  C   UNL d   1      33.237  18.944 -22.014  0.00  0.00     0.084 A 
ATOM     13  N   UNL d   1      33.146  23.530 -21.763  0.00  0.00    -0.128 N 
ATOM     14  O   UNL d   1      33.228  19.906 -20.678  0.00  0.00    -0.266 OA
ATOM     15  C   UNL d   1      33.241  18.471 -22.680  0.00  0.00     0.019 A 
ATOM     16  C   UNL d   1      33.228  18.809 -23.432  0.00  0.00     0.005 A 
ATOM     17  C   UNL d   1      33.155  22.557 -23.105  0.00  0.00     0.102 C 
ATOM     18  C   UNL d   1      33.198  19.958 -24.272  0.00  0.00     0.003 C 
ENDROOT
BRANCH   6  19
ATOM     19  C   UNL d   1      33.172  22.854 -20.258  0.00  0.00     0.303 C 
ATOM     20  O   UNL d   1      33.239  23.673 -20.340  0.00  0.00    -0.259 OA
BRANCH  19  21
ATOM     21  O   UNL d   1      33.101  22.519 -19.509  0.00  0.00    -0.271 OA
BRANCH  21  22
ATOM     22  C   UNL d   1      33.074  23.004 -18.845  0.00  0.00     0.126 C 
ATOM     23  C   UNL d   1      33.003  22.668 -18.095  0.00  0.00     0.029 C 
ENDBRANCH  21  22
ENDBRANCH  19  21
ENDBRANCH   6  19
TORSDOF 3
ENDMDL
MODEL 3
REMARK VINA RESULT:      -1.7      2.900      4.375
REMARK  3 active torsions:
REMARK  status: ('A' for Active; 'I' for Inactive)
REMARK    1  A    between atoms: C_11  and  C_6 
REMARK    2  A    between atoms: O_20  and  C_11 
REMARK    3  A    between atoms: C_22  and  O_20 
ROOT
ATOM      1  C   UNL d   1      30.490  17.258 -24.346  0.00  0.00     0.155 A 
ATOM      2  C   UNL d   1      30.458  16.522 -23.974  0.00  0.00     0.091 A 
ATOM      3  N   UNL d   1      31.195  17.681 -24.363  0.00  0.00    -0.210 NA
ATOM      4  N   UNL d   1      31.838  16.632 -23.637  0.00  0.00    -0.258 N 
ATOM      5  N   UNL d   1      29.815  17.570 -24.700  0.00  0.00    -0.272 N 
ATOM      6  C   UNL d   1      29.069  16.411 -24.314  0.00  0.00     0.100 A 
ATOM      7  C   UNL d   1      31.862  17.368 -24.010  0.00  0.00     0.152 A 
ATOM      8  C   UNL d   1      31.131  16.209 -23.620  0.00  0.00     0.269 A 
ATOM      9  C   UNL d   1      29.101  17.147 -24.686  0.00  0.00     0.176 A 
ATOM     10  C   UNL d   1      29.751  16.095 -23.956  0.00  0.00     0.016 A 
ATOM     11  C   UNL d   1      32.575  17.791 -24.025  0.00  0.00     0.035 A 
ATOM     12  C   UNL d   1      32.511  16.319 -23.282  0.00  0.00     0.084 A 
ATOM     13  N   UNL d   1      28.424  17.459 -25.041  0.00  0.00    -0.128 N 
ATOM     14  O   UNL d   1      31.099  15.473 -23.248  0.00  0.00    -0.266 OA
ATOM     15  C   UNL d   1      33.209  16.742 -23.301  0.00  0.00     0.019 A 
ATOM     16  C   UNL d   1      33.241  17.478 -23.672  0.00  0.00     0.005 A 
ATOM     17  C   UNL d   1      29.847  18.306 -25.072  0.00  0.00     0.102 C 
ATOM     18  C   UNL d   1      32.607  18.527 -24.396  0.00  0.00     0.003 C 
ENDROOT
BRANCH   6  19
ATOM     19  C   UNL d   1      28.359  15.987 -24.298  0.00  0.00     0.303 C 
ATOM     20  O   UNL d   1      28.185  15.453 -24.901  0.00  0.00    -0.259 OA
BRANCH  19  21
ATOM     21  O   UNL d   1      27.827  16.100 -23.679  0.00  0.00    -0.271 OA
BRANCH  21  22
ATOM     22  C   UNL d   1      27.212  15.565 -23.566  0.00  0.00     0.126 C 
ATOM     23  C   UNL d   1      26.740  15.620 -22.893  0.00  0.00     0.029 C 
ENDBRANCH  21  22
ENDBRANCH  19  21
ENDBRANCH   6  19
TORSDOF 3
ENDMDL
MODEL 4
REMARK VINA RESULT:      -1.3      1.346      2.128
REMARK  3 active torsions:
REMARK  status: ('A' for Active; 'I' for Inactive)
REMARK    1  A    between atoms: C_11  and  C_6 
REMARK    2  A    between atoms: O_20  and  C_11 
REMARK    3  A    between atoms: C_22  and  O_20 
ROOT
ATOM      1  C   UNL d   1      33.233  21.700 -22.506  0.00  0.00     0.155 A 
ATOM      2  C   UNL d   1      33.231  20.947 -22.169  0.00  0.00     0.091 A 
ATOM      3  N   UNL d   1      33.232  22.367 -22.024  0.00  0.00    -0.210 NA
ATOM      4  N   UNL d   1      33.227  21.528 -20.868  0.00  0.00    -0.258 N 
ATOM      5  N   UNL d   1      33.236  21.785 -23.325  0.00  0.00    -0.272 N 
ATOM      6  C   UNL d   1      33.235  20.361 -23.478  0.00  0.00     0.100 A 
ATOM      7  C   UNL d   1      33.229  22.278 -21.212  0.00  0.00     0.152 A 
ATOM      8  C   UNL d   1      33.228  20.860 -21.351  0.00  0.00     0.269 A 
ATOM      9  C   UNL d   1      33.237  21.114 -23.815  0.00  0.00     0.176 A 
ATOM     10  C   UNL d   1      33.232  20.275 -22.650  0.00  0.00     0.016 A 
ATOM     11  C   UNL d   1      33.228  22.948 -20.723  0.00  0.00     0.035 A 
ATOM     12  C   UNL d   1      33.224  21.442 -20.050  0.00  0.00     0.084 A 
ATOM     13  N   UNL d   1      33.240  21.198 -24.637  0.00  0.00    -0.128 N 
ATOM     14  O   UNL d   1      33.226  20.107 -21.014  0.00  0.00    -0.266 OA
ATOM     15  C   UNL d   1      33.223  22.106 -19.576  0.00  0.00     0.019 A 
ATOM     16  C   UNL d   1      33.226  22.860 -19.913  0.00  0.00     0.005 A 
ATOM     17  C   UNL d   1      33.238  22.538 -23.662  0.00  0.00     0.102 C 
ATOM     18  C   UNL d   1      33.231  23.701 -21.060  0.00  0.00     0.003 C 
ENDROOT
BRANCH   6  19
ATOM     19  C   UNL d   1      33.236  19.692 -23.963  0.00  0.00     0.303 C 
ATOM     20  O   UNL d   1      33.238  19.777 -24.784  0.00  0.00    -0.259 OA
BRANCH  19  21
ATOM     21  O   UNL d   1      33.234  18.940 -23.626  0.00  0.00    -0.271 OA
BRANCH  21  22
ATOM     22  C   UNL d   1      33.068  18.283 -24.093  0.00  0.00     0.126 C 
ATOM     23  C   UNL d   1      33.083  17.529 -23.760  0.00  0.00     0.029 C 
ENDBRANCH  21  22
ENDBRANCH  19  21
ENDBRANCH   6  19
TORSDOF 3
ENDMDL
MODEL 5
REMARK VINA RESULT:      -1.1      2.608      4.893
REMARK  3 active torsions:
REMARK  status: ('A' for Active; 'I' for Inactive)
REMARK    1  A    between atoms: C_11  and  C_6 
REMARK    2  A    between atoms: O_20  and  C_11 
REMARK    3  A    between atoms: C_22  and  O_20 
ROOT
ATOM      1  C   UNL d   1      30.673  16.726 -23.868  0.00  0.00     0.155 A 
ATOM      2  C   UNL d   1      30.523  17.408 -24.307  0.00  0.00     0.091 A 
ATOM      3  N   UNL d   1      30.049  16.302 -23.540  0.00  0.00    -0.210 NA
ATOM      4  N   UNL d   1      29.125  17.241 -24.090  0.00  0.00    -0.258 N 
ATOM      5  N   UNL d   1      31.447  16.469 -23.756  0.00  0.00    -0.272 N 
ATOM      6  C   UNL d   1      31.930  17.576 -24.525  0.00  0.00     0.100 A 
ATOM      7  C   UNL d   1      29.282  16.560 -23.652  0.00  0.00     0.152 A 
ATOM      8  C   UNL d   1      29.749  17.666 -24.419  0.00  0.00     0.269 A 
ATOM      9  C   UNL d   1      32.080  16.895 -24.086  0.00  0.00     0.176 A 
ATOM     10  C   UNL d   1      31.147  17.837 -24.638  0.00  0.00     0.016 A 
ATOM     11  C   UNL d   1      28.650  16.135 -23.323  0.00  0.00     0.035 A 
ATOM     12  C   UNL d   1      28.351  17.499 -24.202  0.00  0.00     0.084 A 
ATOM     13  N   UNL d   1      32.857  16.638 -23.975  0.00  0.00    -0.128 N 
ATOM     14  O   UNL d   1      29.600  18.348 -24.859  0.00  0.00    -0.266 OA
ATOM     15  C   UNL d   1      27.735  17.075 -23.875  0.00  0.00     0.019 A 
ATOM     16  C   UNL d   1      27.885  16.393 -23.435  0.00  0.00     0.005 A 
ATOM     17  C   UNL d   1      31.597  15.788 -23.317  0.00  0.00     0.102 C 
ATOM     18  C   UNL d   1      28.800  15.453 -22.883  0.00  0.00     0.003 C 
ENDROOT
BRANCH   6  19
ATOM     19  C   UNL d   1      32.558  18.002 -24.854  0.00  0.00     0.303 C 
ATOM     20  O   UNL d   1      33.241  17.607 -25.097  0.00  0.00    -0.259 OA
BRANCH  19  21
ATOM     21  O   UNL d   1      32.501  18.819 -24.939  0.00  0.00    -0.271 OA
BRANCH  21  22
ATOM     22  C   UNL d   1      33.185  19.276 -24.972  0.00  0.00     0.126 C 
ATOM     23  C   UNL d   1      33.177  20.047 -24.682  0.00  0.00     0.029 C 
ENDBRANCH  21  22
ENDBRANCH  19  21
ENDBRANCH   6  19
TORSDOF 3
ENDMDL
