MODEL 1
REMARK VINA RESULT:      -9.5      0.000      0.000
REMARK  2 active torsions:
REMARK  status: ('A' for Active; 'I' for Inactive)
REMARK    1  A    between atoms: C_8  and  C_2 
REMARK    2  A    between atoms: C_9  and  C_4 
ROOT
ATOM      1  N   UNL d   1     -47.920  12.443  23.105  0.00  0.00    -0.246 NA
ATOM      2  C   UNL d   1     -49.072  13.602  22.882  0.00  0.00     0.003 A 
ATOM      3  C   UNL d   1     -49.289  12.852  23.146  0.00  0.00     0.018 A 
ATOM      4  C   UNL d   1     -47.703  13.194  22.841  0.00  0.00     0.081 A 
ATOM      5  C   UNL d   1     -48.280  13.774  22.729  0.00  0.00     0.019 A 
ATOM      6  C   UNL d   1     -48.712  12.271  23.257  0.00  0.00     0.081 A 
ATOM      7  C   UNL d   1     -50.081  12.681  23.298  0.00  0.00     0.002 A 
ATOM      8  C   UNL d   1     -48.928  11.521  23.521  0.00  0.00     0.019 A 
ATOM      9  C   UNL d   1     -50.298  11.930  23.562  0.00  0.00     0.000 A 
ATOM     10  C   UNL d   1     -49.721  11.349  23.674  0.00  0.00     0.002 A 
ATOM     11  C   UNL d   1     -51.050  11.794  23.698  0.00  0.00     0.000 C 
ENDROOT
BRANCH   2  12
ATOM     12  C   UNL d   1     -49.645  14.179  22.771  0.00  0.00     0.000 A 
ATOM     13  C   UNL d   1     -49.802  14.724  23.370  0.00  0.00     0.000 A 
ATOM     14  C   UNL d   1     -50.379  15.305  23.258  0.00  0.00     0.000 A 
ATOM     15  C   UNL d   1     -50.797  15.338  22.548  0.00  0.00     0.000 A 
ATOM     16  C   UNL d   1     -50.640  14.793  21.950  0.00  0.00     0.000 A 
ATOM     17  C   UNL d   1     -50.063  14.213  22.061  0.00  0.00     0.000 A 
ENDBRANCH   2  12
BRANCH   4  18
ATOM     18  C   UNL d   1     -46.911  13.365  22.689  0.00  0.00     0.021 A 
ATOM     19  C   UNL d   1     -46.474  12.883  22.182  0.00  0.00     0.022 A 
ATOM     20  C   UNL d   1     -45.682  13.054  22.029  0.00  0.00     0.099 A 
ATOM     21  N   UNL d   1     -45.326  13.708  22.384  0.00  0.00    -0.242 NA
ATOM     22  C   UNL d   1     -45.786  14.147  22.868  0.00  0.00     0.099 A 
ATOM     23  C   UNL d   1     -46.555  14.019  23.044  0.00  0.00     0.022 A 
ENDBRANCH   4  18
TORSDOF 2
ENDMDL
MODEL 2
REMARK VINA RESULT:      -9.3      1.166      3.439
REMARK  2 active torsions:
REMARK  status: ('A' for Active; 'I' for Inactive)
REMARK    1  A    between atoms: C_8  and  C_2 
REMARK    2  A    between atoms: C_9  and  C_4 
ROOT
ATOM      1  N   UNL d   1     -49.540  13.029  23.196  0.00  0.00    -0.246 NA
ATOM      2  C   UNL d   1     -47.949  13.342  22.890  0.00  0.00     0.003 A 
ATOM      3  C   UNL d   1     -48.178  12.597  23.159  0.00  0.00     0.018 A 
ATOM      4  C   UNL d   1     -49.311  13.774  22.926  0.00  0.00     0.081 A 
ATOM      5  C   UNL d   1     -48.515  13.931  22.773  0.00  0.00     0.019 A 
ATOM      6  C   UNL d   1     -48.974  12.440  23.312  0.00  0.00     0.081 A 
ATOM      7  C   UNL d   1     -47.612  12.009  23.275  0.00  0.00     0.002 A 
ATOM      8  C   UNL d   1     -49.203  11.696  23.581  0.00  0.00     0.019 A 
ATOM      9  C   UNL d   1     -47.841  11.263  23.545  0.00  0.00     0.000 A 
ATOM     10  C   UNL d   1     -48.637  11.106  23.698  0.00  0.00     0.002 A 
ATOM     11  C   UNL d   1     -47.289  10.727  23.646  0.00  0.00     0.000 C 
ENDROOT
BRANCH   2  12
ATOM     12  C   UNL d   1     -47.159  13.498  22.737  0.00  0.00     0.000 A 
ATOM     13  C   UNL d   1     -46.689  13.850  23.317  0.00  0.00     0.000 A 
ATOM     14  C   UNL d   1     -45.893  14.007  23.164  0.00  0.00     0.000 A 
ATOM     15  C   UNL d   1     -45.568  13.811  22.431  0.00  0.00     0.000 A 
ATOM     16  C   UNL d   1     -46.037  13.459  21.852  0.00  0.00     0.000 A 
ATOM     17  C   UNL d   1     -46.834  13.302  22.005  0.00  0.00     0.000 A 
ENDBRANCH   2  12
BRANCH   4  18
ATOM     18  C   UNL d   1     -49.877  14.363  22.810  0.00  0.00     0.021 A 
ATOM     19  C   UNL d   1     -50.393  14.319  22.168  0.00  0.00     0.022 A 
ATOM     20  C   UNL d   1     -50.959  14.907  22.051  0.00  0.00     0.099 A 
ATOM     21  N   UNL d   1     -51.009  15.541  22.577  0.00  0.00    -0.242 NA
ATOM     22  C   UNL d   1     -50.490  15.543  23.185  0.00  0.00     0.099 A 
ATOM     23  C   UNL d   1     -49.927  14.996  23.336  0.00  0.00     0.022 A 
ENDBRANCH   4  18
TORSDOF 2
ENDMDL
MODEL 3
REMARK VINA RESULT:      -9.2      1.288      2.619
REMARK  2 active torsions:
REMARK  status: ('A' for Active; 'I' for Inactive)
REMARK    1  A    between atoms: C_8  and  C_2 
REMARK    2  A    between atoms: C_9  and  C_4 
ROOT
ATOM      1  N   UNL d   1     -46.858  13.557  22.909  0.00  0.00    -0.246 NA
ATOM      2  C   UNL d   1     -48.399  12.969  22.945  0.00  0.00     0.003 A 
ATOM      3  C   UNL d   1     -48.268  13.774  22.824  0.00  0.00     0.018 A 
ATOM      4  C   UNL d   1     -46.989  12.752  23.031  0.00  0.00     0.081 A 
ATOM      5  C   UNL d   1     -47.760  12.457  23.049  0.00  0.00     0.019 A 
ATOM      6  C   UNL d   1     -47.497  14.068  22.806  0.00  0.00     0.081 A 
ATOM      7  C   UNL d   1     -48.907  14.285  22.720  0.00  0.00     0.002 A 
ATOM      8  C   UNL d   1     -47.365  14.873  22.684  0.00  0.00     0.019 A 
ATOM      9  C   UNL d   1     -48.776  15.091  22.599  0.00  0.00     0.000 A 
ATOM     10  C   UNL d   1     -48.004  15.385  22.581  0.00  0.00     0.002 A 
ATOM     11  C   UNL d   1     -49.395  15.550  22.504  0.00  0.00     0.000 C 
ENDROOT
BRANCH   2  12
ATOM     12  C   UNL d   1     -49.165  12.677  22.963  0.00  0.00     0.000 A 
ATOM     13  C   UNL d   1     -49.532  12.440  22.263  0.00  0.00     0.000 A 
ATOM     14  C   UNL d   1     -50.304  12.145  22.281  0.00  0.00     0.000 A 
ATOM     15  C   UNL d   1     -50.706  12.089  22.999  0.00  0.00     0.000 A 
ATOM     16  C   UNL d   1     -50.339  12.326  23.698  0.00  0.00     0.000 A 
ATOM     17  C   UNL d   1     -49.568  12.620  23.680  0.00  0.00     0.000 A 
ENDBRANCH   2  12
BRANCH   4  18
ATOM     18  C   UNL d   1     -46.350  12.241  23.134  0.00  0.00     0.021 A 
ATOM     19  C   UNL d   1     -46.435  11.561  23.595  0.00  0.00     0.022 A 
ATOM     20  C   UNL d   1     -45.796  11.050  23.698  0.00  0.00     0.099 A 
ATOM     21  N   UNL d   1     -45.072  11.218  23.341  0.00  0.00    -0.242 NA
ATOM     22  C   UNL d   1     -45.034  11.886  22.904  0.00  0.00     0.099 A 
ATOM     23  C   UNL d   1     -45.626  12.409  22.777  0.00  0.00     0.022 A 
ENDBRANCH   4  18
TORSDOF 2
ENDMDL
MODEL 4
REMARK VINA RESULT:      -9.1      0.903      2.410
REMARK  2 active torsions:
REMARK  status: ('A' for Active; 'I' for Inactive)
REMARK    1  A    between atoms: C_8  and  C_2 
REMARK    2  A    between atoms: C_9  and  C_4 
ROOT
ATOM      1  N   UNL d   1     -47.665  14.401  22.877  0.00  0.00    -0.246 NA
ATOM      2  C   UNL d   1     -48.971  13.393  22.926  0.00  0.00     0.003 A 
ATOM      3  C   UNL d   1     -49.080  14.210  22.948  0.00  0.00     0.018 A 
ATOM      4  C   UNL d   1     -47.556  13.583  22.854  0.00  0.00     0.081 A 
ATOM      5  C   UNL d   1     -48.209  13.079  22.879  0.00  0.00     0.019 A 
ATOM      6  C   UNL d   1     -48.426  14.715  22.923  0.00  0.00     0.081 A 
ATOM      7  C   UNL d   1     -49.841  14.524  22.995  0.00  0.00     0.002 A 
ATOM      8  C   UNL d   1     -48.535  15.531  22.946  0.00  0.00     0.019 A 
ATOM      9  C   UNL d   1     -49.950  15.341  23.017  0.00  0.00     0.000 A 
ATOM     10  C   UNL d   1     -49.297  15.846  22.993  0.00  0.00     0.002 A 
ATOM     11  C   UNL d   1     -50.677  15.610  23.062  0.00  0.00     0.000 C 
ENDROOT
BRANCH   2  12
ATOM     12  C   UNL d   1     -49.619  12.892  22.950  0.00  0.00     0.000 A 
ATOM     13  C   UNL d   1     -49.998  12.674  22.250  0.00  0.00     0.000 A 
ATOM     14  C   UNL d   1     -50.651  12.169  22.274  0.00  0.00     0.000 A 
ATOM     15  C   UNL d   1     -50.925  11.885  22.999  0.00  0.00     0.000 A 
ATOM     16  C   UNL d   1     -50.547  12.103  23.698  0.00  0.00     0.000 A 
ATOM     17  C   UNL d   1     -49.893  12.608  23.673  0.00  0.00     0.000 A 
ENDBRANCH   2  12
BRANCH   4  18
ATOM     18  C   UNL d   1     -46.795  13.270  22.807  0.00  0.00     0.021 A 
ATOM     19  C   UNL d   1     -46.264  13.555  22.243  0.00  0.00     0.022 A 
ATOM     20  C   UNL d   1     -45.503  13.242  22.196  0.00  0.00     0.099 A 
ATOM     21  N   UNL d   1     -45.271  12.642  22.714  0.00  0.00    -0.242 NA
ATOM     22  C   UNL d   1     -45.816  12.396  23.243  0.00  0.00     0.099 A 
ATOM     23  C   UNL d   1     -46.563  12.670  23.324  0.00  0.00     0.022 A 
ENDBRANCH   4  18
TORSDOF 2
ENDMDL
MODEL 5
REMARK VINA RESULT:      -7.2      9.132     10.554
REMARK  2 active torsions:
REMARK  status: ('A' for Active; 'I' for Inactive)
REMARK    1  A    between atoms: C_8  and  C_2 
REMARK    2  A    between atoms: C_9  and  C_4 
ROOT
ATOM      1  N   UNL d   1     -40.438  15.473  19.396  0.00  0.00    -0.246 NA
ATOM      2  C   UNL d   1     -39.496  14.601  18.360  0.00  0.00     0.003 A 
ATOM      3  C   UNL d   1     -40.130  15.041  18.070  0.00  0.00     0.018 A 
ATOM      4  C   UNL d   1     -39.804  15.033  19.688  0.00  0.00     0.081 A 
ATOM      5  C   UNL d   1     -39.332  14.597  19.169  0.00  0.00     0.019 A 
ATOM      6  C   UNL d   1     -40.601  15.478  18.588  0.00  0.00     0.081 A 
ATOM      7  C   UNL d   1     -40.293  15.045  17.261  0.00  0.00     0.002 A 
ATOM      8  C   UNL d   1     -41.235  15.917  18.298  0.00  0.00     0.019 A 
ATOM      9  C   UNL d   1     -40.927  15.486  16.970  0.00  0.00     0.000 A 
ATOM     10  C   UNL d   1     -41.399  15.922  17.489  0.00  0.00     0.002 A 
ATOM     11  C   UNL d   1     -41.059  15.472  16.205  0.00  0.00     0.000 C 
ENDROOT
BRANCH   2  12
ATOM     12  C   UNL d   1     -39.027  14.168  17.845  0.00  0.00     0.000 A 
ATOM     13  C   UNL d   1     -39.173  13.363  17.734  0.00  0.00     0.000 A 
ATOM     14  C   UNL d   1     -38.701  12.927  17.215  0.00  0.00     0.000 A 
ATOM     15  C   UNL d   1     -38.085  13.296  16.809  0.00  0.00     0.000 A 
ATOM     16  C   UNL d   1     -37.940  14.100  16.920  0.00  0.00     0.000 A 
ATOM     17  C   UNL d   1     -38.412  14.537  17.439  0.00  0.00     0.000 A 
ENDBRANCH   2  12
BRANCH   4  18
ATOM     18  C   UNL d   1     -39.641  15.029  20.496  0.00  0.00     0.021 A 
ATOM     19  C   UNL d   1     -39.119  15.583  20.815  0.00  0.00     0.022 A 
ATOM     20  C   UNL d   1     -38.956  15.578  21.623  0.00  0.00     0.099 A 
ATOM     21  N   UNL d   1     -39.315  15.020  22.113  0.00  0.00    -0.242 NA
ATOM     22  C   UNL d   1     -39.813  14.503  21.762  0.00  0.00     0.099 A 
ATOM     23  C   UNL d   1     -40.000  14.470  20.986  0.00  0.00     0.022 A 
ENDBRANCH   4  18
TORSDOF 2
ENDMDL
MODEL 6
REMARK VINA RESULT:      -6.9      7.927     10.095
REMARK  2 active torsions:
REMARK  status: ('A' for Active; 'I' for Inactive)
REMARK    1  A    between atoms: C_8  and  C_2 
REMARK    2  A    between atoms: C_9  and  C_4 
ROOT
ATOM      1  N   UNL d   1     -38.360  13.741  19.413  0.00  0.00    -0.246 NA
ATOM      2  C   UNL d   1     -39.705  14.434  20.070  0.00  0.00     0.003 A 
ATOM      3  C   UNL d   1     -39.159  14.053  20.556  0.00  0.00     0.018 A 
ATOM      4  C   UNL d   1     -38.906  14.122  18.926  0.00  0.00     0.081 A 
ATOM      5  C   UNL d   1     -39.579  14.469  19.255  0.00  0.00     0.019 A 
ATOM      6  C   UNL d   1     -38.486  13.706  20.227  0.00  0.00     0.081 A 
ATOM      7  C   UNL d   1     -39.285  14.018  21.370  0.00  0.00     0.002 A 
ATOM      8  C   UNL d   1     -37.940  13.325  20.713  0.00  0.00     0.019 A 
ATOM      9  C   UNL d   1     -38.739  13.637  21.857  0.00  0.00     0.000 A 
ATOM     10  C   UNL d   1     -38.065  13.289  21.528  0.00  0.00     0.002 A 
ATOM     11  C   UNL d   1     -38.881  13.618  22.620  0.00  0.00     0.000 C 
ENDROOT
BRANCH   2  12
ATOM     12  C   UNL d   1     -40.374  14.779  20.396  0.00  0.00     0.000 A 
ATOM     13  C   UNL d   1     -40.363  15.575  20.614  0.00  0.00     0.000 A 
ATOM     14  C   UNL d   1     -41.036  15.922  20.943  0.00  0.00     0.000 A 
ATOM     15  C   UNL d   1     -41.719  15.472  21.053  0.00  0.00     0.000 A 
ATOM     16  C   UNL d   1     -41.730  14.677  20.835  0.00  0.00     0.000 A 
ATOM     17  C   UNL d   1     -41.056  14.330  20.507  0.00  0.00     0.000 A 
ENDBRANCH   2  12
BRANCH   4  18
ATOM     18  C   UNL d   1     -38.780  14.157  18.113  0.00  0.00     0.021 A 
ATOM     19  C   UNL d   1     -38.234  14.693  17.801  0.00  0.00     0.022 A 
ATOM     20  C   UNL d   1     -38.108  14.728  16.987  0.00  0.00     0.099 A 
ATOM     21  N   UNL d   1     -38.528  14.227  16.483  0.00  0.00    -0.242 NA
ATOM     22  C   UNL d   1     -39.045  13.725  16.827  0.00  0.00     0.099 A 
ATOM     23  C   UNL d   1     -39.199  13.657  17.608  0.00  0.00     0.022 A 
ENDBRANCH   4  18
TORSDOF 2
ENDMDL
