MODEL 1
REMARK VINA RESULT:      12.2      0.000      0.000
REMARK  7 active torsions:
REMARK  status: ('A' for Active; 'I' for Inactive)
REMARK    1  A    between atoms: C_3  and  C_1 
REMARK    2  A    between atoms: C_4  and  C_1 
REMARK    3  A    between atoms: C_2  and  C_5 
REMARK    4  A    between atoms: O_14  and  C_2 
REMARK    5  A    between atoms: C_6  and  C_3 
REMARK    6  A    between atoms: C_13  and  C_4 
REMARK    7  A    between atoms: O_20  and  C_15 
ROOT
ATOM      1  C   UNL d   1      45.826 -16.275  43.742  0.00  0.00     0.042 C 
ENDROOT
BRANCH   1   2
ATOM      2  C   UNL d   1      45.472 -15.795  44.313  0.00  0.00     0.196 C 
ATOM      3  O   UNL d   1      45.077 -16.128  44.955  0.00  0.00    -0.287 OA
BRANCH   2   4
ATOM      4  C   UNL d   1      45.518 -14.977  44.237  0.00  0.00     0.039 A 
ATOM      5  C   UNL d   1      44.979 -14.573  43.749  0.00  0.00     0.005 A 
ATOM      6  C   UNL d   1      45.026 -13.752  43.674  0.00  0.00     0.024 A 
ATOM      7  C   UNL d   1      45.611 -13.338  44.086  0.00  0.00     0.094 A 
ATOM      8  C   UNL d   1      46.146 -13.738  44.570  0.00  0.00     0.024 A 
ATOM      9  C   UNL d   1      46.100 -14.555  44.646  0.00  0.00     0.005 A 
BRANCH   7  10
ATOM     10  O   UNL d   1      45.657 -12.521  44.010  0.00  0.00    -0.328 OA
ATOM     11  C   UNL d   1      45.518 -12.163  43.275  0.00  0.00     0.181 C 
ENDBRANCH   7  10
ENDBRANCH   2   4
ENDBRANCH   1   2
BRANCH   1  12
ATOM     12  C   UNL d   1      46.308 -16.907  43.978  0.00  0.00     0.003 C 
BRANCH  12  13
ATOM     13  C   UNL d   1      46.376 -17.575  43.503  0.00  0.00     0.000 A 
ATOM     14  C   UNL d   1      46.517 -18.301  43.848  0.00  0.00     0.000 A 
ATOM     15  C   UNL d   1      46.587 -18.975  43.377  0.00  0.00     0.005 A 
ATOM     16  C   UNL d   1      46.513 -18.912  42.550  0.00  0.00     0.063 A 
ATOM     17  C   UNL d   1      46.371 -18.176  42.209  0.00  0.00     0.005 A 
ATOM     18  C   UNL d   1      46.303 -17.508  42.683  0.00  0.00     0.000 A 
BRANCH  16  19
ATOM     19  C   UNL d   1      46.581 -19.580  42.075  0.00  0.00     0.296 C 
ATOM     20  O   UNL d   1      46.625 -20.328  42.418  0.00  0.00    -0.259 OA
BRANCH  19  21
ATOM     21  O   UNL d   1      46.606 -19.500  41.256  0.00  0.00    -0.296 OA
ATOM     22  C   UNL d   1      46.584 -20.164  40.769  0.00  0.00     0.185 C 
ENDBRANCH  19  21
ENDBRANCH  16  19
ENDBRANCH  12  13
ENDBRANCH   1  12
TORSDOF 7
ENDMDL
