MODEL 1
REMARK VINA RESULT:      -7.7      0.000      0.000
REMARK  4 active torsions:
REMARK  status: ('A' for Active; 'I' for Inactive)
REMARK    1  A    between atoms: N_3  and  C_8 
REMARK    2  A    between atoms: S_11  and  C_4 
REMARK    3  A    between atoms: C_15  and  S_11 
REMARK    4  A    between atoms: C_16  and  C_15 
ROOT
ATOM      1  C   UNL d   1     -48.126  13.710  23.119  0.00  0.00     0.037 C 
ENDROOT
BRANCH   1   2
ATOM      2  S   UNL d   1     -48.383  14.240  22.547  0.00  0.00    -0.067 SA
BRANCH   2   3
ATOM      3  C   UNL d   1     -49.164  14.512  22.565  0.00  0.00     0.117 A 
ATOM      4  N   UNL d   1     -49.714  14.222  22.034  0.00  0.00    -0.184 NA
ATOM      5  C   UNL d   1     -50.495  14.494  22.051  0.00  0.00     0.369 A 
ATOM      6  N   UNL d   1     -50.724  15.056  22.600  0.00  0.00    -0.191 NA
ATOM      7  O   UNL d   1     -51.047  14.200  21.514  0.00  0.00    -0.242 OA
ATOM      8  C   UNL d   1     -50.172  15.350  23.137  0.00  0.00     0.088 A 
ATOM      9  C   UNL d   1     -49.391  15.078  23.119  0.00  0.00     0.045 A 
ATOM     10  C   UNL d   1     -50.398  15.922  23.698  0.00  0.00     0.021 C 
ENDBRANCH   2   3
ENDBRANCH   1   2
BRANCH   1  11
ATOM     11  C   UNL d   1     -47.393  13.345  23.056  0.00  0.00     0.007 A 
ATOM     12  C   UNL d   1     -46.738  13.749  22.751  0.00  0.00     0.002 A 
ATOM     13  C   UNL d   1     -46.013  13.384  22.690  0.00  0.00     0.024 A 
ATOM     14  C   UNL d   1     -45.930  12.604  22.934  0.00  0.00     0.127 A 
ATOM     15  C   UNL d   1     -46.566  12.199  23.234  0.00  0.00     0.024 A 
ATOM     16  C   UNL d   1     -47.306  12.560  23.301  0.00  0.00     0.002 A 
BRANCH  14  17
ATOM     17  N   UNL d   1     -45.200  12.227  22.876  0.00  0.00    -0.114 N 
ATOM     18  O   UNL d   1     -45.037  11.561  23.332  0.00  0.00    -0.532 OA
ATOM     19  O   UNL d   1     -44.631  12.522  22.357  0.00  0.00    -0.532 OA
ENDBRANCH  14  17
ENDBRANCH   1  11
TORSDOF 4
ENDMDL
MODEL 2
REMARK VINA RESULT:      -7.6      1.056      4.738
REMARK  4 active torsions:
REMARK  status: ('A' for Active; 'I' for Inactive)
REMARK    1  A    between atoms: N_3  and  C_8 
REMARK    2  A    between atoms: S_11  and  C_4 
REMARK    3  A    between atoms: C_15  and  S_11 
REMARK    4  A    between atoms: C_16  and  C_15 
ROOT
ATOM      1  C   UNL d   1     -47.759  13.746  22.529  0.00  0.00     0.037 C 
ENDROOT
BRANCH   1   2
ATOM      2  S   UNL d   1     -47.218  13.674  23.142  0.00  0.00    -0.067 SA
BRANCH   2   3
ATOM      3  C   UNL d   1     -46.572  13.164  23.058  0.00  0.00     0.117 A 
ATOM      4  N   UNL d   1     -45.921  13.391  22.618  0.00  0.00    -0.184 NA
ATOM      5  C   UNL d   1     -45.275  12.881  22.535  0.00  0.00     0.369 A 
ATOM      6  N   UNL d   1     -45.282  12.144  22.890  0.00  0.00    -0.191 NA
ATOM      7  O   UNL d   1     -44.620  13.114  22.091  0.00  0.00    -0.242 OA
ATOM      8  C   UNL d   1     -45.937  11.912  23.334  0.00  0.00     0.088 A 
ATOM      9  C   UNL d   1     -46.582  12.422  23.418  0.00  0.00     0.045 A 
ATOM     10  C   UNL d   1     -45.951  11.164  23.698  0.00  0.00     0.021 C 
ENDBRANCH   2   3
ENDBRANCH   1   2
BRANCH   1  11
ATOM     11  C   UNL d   1     -48.455  14.169  22.630  0.00  0.00     0.007 A 
ATOM     12  C   UNL d   1     -48.466  14.995  22.573  0.00  0.00     0.002 A 
ATOM     13  C   UNL d   1     -49.159  15.411  22.673  0.00  0.00     0.024 A 
ATOM     14  C   UNL d   1     -49.856  15.006  22.833  0.00  0.00     0.127 A 
ATOM     15  C   UNL d   1     -49.855  14.197  22.891  0.00  0.00     0.024 A 
ATOM     16  C   UNL d   1     -49.159  13.765  22.790  0.00  0.00     0.002 A 
BRANCH  14  17
ATOM     17  N   UNL d   1     -50.561  15.419  22.936  0.00  0.00    -0.114 N 
ATOM     18  O   UNL d   1     -50.772  15.707  23.678  0.00  0.00    -0.532 OA
ATOM     19  O   UNL d   1     -51.057  15.544  22.289  0.00  0.00    -0.532 OA
ENDBRANCH  14  17
ENDBRANCH   1  11
TORSDOF 4
ENDMDL
MODEL 3
REMARK VINA RESULT:      -7.2      1.048      1.400
REMARK  4 active torsions:
REMARK  status: ('A' for Active; 'I' for Inactive)
REMARK    1  A    between atoms: N_3  and  C_8 
REMARK    2  A    between atoms: S_11  and  C_4 
REMARK    3  A    between atoms: C_15  and  S_11 
REMARK    4  A    between atoms: C_16  and  C_15 
ROOT
ATOM      1  C   UNL d   1     -47.810  13.688  23.231  0.00  0.00     0.037 C 
ENDROOT
BRANCH   1   2
ATOM      2  S   UNL d   1     -48.389  13.839  22.669  0.00  0.00    -0.067 SA
BRANCH   2   3
ATOM      3  C   UNL d   1     -49.141  14.081  22.913  0.00  0.00     0.117 A 
ATOM      4  N   UNL d   1     -49.311  14.877  23.002  0.00  0.00    -0.184 NA
ATOM      5  C   UNL d   1     -50.063  15.119  23.246  0.00  0.00     0.369 A 
ATOM      6  N   UNL d   1     -50.645  14.566  23.401  0.00  0.00    -0.191 NA
ATOM      7  O   UNL d   1     -50.230  15.922  23.334  0.00  0.00    -0.242 OA
ATOM      8  C   UNL d   1     -50.478  13.763  23.313  0.00  0.00     0.088 A 
ATOM      9  C   UNL d   1     -49.726  13.520  23.069  0.00  0.00     0.045 A 
ATOM     10  C   UNL d   1     -51.064  13.194  23.469  0.00  0.00     0.021 C 
ENDBRANCH   2   3
ENDBRANCH   1   2
BRANCH   1  11
ATOM     11  C   UNL d   1     -47.058  13.447  23.007  0.00  0.00     0.007 A 
ATOM     12  C   UNL d   1     -46.770  12.699  23.212  0.00  0.00     0.002 A 
ATOM     13  C   UNL d   1     -46.023  12.463  22.988  0.00  0.00     0.024 A 
ATOM     14  C   UNL d   1     -45.550  12.975  22.552  0.00  0.00     0.127 A 
ATOM     15  C   UNL d   1     -45.824  13.710  22.346  0.00  0.00     0.024 A 
ATOM     16  C   UNL d   1     -46.580  13.959  22.568  0.00  0.00     0.002 A 
BRANCH  14  17
ATOM     17  N   UNL d   1     -44.794  12.744  22.321  0.00  0.00    -0.114 N 
ATOM     18  O   UNL d   1     -44.474  12.034  22.586  0.00  0.00    -0.532 OA
ATOM     19  O   UNL d   1     -44.357  13.232  21.820  0.00  0.00    -0.532 OA
ENDBRANCH  14  17
ENDBRANCH   1  11
TORSDOF 4
ENDMDL
MODEL 4
REMARK VINA RESULT:      -6.8      0.976      1.359
REMARK  4 active torsions:
REMARK  status: ('A' for Active; 'I' for Inactive)
REMARK    1  A    between atoms: N_3  and  C_8 
REMARK    2  A    between atoms: S_11  and  C_4 
REMARK    3  A    between atoms: C_15  and  S_11 
REMARK    4  A    between atoms: C_16  and  C_15 
ROOT
ATOM      1  C   UNL d   1     -47.894  12.668  23.401  0.00  0.00     0.037 C 
ENDROOT
BRANCH   1   2
ATOM      2  S   UNL d   1     -48.115  13.154  22.777  0.00  0.00    -0.067 SA
BRANCH   2   3
ATOM      3  C   UNL d   1     -48.839  13.553  22.807  0.00  0.00     0.117 A 
ATOM      4  N   UNL d   1     -49.541  13.135  22.790  0.00  0.00    -0.184 NA
ATOM      5  C   UNL d   1     -50.265  13.533  22.820  0.00  0.00     0.369 A 
ATOM      6  N   UNL d   1     -50.286  14.349  22.867  0.00  0.00    -0.191 NA
ATOM      7  O   UNL d   1     -50.972  13.108  22.802  0.00  0.00    -0.242 OA
ATOM      8  C   UNL d   1     -49.579  14.775  22.884  0.00  0.00     0.088 A 
ATOM      9  C   UNL d   1     -48.855  14.376  22.855  0.00  0.00     0.045 A 
ATOM     10  C   UNL d   1     -49.592  15.605  22.932  0.00  0.00     0.021 C 
ENDBRANCH   2   3
ENDBRANCH   1   2
BRANCH   1  11
ATOM     11  C   UNL d   1     -47.181  12.261  23.386  0.00  0.00     0.007 A 
ATOM     12  C   UNL d   1     -47.119  11.496  23.696  0.00  0.00     0.002 A 
ATOM     13  C   UNL d   1     -46.411  11.095  23.679  0.00  0.00     0.024 A 
ATOM     14  C   UNL d   1     -45.749  11.454  23.349  0.00  0.00     0.127 A 
ATOM     15  C   UNL d   1     -45.800  12.204  23.043  0.00  0.00     0.024 A 
ATOM     16  C   UNL d   1     -46.513  12.619  23.055  0.00  0.00     0.002 A 
BRANCH  14  17
ATOM     17  N   UNL d   1     -45.028  11.056  23.328  0.00  0.00    -0.114 N 
ATOM     18  O   UNL d   1     -44.944  10.325  23.698  0.00  0.00    -0.532 OA
ATOM     19  O   UNL d   1     -44.389  11.395  22.932  0.00  0.00    -0.532 OA
ENDBRANCH  14  17
ENDBRANCH   1  11
TORSDOF 4
ENDMDL
MODEL 5
REMARK VINA RESULT:      -5.8      1.969      5.289
REMARK  4 active torsions:
REMARK  status: ('A' for Active; 'I' for Inactive)
REMARK    1  A    between atoms: N_3  and  C_8 
REMARK    2  A    between atoms: S_11  and  C_4 
REMARK    3  A    between atoms: C_15  and  S_11 
REMARK    4  A    between atoms: C_16  and  C_15 
ROOT
ATOM      1  C   UNL d   1     -46.588  12.208  23.365  0.00  0.00     0.037 C 
ENDROOT
BRANCH   1   2
ATOM      2  S   UNL d   1     -46.230  11.508  23.601  0.00  0.00    -0.067 SA
BRANCH   2   3
ATOM      3  C   UNL d   1     -45.445  11.359  23.388  0.00  0.00     0.117 A 
ATOM      4  N   UNL d   1     -45.035  11.891  22.921  0.00  0.00    -0.184 NA
ATOM      5  C   UNL d   1     -44.250  11.743  22.708  0.00  0.00     0.369 A 
ATOM      6  N   UNL d   1     -43.875  11.062  22.963  0.00  0.00    -0.191 NA
ATOM      7  O   UNL d   1     -43.841  12.282  22.237  0.00  0.00    -0.242 OA
ATOM      8  C   UNL d   1     -44.284  10.523  23.435  0.00  0.00     0.088 A 
ATOM      9  C   UNL d   1     -45.070  10.672  23.647  0.00  0.00     0.045 A 
ATOM     10  C   UNL d   1     -43.910   9.828  23.698  0.00  0.00     0.021 C 
ENDBRANCH   2   3
ENDBRANCH   1   2
BRANCH   1  11
ATOM     11  C   UNL d   1     -47.405  12.272  23.330  0.00  0.00     0.007 A 
ATOM     12  C   UNL d   1     -47.895  11.676  23.631  0.00  0.00     0.002 A 
ATOM     13  C   UNL d   1     -48.705  11.744  23.594  0.00  0.00     0.024 A 
ATOM     14  C   UNL d   1     -49.042  12.412  23.255  0.00  0.00     0.127 A 
ATOM     15  C   UNL d   1     -48.571  13.002  22.958  0.00  0.00     0.024 A 
ATOM     16  C   UNL d   1     -47.747  12.944  22.990  0.00  0.00     0.002 A 
BRANCH  14  17
ATOM     17  N   UNL d   1     -49.861  12.489  23.214  0.00  0.00    -0.114 N 
ATOM     18  O   UNL d   1     -50.203  13.061  22.732  0.00  0.00    -0.532 OA
ATOM     19  O   UNL d   1     -50.338  11.986  23.660  0.00  0.00    -0.532 OA
ENDBRANCH  14  17
ENDBRANCH   1  11
TORSDOF 4
ENDMDL
MODEL 6
REMARK VINA RESULT:      -5.6      8.846      9.554
REMARK  4 active torsions:
REMARK  status: ('A' for Active; 'I' for Inactive)
REMARK    1  A    between atoms: N_3  and  C_8 
REMARK    2  A    between atoms: S_11  and  C_4 
REMARK    3  A    between atoms: C_15  and  S_11 
REMARK    4  A    between atoms: C_16  and  C_15 
ROOT
ATOM      1  C   UNL d   1     -39.592  14.732  19.845  0.00  0.00     0.037 C 
ENDROOT
BRANCH   1   2
ATOM      2  S   UNL d   1     -40.028  14.808  20.536  0.00  0.00    -0.067 SA
BRANCH   2   3
ATOM      3  C   UNL d   1     -39.654  14.708  21.267  0.00  0.00     0.117 A 
ATOM      4  N   UNL d   1     -39.418  13.965  21.513  0.00  0.00    -0.184 NA
ATOM      5  C   UNL d   1     -39.044  13.865  22.244  0.00  0.00     0.369 A 
ATOM      6  N   UNL d   1     -38.907  14.510  22.728  0.00  0.00    -0.191 NA
ATOM      7  O   UNL d   1     -38.808  13.114  22.489  0.00  0.00    -0.242 OA
ATOM      8  C   UNL d   1     -39.143  15.262  22.484  0.00  0.00     0.088 A 
ATOM      9  C   UNL d   1     -39.517  15.361  21.753  0.00  0.00     0.045 A 
ATOM     10  C   UNL d   1     -39.006  15.922  22.971  0.00  0.00     0.021 C 
ENDBRANCH   2   3
ENDBRANCH   1   2
BRANCH   1  11
ATOM     11  C   UNL d   1     -39.925  14.909  19.116  0.00  0.00     0.007 A 
ATOM     12  C   UNL d   1     -39.985  15.691  18.850  0.00  0.00     0.002 A 
ATOM     13  C   UNL d   1     -40.315  15.862  18.127  0.00  0.00     0.024 A 
ATOM     14  C   UNL d   1     -40.594  15.250  17.653  0.00  0.00     0.127 A 
ATOM     15  C   UNL d   1     -40.539  14.481  17.904  0.00  0.00     0.024 A 
ATOM     16  C   UNL d   1     -40.206  14.296  18.636  0.00  0.00     0.002 A 
BRANCH  14  17
ATOM     17  N   UNL d   1     -40.930  15.414  16.919  0.00  0.00    -0.114 N 
ATOM     18  O   UNL d   1     -41.711  15.207  16.762  0.00  0.00    -0.532 OA
ATOM     19  O   UNL d   1     -40.477  15.789  16.340  0.00  0.00    -0.532 OA
ENDBRANCH  14  17
ENDBRANCH   1  11
TORSDOF 4
ENDMDL
MODEL 7
REMARK VINA RESULT:      -5.5      8.528      9.430
REMARK  4 active torsions:
REMARK  status: ('A' for Active; 'I' for Inactive)
REMARK    1  A    between atoms: N_3  and  C_8 
REMARK    2  A    between atoms: S_11  and  C_4 
REMARK    3  A    between atoms: C_15  and  S_11 
REMARK    4  A    between atoms: C_16  and  C_15 
ROOT
ATOM      1  C   UNL d   1     -39.840  14.840  19.478  0.00  0.00     0.037 C 
ENDROOT
BRANCH   1   2
ATOM      2  S   UNL d   1     -40.017  14.285  18.900  0.00  0.00    -0.067 SA
BRANCH   2   3
ATOM      3  C   UNL d   1     -40.094  14.526  18.113  0.00  0.00     0.117 A 
ATOM      4  N   UNL d   1     -40.802  14.831  17.841  0.00  0.00    -0.184 NA
ATOM      5  C   UNL d   1     -40.879  15.072  17.053  0.00  0.00     0.369 A 
ATOM      6  N   UNL d   1     -40.246  15.007  16.539  0.00  0.00    -0.191 NA
ATOM      7  O   UNL d   1     -41.595  15.379  16.783  0.00  0.00    -0.242 OA
ATOM      8  C   UNL d   1     -39.530  14.700  16.809  0.00  0.00     0.088 A 
ATOM      9  C   UNL d   1     -39.454  14.459  17.596  0.00  0.00     0.045 A 
ATOM     10  C   UNL d   1     -38.882  14.631  16.292  0.00  0.00     0.021 C 
ENDBRANCH   2   3
ENDBRANCH   1   2
BRANCH   1  11
ATOM     11  C   UNL d   1     -39.649  14.607  20.241  0.00  0.00     0.007 A 
ATOM     12  C   UNL d   1     -40.237  14.412  20.790  0.00  0.00     0.002 A 
ATOM     13  C   UNL d   1     -40.044  14.182  21.546  0.00  0.00     0.024 A 
ATOM     14  C   UNL d   1     -39.253  14.141  21.768  0.00  0.00     0.127 A 
ATOM     15  C   UNL d   1     -38.669  14.329  21.238  0.00  0.00     0.024 A 
ATOM     16  C   UNL d   1     -38.855  14.565  20.468  0.00  0.00     0.002 A 
BRANCH  14  17
ATOM     17  N   UNL d   1     -39.048  13.908  22.531  0.00  0.00    -0.114 N 
ATOM     18  O   UNL d   1     -38.988  13.110  22.722  0.00  0.00    -0.532 OA
ATOM     19  O   UNL d   1     -38.903  14.483  23.105  0.00  0.00    -0.532 OA
ENDBRANCH  14  17
ENDBRANCH   1  11
TORSDOF 4
ENDMDL
MODEL 8
REMARK VINA RESULT:      -5.2      8.075      9.951
REMARK  4 active torsions:
REMARK  status: ('A' for Active; 'I' for Inactive)
REMARK    1  A    between atoms: N_3  and  C_8 
REMARK    2  A    between atoms: S_11  and  C_4 
REMARK    3  A    between atoms: C_15  and  S_11 
REMARK    4  A    between atoms: C_16  and  C_15 
ROOT
ATOM      1  C   UNL d   1     -39.803  14.350  18.499  0.00  0.00     0.037 C 
ENDROOT
BRANCH   1   2
ATOM      2  S   UNL d   1     -39.588  14.917  19.051  0.00  0.00    -0.067 SA
BRANCH   2   3
ATOM      3  C   UNL d   1     -39.940  14.912  19.799  0.00  0.00     0.117 A 
ATOM      4  N   UNL d   1     -40.598  15.375  19.950  0.00  0.00    -0.184 NA
ATOM      5  C   UNL d   1     -40.950  15.370  20.698  0.00  0.00     0.369 A 
ATOM      6  N   UNL d   1     -40.644  14.902  21.295  0.00  0.00    -0.191 NA
ATOM      7  O   UNL d   1     -41.613  15.838  20.845  0.00  0.00    -0.242 OA
ATOM      8  C   UNL d   1     -39.981  14.434  21.147  0.00  0.00     0.088 A 
ATOM      9  C   UNL d   1     -39.629  14.439  20.399  0.00  0.00     0.045 A 
ATOM     10  C   UNL d   1     -39.664  13.956  21.750  0.00  0.00     0.021 C 
ENDBRANCH   2   3
ENDBRANCH   1   2
BRANCH   1  11
ATOM     11  C   UNL d   1     -39.428  14.308  17.769  0.00  0.00     0.007 A 
ATOM     12  C   UNL d   1     -39.577  14.870  17.179  0.00  0.00     0.002 A 
ATOM     13  C   UNL d   1     -39.203  14.826  16.458  0.00  0.00     0.024 A 
ATOM     14  C   UNL d   1     -38.671  14.216  16.313  0.00  0.00     0.127 A 
ATOM     15  C   UNL d   1     -38.519  13.661  16.884  0.00  0.00     0.024 A 
ATOM     16  C   UNL d   1     -38.892  13.696  17.620  0.00  0.00     0.002 A 
BRANCH  14  17
ATOM     17  N   UNL d   1     -38.289  14.164  15.585  0.00  0.00    -0.114 N 
ATOM     18  O   UNL d   1     -38.254  13.447  15.182  0.00  0.00    -0.532 OA
ATOM     19  O   UNL d   1     -37.940  14.837  15.261  0.00  0.00    -0.532 OA
ENDBRANCH  14  17
ENDBRANCH   1  11
TORSDOF 4
ENDMDL
