MODEL 1
REMARK VINA RESULT:      -2.8      0.000      0.000
REMARK  4 active torsions:
REMARK  status: ('A' for Active; 'I' for Inactive)
REMARK    1  A    between atoms: C_3  and  C_1 
REMARK    2  A    between atoms: C_8  and  C_3 
REMARK    3  A    between atoms: C_9  and  C_3 
REMARK    4  A    between atoms: N_5  and  C_9 
ROOT
ATOM      1  C   UNL d   1      57.907  -0.342  30.631  0.00  0.00     0.023 A 
ATOM      2  C   UNL d   1      57.815  -1.187  30.512  0.00  0.00     0.082 A 
ATOM      3  N   UNL d   1      57.274  -1.457  31.053  0.00  0.00    -0.246 NA
ATOM      4  C   UNL d   1      57.415  -0.132  31.244  0.00  0.00     0.019 A 
ATOM      5  C   UNL d   1      57.020  -0.814  31.511  0.00  0.00     0.081 A 
ATOM      6  C   UNL d   1      57.917  -1.901  30.208  0.00  0.00     0.021 C 
ATOM      7  C   UNL d   1      57.270   0.598  31.600  0.00  0.00     0.002 A 
ATOM      8  C   UNL d   1      56.479  -0.755  32.138  0.00  0.00     0.019 A 
ATOM      9  C   UNL d   1      56.731   0.637  32.221  0.00  0.00     0.000 A 
ATOM     10  C   UNL d   1      56.336  -0.027  32.493  0.00  0.00     0.002 A 
ENDROOT
BRANCH   1  11
ATOM     11  C   UNL d   1      58.409   0.146  30.192  0.00  0.00     0.048 C 
BRANCH  11  12
ATOM     12  C   UNL d   1      59.215   0.119  30.270  0.00  0.00     0.102 A 
ATOM     13  O   UNL d   1      59.716  -0.472  29.948  0.00  0.00    -0.305 OA
ATOM     14  C   UNL d   1      60.492  -0.296  30.153  0.00  0.00     0.123 A 
ATOM     15  C   UNL d   1      60.474   0.425  30.616  0.00  0.00     0.029 A 
ATOM     16  C   UNL d   1      59.692   0.659  30.675  0.00  0.00     0.027 A 
ENDBRANCH  11  12
BRANCH  11  17
ATOM     17  C   UNL d   1      58.063   0.682  29.652  0.00  0.00     0.150 C 
BRANCH  17  18
ATOM     18  N   UNL d   1      57.959   0.447  28.863  0.00  0.00    -0.112 N 
ATOM     19  O   UNL d   1      58.527   0.018  28.477  0.00  0.00    -0.532 OA
ATOM     20  O   UNL d   1      57.243   0.662  28.457  0.00  0.00    -0.532 OA
ENDBRANCH  17  18
ENDBRANCH  11  17
ENDBRANCH   1  11
TORSDOF 4
ENDMDL
MODEL 2
REMARK VINA RESULT:      -2.3      2.836      4.491
REMARK  4 active torsions:
REMARK  status: ('A' for Active; 'I' for Inactive)
REMARK    1  A    between atoms: C_3  and  C_1 
REMARK    2  A    between atoms: C_8  and  C_3 
REMARK    3  A    between atoms: C_9  and  C_3 
REMARK    4  A    between atoms: N_5  and  C_9 
ROOT
ATOM      1  C   UNL d   1      56.382  -0.354  32.897  0.00  0.00     0.023 A 
ATOM      2  C   UNL d   1      56.201  -1.190  32.966  0.00  0.00     0.082 A 
ATOM      3  N   UNL d   1      56.492  -1.564  32.306  0.00  0.00    -0.246 NA
ATOM      4  C   UNL d   1      56.778  -0.253  32.193  0.00  0.00     0.019 A 
ATOM      5  C   UNL d   1      56.850  -0.994  31.822  0.00  0.00     0.081 A 
ATOM      6  C   UNL d   1      55.925  -1.860  33.264  0.00  0.00     0.021 C 
ATOM      7  C   UNL d   1      57.087   0.423  31.835  0.00  0.00     0.002 A 
ATOM      8  C   UNL d   1      57.236  -1.048  31.088  0.00  0.00     0.019 A 
ATOM      9  C   UNL d   1      57.466   0.350  31.108  0.00  0.00     0.000 A 
ATOM     10  C   UNL d   1      57.544  -0.374  30.733  0.00  0.00     0.002 A 
ENDROOT
BRANCH   1  11
ATOM     11  C   UNL d   1      56.181   0.221  33.454  0.00  0.00     0.048 C 
BRANCH  11  12
ATOM     12  C   UNL d   1      55.414   0.356  33.679  0.00  0.00     0.102 A 
ATOM     13  O   UNL d   1      55.109   0.257  34.454  0.00  0.00    -0.305 OA
ATOM     14  C   UNL d   1      54.311   0.451  34.447  0.00  0.00     0.123 A 
ATOM     15  C   UNL d   1      54.112   0.677  33.645  0.00  0.00     0.029 A 
ATOM     16  C   UNL d   1      54.794   0.613  33.196  0.00  0.00     0.027 A 
ENDBRANCH  11  12
BRANCH  11  17
ATOM     17  C   UNL d   1      56.797   0.674  33.793  0.00  0.00     0.150 C 
BRANCH  17  18
ATOM     18  N   UNL d   1      57.047   0.500  34.564  0.00  0.00    -0.112 N 
ATOM     19  O   UNL d   1      56.517   0.457  35.175  0.00  0.00    -0.532 OA
ATOM     20  O   UNL d   1      57.873   0.366  34.712  0.00  0.00    -0.532 OA
ENDBRANCH  17  18
ENDBRANCH  11  17
ENDBRANCH   1  11
TORSDOF 4
ENDMDL
MODEL 3
REMARK VINA RESULT:      -2.1      2.798      4.269
REMARK  4 active torsions:
REMARK  status: ('A' for Active; 'I' for Inactive)
REMARK    1  A    between atoms: C_3  and  C_1 
REMARK    2  A    between atoms: C_8  and  C_3 
REMARK    3  A    between atoms: C_9  and  C_3 
REMARK    4  A    between atoms: N_5  and  C_9 
ROOT
ATOM      1  C   UNL d   1      57.043   0.267  32.913  0.00  0.00     0.023 A 
ATOM      2  C   UNL d   1      57.674   0.470  33.459  0.00  0.00     0.082 A 
ATOM      3  N   UNL d   1      58.334   0.652  33.020  0.00  0.00    -0.246 NA
ATOM      4  C   UNL d   1      57.347   0.334  32.161  0.00  0.00     0.019 A 
ATOM      5  C   UNL d   1      58.142   0.571  32.218  0.00  0.00     0.081 A 
ATOM      6  C   UNL d   1      58.047   0.601  34.135  0.00  0.00     0.021 C 
ATOM      7  C   UNL d   1      57.002   0.209  31.422  0.00  0.00     0.002 A 
ATOM      8  C   UNL d   1      58.586   0.681  31.525  0.00  0.00     0.019 A 
ATOM      9  C   UNL d   1      57.457   0.324  30.747  0.00  0.00     0.000 A 
ATOM     10  C   UNL d   1      58.242   0.557  30.789  0.00  0.00     0.002 A 
ENDROOT
BRANCH   1  11
ATOM     11  C   UNL d   1      56.279   0.048  33.135  0.00  0.00     0.048 C 
BRANCH  11  12
ATOM     12  C   UNL d   1      56.066  -0.726  33.246  0.00  0.00     0.102 A 
ATOM     13  O   UNL d   1      56.351  -1.227  33.855  0.00  0.00    -0.305 OA
ATOM     14  C   UNL d   1      56.000  -1.965  33.772  0.00  0.00     0.123 A 
ATOM     15  C   UNL d   1      55.481  -1.923  33.091  0.00  0.00     0.029 A 
ATOM     16  C   UNL d   1      55.536  -1.164  32.788  0.00  0.00     0.027 A 
ENDBRANCH  11  12
BRANCH  11  17
ATOM     17  C   UNL d   1      55.713   0.653  33.248  0.00  0.00     0.150 C 
BRANCH  17  18
ATOM     18  N   UNL d   1      55.277   0.671  33.953  0.00  0.00    -0.112 N 
ATOM     19  O   UNL d   1      55.649   0.678  34.673  0.00  0.00    -0.532 OA
ATOM     20  O   UNL d   1      54.428   0.681  33.916  0.00  0.00    -0.532 OA
ENDBRANCH  17  18
ENDBRANCH  11  17
ENDBRANCH   1  11
TORSDOF 4
ENDMDL
MODEL 4
REMARK VINA RESULT:      -0.8      1.223      2.210
REMARK  4 active torsions:
REMARK  status: ('A' for Active; 'I' for Inactive)
REMARK    1  A    between atoms: C_3  and  C_1 
REMARK    2  A    between atoms: C_8  and  C_3 
REMARK    3  A    between atoms: C_9  and  C_3 
REMARK    4  A    between atoms: N_5  and  C_9 
ROOT
ATOM      1  C   UNL d   1      58.280  -0.083  29.927  0.00  0.00     0.023 A 
ATOM      2  C   UNL d   1      57.808   0.364  29.366  0.00  0.00     0.082 A 
ATOM      3  N   UNL d   1      57.178   0.682  29.768  0.00  0.00    -0.246 NA
ATOM      4  C   UNL d   1      57.915  -0.018  30.651  0.00  0.00     0.019 A 
ATOM      5  C   UNL d   1      57.234   0.452  30.563  0.00  0.00     0.081 A 
ATOM      6  C   UNL d   1      57.577   0.681  28.688  0.00  0.00     0.021 C 
ATOM      7  C   UNL d   1      58.113  -0.328  31.390  0.00  0.00     0.002 A 
ATOM      8  C   UNL d   1      56.755   0.607  31.223  0.00  0.00     0.019 A 
ATOM      9  C   UNL d   1      57.626  -0.163  32.033  0.00  0.00     0.000 A 
ATOM     10  C   UNL d   1      56.953   0.298  31.958  0.00  0.00     0.002 A 
ENDROOT
BRANCH   1  11
ATOM     11  C   UNL d   1      58.972  -0.493  29.741  0.00  0.00     0.048 C 
BRANCH  11  12
ATOM     12  C   UNL d   1      58.960  -1.232  29.408  0.00  0.00     0.102 A 
ATOM     13  O   UNL d   1      58.877  -1.395  28.589  0.00  0.00    -0.305 OA
ATOM     14  C   UNL d   1      58.892  -2.210  28.483  0.00  0.00     0.123 A 
ATOM     15  C   UNL d   1      58.986  -2.564  29.258  0.00  0.00     0.029 A 
ATOM     16  C   UNL d   1      59.025  -1.955  29.803  0.00  0.00     0.027 A 
ENDBRANCH  11  12
BRANCH  11  17
ATOM     17  C   UNL d   1      59.704  -0.126  29.907  0.00  0.00     0.150 C 
BRANCH  17  18
ATOM     18  N   UNL d   1      60.354  -0.284  29.416  0.00  0.00    -0.112 N 
ATOM     19  O   UNL d   1      60.367  -0.033  28.646  0.00  0.00    -0.532 OA
ATOM     20  O   UNL d   1      61.014  -0.719  29.730  0.00  0.00    -0.532 OA
ENDBRANCH  17  18
ENDBRANCH  11  17
ENDBRANCH   1  11
TORSDOF 4
ENDMDL
MODEL 5
REMARK VINA RESULT:      -0.2      1.441      1.910
REMARK  4 active torsions:
REMARK  status: ('A' for Active; 'I' for Inactive)
REMARK    1  A    between atoms: C_3  and  C_1 
REMARK    2  A    between atoms: C_8  and  C_3 
REMARK    3  A    between atoms: C_9  and  C_3 
REMARK    4  A    between atoms: N_5  and  C_9 
ROOT
ATOM      1  C   UNL d   1      56.880  -0.236  32.035  0.00  0.00     0.023 A 
ATOM      2  C   UNL d   1      56.849  -1.080  31.881  0.00  0.00     0.082 A 
ATOM      3  N   UNL d   1      56.244  -1.392  32.324  0.00  0.00    -0.246 NA
ATOM      4  C   UNL d   1      56.289  -0.068  32.567  0.00  0.00     0.019 A 
ATOM      5  C   UNL d   1      55.891  -0.775  32.752  0.00  0.00     0.081 A 
ATOM      6  C   UNL d   1      57.033  -1.779  31.579  0.00  0.00     0.021 C 
ATOM      7  C   UNL d   1      56.055   0.643  32.915  0.00  0.00     0.002 A 
ATOM      8  C   UNL d   1      55.257  -0.760  33.288  0.00  0.00     0.019 A 
ATOM      9  C   UNL d   1      55.425   0.638  33.444  0.00  0.00     0.000 A 
ATOM     10  C   UNL d   1      55.025  -0.052  33.633  0.00  0.00     0.002 A 
ENDROOT
BRANCH   1  11
ATOM     11  C   UNL d   1      57.420   0.287  31.693  0.00  0.00     0.048 C 
BRANCH  11  12
ATOM     12  C   UNL d   1      58.151   0.427  32.015  0.00  0.00     0.102 A 
ATOM     13  O   UNL d   1      58.307   0.555  32.828  0.00  0.00    -0.305 OA
ATOM     14  C   UNL d   1      59.114   0.675  32.923  0.00  0.00     0.123 A 
ATOM     15  C   UNL d   1      59.471   0.620  32.146  0.00  0.00     0.029 A 
ATOM     16  C   UNL d   1      58.870   0.470  31.611  0.00  0.00     0.027 A 
ENDBRANCH  11  12
BRANCH  11  17
ATOM     17  C   UNL d   1      57.195   0.681  30.990  0.00  0.00     0.150 C 
BRANCH  17  18
ATOM     18  N   UNL d   1      57.431   0.367  30.260  0.00  0.00    -0.112 N 
ATOM     19  O   UNL d   1      58.023  -0.184  30.214  0.00  0.00    -0.532 OA
ATOM     20  O   UNL d   1      57.044   0.631  29.550  0.00  0.00    -0.532 OA
ENDBRANCH  17  18
ENDBRANCH  11  17
ENDBRANCH   1  11
TORSDOF 4
ENDMDL
MODEL 6
REMARK VINA RESULT:       0.1      9.085     10.162
REMARK  4 active torsions:
REMARK  status: ('A' for Active; 'I' for Inactive)
REMARK    1  A    between atoms: C_3  and  C_1 
REMARK    2  A    between atoms: C_8  and  C_3 
REMARK    3  A    between atoms: C_9  and  C_3 
REMARK    4  A    between atoms: N_5  and  C_9 
ROOT
ATOM      1  C   UNL d   1      59.431  -9.118  33.769  0.00  0.00     0.023 A 
ATOM      2  C   UNL d   1      58.695  -9.484  33.524  0.00  0.00     0.082 A 
ATOM      3  N   UNL d   1      58.795  -9.765  32.768  0.00  0.00    -0.246 NA
ATOM      4  C   UNL d   1      59.952  -9.191  33.148  0.00  0.00     0.019 A 
ATOM      5  C   UNL d   1      59.568  -9.588  32.527  0.00  0.00     0.081 A 
ATOM      6  C   UNL d   1      57.954  -9.737  33.555  0.00  0.00     0.021 C 
ATOM      7  C   UNL d   1      60.736  -8.945  33.063  0.00  0.00     0.002 A 
ATOM      8  C   UNL d   1      59.979  -9.737  31.820  0.00  0.00     0.019 A 
ATOM      9  C   UNL d   1      61.126  -9.101  32.356  0.00  0.00     0.000 A 
ATOM     10  C   UNL d   1      60.759  -9.492  31.736  0.00  0.00     0.002 A 
ENDROOT
BRANCH   1  11
ATOM     11  C   UNL d   1      59.562  -8.763  34.503  0.00  0.00     0.048 C 
BRANCH  11  12
ATOM     12  C   UNL d   1      59.877  -9.170  35.130  0.00  0.00     0.102 A 
ATOM     13  O   UNL d   1      60.674  -9.422  35.195  0.00  0.00    -0.305 OA
ATOM     14  C   UNL d   1      60.766  -9.814  35.911  0.00  0.00     0.123 A 
ATOM     15  C   UNL d   1      60.004  -9.806  36.304  0.00  0.00     0.029 A 
ATOM     16  C   UNL d   1      59.480  -9.411  35.813  0.00  0.00     0.027 A 
ENDBRANCH  11  12
BRANCH  11  17
ATOM     17  C   UNL d   1      59.359  -7.957  34.593  0.00  0.00     0.150 C 
BRANCH  17  18
ATOM     18  N   UNL d   1      59.228  -7.658  35.355  0.00  0.00    -0.112 N 
ATOM     19  O   UNL d   1      58.617  -7.931  35.811  0.00  0.00    -0.532 OA
ATOM     20  O   UNL d   1      59.745  -7.055  35.659  0.00  0.00    -0.532 OA
ENDBRANCH  17  18
ENDBRANCH  11  17
ENDBRANCH   1  11
TORSDOF 4
ENDMDL
