MODEL 1
REMARK VINA RESULT:      -1.1      0.000      0.000
REMARK  5 active torsions:
REMARK  status: ('A' for Active; 'I' for Inactive)
REMARK    1  A    between atoms: C_7  and  C_1 
REMARK    2  A    between atoms: C_10  and  C_3 
REMARK    3  A    between atoms: C_8  and  C_4 
REMARK    4  A    between atoms: O_14  and  C_7 
REMARK    5  A    between atoms: C_20  and  O_14 
ROOT
ATOM      1  C   UNL d   1      32.667  21.811 -21.657  0.00  0.00     0.102 A 
ATOM      2  C   UNL d   1      32.677  21.150 -21.153  0.00  0.00     0.201 A 
ATOM      3  C   UNL d   1      32.705  21.720 -22.478  0.00  0.00     0.008 A 
ATOM      4  C   UNL d   1      32.762  20.311 -22.318  0.00  0.00     0.003 A 
ATOM      5  C   UNL d   1      32.725  20.403 -21.497  0.00  0.00     0.042 A 
ATOM      6  C   UNL d   1      32.752  20.966 -22.804  0.00  0.00     0.000 A 
ATOM      7  O   UNL d   1      32.640  21.241 -20.341  0.00  0.00    -0.286 OA
ENDROOT
BRANCH   4   8
ATOM      8  C   UNL d   1      32.810  19.548 -22.643  0.00  0.00     0.000 A 
ATOM      9  C   UNL d   1      33.113  18.926 -22.182  0.00  0.00     0.000 A 
ATOM     10  C   UNL d   1      33.164  18.176 -22.490  0.00  0.00     0.000 A 
ATOM     11  C   UNL d   1      32.908  18.042 -23.273  0.00  0.00     0.000 A 
ATOM     12  C   UNL d   1      32.614  18.659 -23.715  0.00  0.00     0.000 A 
ATOM     13  C   UNL d   1      32.959  17.277 -23.592  0.00  0.00     0.000 C 
ATOM     14  C   UNL d   1      32.564  19.411 -23.404  0.00  0.00     0.000 A 
ENDBRANCH   4   8
BRANCH   3  15
ATOM     15  C   UNL d   1      32.694  22.383 -22.965  0.00  0.00     0.000 A 
ATOM     16  C   UNL d   1      33.225  22.425 -23.597  0.00  0.00     0.000 A 
ATOM     17  C   UNL d   1      33.209  23.095 -24.083  0.00  0.00     0.000 A 
ATOM     18  C   UNL d   1      32.692  23.700 -23.951  0.00  0.00     0.000 A 
ATOM     19  C   UNL d   1      32.157  23.647 -23.306  0.00  0.00     0.000 A 
ATOM     20  C   UNL d   1      32.164  22.984 -22.816  0.00  0.00     0.000 A 
ENDBRANCH   3  15
BRANCH   1  21
ATOM     21  C   UNL d   1      32.619  22.574 -21.328  0.00  0.00     0.303 C 
ATOM     22  O   UNL d   1      33.235  23.115 -21.443  0.00  0.00    -0.259 OA
BRANCH  21  23
ATOM     23  O   UNL d   1      31.956  22.798 -20.884  0.00  0.00    -0.271 OA
BRANCH  23  24
ATOM     24  C   UNL d   1      32.005  23.432 -20.359  0.00  0.00     0.126 C 
ATOM     25  C   UNL d   1      31.331  23.684 -19.954  0.00  0.00     0.029 C 
ENDBRANCH  23  24
ENDBRANCH  21  23
ENDBRANCH   1  21
TORSDOF 5
ENDMDL
MODEL 2
REMARK VINA RESULT:       0.4      1.390      2.901
REMARK  5 active torsions:
REMARK  status: ('A' for Active; 'I' for Inactive)
REMARK    1  A    between atoms: C_7  and  C_1 
REMARK    2  A    between atoms: C_10  and  C_3 
REMARK    3  A    between atoms: C_8  and  C_4 
REMARK    4  A    between atoms: O_14  and  C_7 
REMARK    5  A    between atoms: C_20  and  O_14 
ROOT
ATOM      1  C   UNL d   1      32.996  20.437 -23.468  0.00  0.00     0.102 A 
ATOM      2  C   UNL d   1      33.055  19.997 -24.171  0.00  0.00     0.201 A 
ATOM      3  C   UNL d   1      32.834  20.065 -22.747  0.00  0.00     0.008 A 
ATOM      4  C   UNL d   1      32.786  18.810 -23.407  0.00  0.00     0.003 A 
ATOM      5  C   UNL d   1      32.948  19.182 -24.127  0.00  0.00     0.042 A 
ATOM      6  C   UNL d   1      32.730  19.249 -22.723  0.00  0.00     0.000 A 
ATOM      7  O   UNL d   1      33.215  20.365 -24.884  0.00  0.00    -0.286 OA
ENDROOT
BRANCH   4   8
ATOM      8  C   UNL d   1      32.681  17.986 -23.386  0.00  0.00     0.000 A 
ATOM      9  C   UNL d   1      32.000  17.651 -23.724  0.00  0.00     0.000 A 
ATOM     10  C   UNL d   1      31.889  16.847 -23.709  0.00  0.00     0.000 A 
ATOM     11  C   UNL d   1      32.467  16.364 -23.350  0.00  0.00     0.000 A 
ATOM     12  C   UNL d   1      33.131  16.703 -23.022  0.00  0.00     0.000 A 
ATOM     13  C   UNL d   1      32.357  15.542 -23.333  0.00  0.00     0.000 C 
ATOM     14  C   UNL d   1      33.241  17.511 -23.038  0.00  0.00     0.000 A 
ENDBRANCH   4   8
BRANCH   3  15
ATOM     15  C   UNL d   1      32.778  20.513 -22.059  0.00  0.00     0.000 A 
ATOM     16  C   UNL d   1      33.240  20.304 -21.406  0.00  0.00     0.000 A 
ATOM     17  C   UNL d   1      33.179  20.758 -20.717  0.00  0.00     0.000 A 
ATOM     18  C   UNL d   1      32.683  21.393 -20.672  0.00  0.00     0.000 A 
ATOM     19  C   UNL d   1      32.218  21.597 -21.342  0.00  0.00     0.000 A 
ATOM     20  C   UNL d   1      32.272  21.151 -22.033  0.00  0.00     0.000 A 
ENDBRANCH   3  15
BRANCH   1  21
ATOM     21  C   UNL d   1      33.101  21.262 -23.492  0.00  0.00     0.303 C 
ATOM     22  O   UNL d   1      33.240  21.683 -22.795  0.00  0.00    -0.259 OA
BRANCH  21  23
ATOM     23  O   UNL d   1      33.067  21.668 -24.215  0.00  0.00    -0.271 OA
BRANCH  23  24
ATOM     24  C   UNL d   1      32.875  22.470 -24.230  0.00  0.00     0.126 C 
ATOM     25  C   UNL d   1      33.228  22.967 -24.786  0.00  0.00     0.029 C 
ENDBRANCH  23  24
ENDBRANCH  21  23
ENDBRANCH   1  21
TORSDOF 5
ENDMDL
