MODEL 1
REMARK VINA RESULT:      45.3      0.000      0.000
REMARK  8 active torsions:
REMARK  status: ('A' for Active; 'I' for Inactive)
REMARK    1  A    between atoms: N_5  and  C_1 
REMARK    2  A    between atoms: C_2  and  N_5 
REMARK    3  A    between atoms: N_3  and  C_2 
REMARK       I    between atoms: C_6  and  N_3 
REMARK    4  A    between atoms: C_13  and  C_6 
REMARK    5  A    between atoms: C_9  and  C_7 
REMARK    6  A    between atoms: C_11  and  C_9 
REMARK    7  A    between atoms: O_18  and  C_11 
REMARK    8  A    between atoms: C_22  and  O_18 
ROOT
ATOM      1  C   UNL d   1     -50.203  26.989  33.459  0.00  0.00     0.225 C 
ATOM      2  S   UNL d   1     -50.688  27.658  33.469  0.00  0.00    -0.037 SA
ENDROOT
BRANCH   1   3
ATOM      3  N   UNL d   1     -49.383  27.037  33.503  0.00  0.00    -0.192 NA
BRANCH   3   4
ATOM      4  C   UNL d   1     -49.048  27.453  34.113  0.00  0.00     0.196 A 
ATOM      5  N   UNL d   1     -48.331  27.827  34.244  0.00  0.00    -0.220 NA
ATOM      6  C   UNL d   1     -48.316  28.150  34.966  0.00  0.00     0.095 A 
ATOM      7  C   UNL d   1     -49.014  28.007  35.349  0.00  0.00     0.058 A 
ATOM      8  S   UNL d   1     -49.489  27.575  34.841  0.00  0.00    -0.046 SA
BRANCH   6   9
ATOM      9  C   UNL d   1     -47.650  28.597  35.317  0.00  0.00     0.088 C 
BRANCH   9  10
ATOM     10  C   UNL d   1     -47.689  29.404  35.386  0.00  0.00     0.302 C 
ATOM     11  O   UNL d   1     -48.090  29.854  34.827  0.00  0.00    -0.259 OA
BRANCH  10  12
ATOM     12  O   UNL d   1     -47.318  29.784  36.034  0.00  0.00    -0.271 OA
BRANCH  12  13
ATOM     13  C   UNL d   1     -47.043  30.565  35.955  0.00  0.00     0.126 C 
ATOM     14  C   UNL d   1     -47.563  31.175  35.813  0.00  0.00     0.029 C 
ENDBRANCH  12  13
ENDBRANCH  10  12
ENDBRANCH   9  10
ENDBRANCH   6   9
ENDBRANCH   3   4
ENDBRANCH   1   3
BRANCH   1  15
ATOM     15  N   UNL d   1     -50.563  26.230  33.401  0.00  0.00    -0.179 NA
ATOM     16  C   UNL d   1     -51.342  26.166  33.549  0.00  0.00     0.281 C 
ATOM     17  O   UNL d   1     -51.799  26.830  33.756  0.00  0.00    -0.265 OA
BRANCH  16  18
ATOM     18  C   UNL d   1     -51.721  25.404  33.495  0.00  0.00     0.058 A 
ATOM     19  C   UNL d   1     -51.268  24.719  33.416  0.00  0.00     0.005 A 
ATOM     20  C   UNL d   1     -51.604  23.982  33.363  0.00  0.00     0.000 A 
ATOM     21  C   UNL d   1     -52.439  23.919  33.388  0.00  0.00     0.000 A 
ATOM     22  C   UNL d   1     -52.886  24.595  33.465  0.00  0.00     0.000 A 
ATOM     23  C   UNL d   1     -52.820  23.188  33.337  0.00  0.00     0.000 C 
ATOM     24  C   UNL d   1     -52.552  25.350  33.521  0.00  0.00     0.005 A 
ENDBRANCH  16  18
ENDBRANCH   1  15
TORSDOF 8
ENDMDL
MODEL 2
REMARK VINA RESULT:      47.9      1.434      2.240
REMARK  8 active torsions:
REMARK  status: ('A' for Active; 'I' for Inactive)
REMARK    1  A    between atoms: N_5  and  C_1 
REMARK    2  A    between atoms: C_2  and  N_5 
REMARK    3  A    between atoms: N_3  and  C_2 
REMARK       I    between atoms: C_6  and  N_3 
REMARK    4  A    between atoms: C_13  and  C_6 
REMARK    5  A    between atoms: C_9  and  C_7 
REMARK    6  A    between atoms: C_11  and  C_9 
REMARK    7  A    between atoms: O_18  and  C_11 
REMARK    8  A    between atoms: C_22  and  O_18 
ROOT
ATOM      1  C   UNL d   1     -48.995  28.051  34.620  0.00  0.00     0.225 C 
ATOM      2  S   UNL d   1     -48.487  28.211  33.988  0.00  0.00    -0.037 SA
ENDROOT
BRANCH   1   3
ATOM      3  N   UNL d   1     -48.893  28.387  35.363  0.00  0.00    -0.192 NA
BRANCH   3   4
ATOM      4  C   UNL d   1     -48.328  28.961  35.459  0.00  0.00     0.196 A 
ATOM      5  N   UNL d   1     -48.150  29.676  35.100  0.00  0.00    -0.220 NA
ATOM      6  C   UNL d   1     -47.515  30.004  35.439  0.00  0.00     0.095 A 
ATOM      7  C   UNL d   1     -47.241  29.530  36.034  0.00  0.00     0.058 A 
ATOM      8  S   UNL d   1     -47.728  28.873  36.070  0.00  0.00    -0.046 SA
BRANCH   6   9
ATOM      9  C   UNL d   1     -47.149  30.767  35.217  0.00  0.00     0.088 C 
BRANCH   9  10
ATOM     10  C   UNL d   1     -47.445  31.464  35.505  0.00  0.00     0.302 C 
ATOM     11  O   UNL d   1     -47.465  31.609  36.314  0.00  0.00    -0.259 OA
BRANCH  10  12
ATOM     12  O   UNL d   1     -47.734  32.044  34.974  0.00  0.00    -0.271 OA
BRANCH  12  13
ATOM     13  C   UNL d   1     -47.249  32.320  34.356  0.00  0.00     0.126 C 
ATOM     14  C   UNL d   1     -47.577  32.592  33.662  0.00  0.00     0.029 C 
ENDBRANCH  12  13
ENDBRANCH  10  12
ENDBRANCH   9  10
ENDBRANCH   6   9
ENDBRANCH   3   4
ENDBRANCH   1   3
BRANCH   1  15
ATOM     15  N   UNL d   1     -49.640  27.525  34.496  0.00  0.00    -0.179 NA
ATOM     16  C   UNL d   1     -49.633  27.057  33.853  0.00  0.00     0.281 C 
ATOM     17  O   UNL d   1     -49.003  27.081  33.308  0.00  0.00    -0.265 OA
BRANCH  16  18
ATOM     18  C   UNL d   1     -50.279  26.519  33.714  0.00  0.00     0.058 A 
ATOM     19  C   UNL d   1     -51.057  26.794  33.713  0.00  0.00     0.005 A 
ATOM     20  C   UNL d   1     -51.689  26.302  33.585  0.00  0.00     0.000 A 
ATOM     21  C   UNL d   1     -51.543  25.488  33.448  0.00  0.00     0.000 A 
ATOM     22  C   UNL d   1     -50.777  25.217  33.449  0.00  0.00     0.000 A 
ATOM     23  C   UNL d   1     -52.160  24.955  33.313  0.00  0.00     0.000 C 
ATOM     24  C   UNL d   1     -50.125  25.710  33.579  0.00  0.00     0.005 A 
ENDBRANCH  16  18
ENDBRANCH   1  15
TORSDOF 8
ENDMDL
MODEL 3
REMARK VINA RESULT:      48.3      1.598      6.256
REMARK  8 active torsions:
REMARK  status: ('A' for Active; 'I' for Inactive)
REMARK    1  A    between atoms: N_5  and  C_1 
REMARK    2  A    between atoms: C_2  and  N_5 
REMARK    3  A    between atoms: N_3  and  C_2 
REMARK       I    between atoms: C_6  and  N_3 
REMARK    4  A    between atoms: C_13  and  C_6 
REMARK    5  A    between atoms: C_9  and  C_7 
REMARK    6  A    between atoms: C_11  and  C_9 
REMARK    7  A    between atoms: O_18  and  C_11 
REMARK    8  A    between atoms: C_22  and  O_18 
ROOT
ATOM      1  C   UNL d   1     -47.938  29.377  35.373  0.00  0.00     0.225 C 
ATOM      2  S   UNL d   1     -47.216  29.152  35.706  0.00  0.00    -0.037 SA
ENDROOT
BRANCH   1   3
ATOM      3  N   UNL d   1     -48.629  28.947  35.486  0.00  0.00    -0.192 NA
BRANCH   3   4
ATOM      4  C   UNL d   1     -48.814  28.357  34.961  0.00  0.00     0.196 A 
ATOM      5  N   UNL d   1     -49.402  28.228  34.406  0.00  0.00    -0.220 NA
ATOM      6  C   UNL d   1     -49.295  27.531  34.047  0.00  0.00     0.095 A 
ATOM      7  C   UNL d   1     -48.638  27.164  34.343  0.00  0.00     0.058 A 
ATOM      8  S   UNL d   1     -48.318  27.656  34.914  0.00  0.00    -0.046 SA
BRANCH   6   9
ATOM      9  C   UNL d   1     -49.803  27.190  33.422  0.00  0.00     0.088 C 
BRANCH   9  10
ATOM     10  C   UNL d   1     -50.466  26.766  33.616  0.00  0.00     0.302 C 
ATOM     11  O   UNL d   1     -51.075  27.113  34.046  0.00  0.00    -0.259 OA
BRANCH  10  12
ATOM     12  O   UNL d   1     -50.532  25.966  33.377  0.00  0.00    -0.271 OA
BRANCH  12  13
ATOM     13  C   UNL d   1     -51.283  25.615  33.306  0.00  0.00     0.126 C 
ATOM     14  C   UNL d   1     -51.393  24.829  33.488  0.00  0.00     0.029 C 
ENDBRANCH  12  13
ENDBRANCH  10  12
ENDBRANCH   9  10
ENDBRANCH   6   9
ENDBRANCH   3   4
ENDBRANCH   1   3
BRANCH   1  15
ATOM     15  N   UNL d   1     -47.965  30.073  34.900  0.00  0.00    -0.179 NA
ATOM     16  C   UNL d   1     -47.695  30.755  35.209  0.00  0.00     0.281 C 
ATOM     17  O   UNL d   1     -47.390  30.787  35.983  0.00  0.00    -0.265 OA
BRANCH  16  18
ATOM     18  C   UNL d   1     -47.716  31.468  34.743  0.00  0.00     0.058 A 
ATOM     19  C   UNL d   1     -48.438  31.788  34.504  0.00  0.00     0.005 A 
ATOM     20  C   UNL d   1     -48.485  32.465  34.060  0.00  0.00     0.000 A 
ATOM     21  C   UNL d   1     -47.774  32.849  33.837  0.00  0.00     0.000 A 
ATOM     22  C   UNL d   1     -47.062  32.534  34.072  0.00  0.00     0.000 A 
ATOM     23  C   UNL d   1     -47.779  33.540  33.385  0.00  0.00     0.000 C 
ATOM     24  C   UNL d   1     -47.004  31.843  34.525  0.00  0.00     0.005 A 
ENDBRANCH  16  18
ENDBRANCH   1  15
TORSDOF 8
ENDMDL
