MODEL 1
REMARK VINA RESULT:      -4.2      0.000      0.000
REMARK  5 active torsions:
REMARK  status: ('A' for Active; 'I' for Inactive)
REMARK    1  A    between atoms: N_6  and  C_1 
REMARK    2  A    between atoms: C_11  and  C_5 
REMARK       I    between atoms: C_7  and  N_8 
REMARK    3  A    between atoms: C_10  and  C_7 
REMARK    4  A    between atoms: O_27  and  C_14 
REMARK    5  A    between atoms: O_28  and  C_21 
ROOT
ATOM      1  C   UNL d   1     -41.951-123.248 -51.481  0.00  0.00     0.197 A 
ATOM      2  C   UNL d   1     -41.720-122.535 -51.113  0.00  0.00     0.191 A 
ATOM      3  O   UNL d   1     -42.208-123.772 -50.890  0.00  0.00    -0.270 OA
ATOM      4  N   UNL d   1     -41.840-122.637 -50.310  0.00  0.00    -0.208 NA
ATOM      5  C   UNL d   1     -42.126-123.362 -50.177  0.00  0.00     0.185 A 
ATOM      6  C   UNL d   1     -41.419-121.838 -51.499  0.00  0.00     0.124 C 
ATOM      7  N   UNL d   1     -41.123-121.148 -51.861  0.00  0.00    -0.190 NA
ENDROOT
BRANCH   1   8
ATOM      8  N   UNL d   1     -41.844-123.186 -52.306  0.00  0.00    -0.280 N 
ATOM      9  C   UNL d   1     -41.438-123.810 -52.705  0.00  0.00     0.101 A 
ATOM     10  C   UNL d   1     -41.332-123.749 -53.531  0.00  0.00     0.102 A 
ATOM     11  N   UNL d   1     -41.624-123.076 -53.950  0.00  0.00    -0.267 N 
ATOM     12  C   UNL d   1     -41.518-123.015 -54.776  0.00  0.00     0.288 C 
ATOM     13  C   UNL d   1     -42.020-122.475 -53.542  0.00  0.00     0.102 A 
ATOM     14  O   UNL d   1     -41.122-123.616 -55.184  0.00  0.00    -0.264 OA
ATOM     15  C   UNL d   1     -42.122-122.546 -52.712  0.00  0.00     0.101 A 
BRANCH  12  16
ATOM     16  C   UNL d   1     -41.809-122.347 -55.193  0.00  0.00     0.156 A 
ATOM     17  O   UNL d   1     -41.580-121.552 -55.205  0.00  0.00    -0.300 OA
ATOM     18  C   UNL d   1     -42.068-121.163 -55.718  0.00  0.00     0.123 A 
ATOM     19  C   UNL d   1     -42.612-121.683 -56.043  0.00  0.00     0.029 A 
ATOM     20  C   UNL d   1     -42.453-122.424 -55.718  0.00  0.00     0.032 A 
ENDBRANCH  12  16
ENDBRANCH   1   8
BRANCH   5  21
ATOM     21  C   UNL d   1     -42.241-123.455 -49.394  0.00  0.00     0.043 A 
ATOM     22  C   UNL d   1     -41.652-123.297 -48.865  0.00  0.00     0.030 A 
ATOM     23  C   UNL d   1     -41.763-123.390 -48.060  0.00  0.00     0.116 A 
ATOM     24  C   UNL d   1     -42.486-123.650 -47.780  0.00  0.00     0.116 A 
ATOM     25  C   UNL d   1     -43.075-123.807 -48.316  0.00  0.00     0.026 A 
ATOM     26  C   UNL d   1     -42.964-123.714 -49.120  0.00  0.00     0.006 A 
BRANCH  23  27
ATOM     27  O   UNL d   1     -41.123-123.215 -47.533  0.00  0.00    -0.326 OA
ATOM     28  C   UNL d   1     -41.157-122.581 -47.017  0.00  0.00     0.181 C 
ENDBRANCH  23  27
BRANCH  24  29
ATOM     29  O   UNL d   1     -42.617-123.750 -46.972  0.00  0.00    -0.326 OA
ATOM     30  C   UNL d   1     -43.376-123.784 -46.676  0.00  0.00     0.181 C 
ENDBRANCH  24  29
ENDBRANCH   5  21
TORSDOF 5
ENDMDL
