MODEL 1
REMARK VINA RESULT:      33.1      0.000      0.000
REMARK  5 active torsions:
REMARK  status: ('A' for Active; 'I' for Inactive)
REMARK    1  A    between atoms: N_2  and  S_1 
REMARK    2  A    between atoms: C_6  and  S_1 
REMARK    3  A    between atoms: C_3  and  N_2 
REMARK    4  A    between atoms: N_4  and  C_5 
REMARK    5  A    between atoms: C_9  and  N_4 
ROOT
ATOM      1  C   UNL d   1      14.472  12.618  -0.995  0.00  0.00     0.110 A 
ATOM      2  C   UNL d   1      14.056  12.199  -1.571  0.00  0.00     0.083 A 
ATOM      3  C   UNL d   1      14.186  12.612  -0.219  0.00  0.00     0.021 A 
ATOM      4  C   UNL d   1      13.374  11.785  -1.379  0.00  0.00     0.019 A 
ATOM      5  C   UNL d   1      13.503  12.198  -0.028  0.00  0.00     0.002 A 
ATOM      6  C   UNL d   1      13.091  11.780  -0.607  0.00  0.00     0.002 A 
ENDROOT
BRANCH   1   7
ATOM      7  N   UNL d   1      15.155  13.033  -1.187  0.00  0.00    -0.157 NA
BRANCH   7   8
ATOM      8  S   UNL d   1      15.203  13.842  -1.043  0.00  0.00     0.285 S 
ATOM      9  O   UNL d   1      15.727  13.924  -1.699  0.00  0.00    -0.198 OA
ATOM     10  O   UNL d   1      14.689  13.759  -0.401  0.00  0.00    -0.198 OA
BRANCH   8  11
ATOM     11  C   UNL d   1      15.253  14.671  -0.898  0.00  0.00     0.105 A 
ATOM     12  C   UNL d   1      15.020  15.217  -1.493  0.00  0.00     0.014 A 
ATOM     13  C   UNL d   1      15.072  16.022  -1.344  0.00  0.00     0.012 A 
ATOM     14  C   UNL d   1      15.347  16.301  -0.626  0.00  0.00     0.058 A 
ATOM     15  C   UNL d   1      15.579  15.755  -0.031  0.00  0.00     0.012 A 
ATOM     16 CL   UNL d   1      15.394  17.102  -0.489  0.00  0.00    -0.082 Cl
ATOM     17  C   UNL d   1      15.534  14.940  -0.165  0.00  0.00     0.014 A 
ENDBRANCH   8  11
ENDBRANCH   7   8
ENDBRANCH   1   7
BRANCH   2  18
ATOM     18  N   UNL d   1      14.354  12.208  -2.368  0.00  0.00    -0.303 N 
ATOM     19  C   UNL d   1      15.136  12.052  -2.468  0.00  0.00     0.100 C 
BRANCH  18  20
ATOM     20  C   UNL d   1      13.858  12.370  -3.002  0.00  0.00     0.064 A 
ATOM     21  C   UNL d   1      13.855  13.115  -3.321  0.00  0.00     0.018 A 
ATOM     22  C   UNL d   1      13.364  13.300  -3.959  0.00  0.00     0.002 A 
ATOM     23  C   UNL d   1      12.867  12.719  -4.280  0.00  0.00     0.000 A 
ATOM     24  C   UNL d   1      12.871  11.961  -3.955  0.00  0.00     0.002 A 
ATOM     25  C   UNL d   1      13.366  11.780  -3.315  0.00  0.00     0.018 A 
ENDBRANCH  18  20
ENDBRANCH   2  18
TORSDOF 5
ENDMDL
