MODEL 1
REMARK VINA RESULT:      -8.8      0.000      0.000
REMARK  3 active torsions:
REMARK  status: ('A' for Active; 'I' for Inactive)
REMARK    1  A    between atoms: C_8  and  C_1 
REMARK    2  A    between atoms: C_3  and  N_14 
REMARK       I    between atoms: N_13  and  C_8 
REMARK    3  A    between atoms: N_14  and  N_13 
ROOT
ATOM      1  C   UNL d   1      52.759  31.779  53.167  0.00  0.00     0.320 C 
ATOM      2  N   UNL d   1      52.110  32.234  52.965  0.00  0.00    -0.102 NA
ATOM      3  O   UNL d   1      52.928  30.965  53.104  0.00  0.00    -0.261 OA
ENDROOT
BRANCH   1   4
ATOM      4  C   UNL d   1      53.377  32.205  53.502  0.00  0.00     0.162 A 
ATOM      5  C   UNL d   1      54.001  32.448  53.031  0.00  0.00     0.072 A 
ATOM      6  C   UNL d   1      54.625  32.876  53.361  0.00  0.00     0.200 A 
ATOM      7  O   UNL d   1      55.266  33.125  52.879  0.00  0.00    -0.286 OA
ATOM      8  C   UNL d   1      54.620  33.061  54.169  0.00  0.00     0.062 A 
ATOM      9  C   UNL d   1      53.993  32.817  54.636  0.00  0.00     0.103 A 
ATOM     10  C   UNL d   1      55.243  33.489  54.499  0.00  0.00     0.005 A 
ATOM     11  O   UNL d   1      53.376  32.391  54.301  0.00  0.00    -0.302 OA
ATOM     12  C   UNL d   1      53.982  32.996  55.435  0.00  0.00     0.025 A 
ATOM     13  C   UNL d   1      54.601  33.424  55.772  0.00  0.00     0.002 A 
ATOM     14  C   UNL d   1      55.232  33.669  55.297  0.00  0.00     0.000 A 
ENDBRANCH   1   4
BRANCH   2  15
ATOM     15  N   UNL d   1      52.122  33.043  53.104  0.00  0.00    -0.118 NA
BRANCH  15  16
ATOM     16  C   UNL d   1      51.451  33.507  52.941  0.00  0.00     0.215 A 
ATOM     17  N   UNL d   1      51.110  33.623  52.204  0.00  0.00    -0.219 NA
ATOM     18  C   UNL d   1      50.460  34.117  52.286  0.00  0.00     0.090 A 
ATOM     19  C   UNL d   1      49.917  34.418  51.749  0.00  0.00     0.018 A 
ATOM     20  C   UNL d   1      50.398  34.309  53.093  0.00  0.00     0.050 A 
ATOM     21  C   UNL d   1      49.310  34.913  52.010  0.00  0.00     0.002 A 
ATOM     22  C   UNL d   1      49.982  34.224  50.944  0.00  0.00     0.002 C 
ATOM     23  C   UNL d   1      49.250  35.103  52.809  0.00  0.00     0.001 A 
ATOM     24  C   UNL d   1      49.795  34.803  53.363  0.00  0.00     0.008 A 
ATOM     25  S   UNL d   1      51.010  33.932  53.492  0.00  0.00    -0.045 SA
ENDBRANCH  15  16
ENDBRANCH   2  15
TORSDOF 3
ENDMDL
MODEL 2
REMARK VINA RESULT:      -7.8      1.011      2.208
REMARK  3 active torsions:
REMARK  status: ('A' for Active; 'I' for Inactive)
REMARK    1  A    between atoms: C_8  and  C_1 
REMARK    2  A    between atoms: C_3  and  N_14 
REMARK       I    between atoms: N_13  and  C_8 
REMARK    3  A    between atoms: N_14  and  N_13 
ROOT
ATOM      1  C   UNL d   1      53.656  33.279  53.055  0.00  0.00     0.320 C 
ATOM      2  N   UNL d   1      52.957  33.690  52.939  0.00  0.00    -0.102 NA
ATOM      3  O   UNL d   1      54.458  33.472  52.930  0.00  0.00    -0.261 OA
ENDROOT
BRANCH   1   4
ATOM      4  C   UNL d   1      53.555  32.522  53.354  0.00  0.00     0.162 A 
ATOM      5  C   UNL d   1      53.662  32.386  54.154  0.00  0.00     0.072 A 
ATOM      6  C   UNL d   1      53.562  31.626  54.461  0.00  0.00     0.200 A 
ATOM      7  O   UNL d   1      53.672  31.487  55.282  0.00  0.00    -0.286 OA
ATOM      8  C   UNL d   1      53.354  31.000  53.960  0.00  0.00     0.062 A 
ATOM      9  C   UNL d   1      53.248  31.140  53.160  0.00  0.00     0.103 A 
ATOM     10  C   UNL d   1      53.255  30.240  54.266  0.00  0.00     0.005 A 
ATOM     11  O   UNL d   1      53.349  31.898  52.861  0.00  0.00    -0.302 OA
ATOM     12  C   UNL d   1      53.043  30.525  52.659  0.00  0.00     0.025 A 
ATOM     13  C   UNL d   1      52.941  29.764  52.959  0.00  0.00     0.002 A 
ATOM     14  C   UNL d   1      53.049  29.626  53.767  0.00  0.00     0.000 A 
ENDBRANCH   1   4
BRANCH   2  15
ATOM     15  N   UNL d   1      52.242  33.331  53.123  0.00  0.00    -0.118 NA
BRANCH  15  16
ATOM     16  C   UNL d   1      51.525  33.729  52.982  0.00  0.00     0.215 A 
ATOM     17  N   UNL d   1      51.124  33.768  52.267  0.00  0.00    -0.219 NA
ATOM     18  C   UNL d   1      50.443  34.213  52.367  0.00  0.00     0.090 A 
ATOM     19  C   UNL d   1      49.840  34.434  51.855  0.00  0.00     0.018 A 
ATOM     20  C   UNL d   1      50.423  34.455  53.163  0.00  0.00     0.050 A 
ATOM     21  C   UNL d   1      49.214  34.896  52.130  0.00  0.00     0.002 A 
ATOM     22  C   UNL d   1      49.864  34.190  51.062  0.00  0.00     0.002 C 
ATOM     23  C   UNL d   1      49.195  35.135  52.917  0.00  0.00     0.001 A 
ATOM     24  C   UNL d   1      49.800  34.918  53.447  0.00  0.00     0.008 A 
ATOM     25  S   UNL d   1      51.090  34.155  53.537  0.00  0.00    -0.045 SA
ENDBRANCH  15  16
ENDBRANCH   2  15
TORSDOF 3
ENDMDL
MODEL 3
REMARK VINA RESULT:      -7.5      2.202      4.298
REMARK  3 active torsions:
REMARK  status: ('A' for Active; 'I' for Inactive)
REMARK    1  A    between atoms: C_8  and  C_1 
REMARK    2  A    between atoms: C_3  and  N_14 
REMARK       I    between atoms: N_13  and  C_8 
REMARK    3  A    between atoms: N_14  and  N_13 
ROOT
ATOM      1  C   UNL d   1      54.849  32.960  53.720  0.00  0.00     0.320 C 
ATOM      2  N   UNL d   1      54.596  32.184  53.655  0.00  0.00    -0.102 NA
ATOM      3  O   UNL d   1      55.593  33.327  53.637  0.00  0.00    -0.261 OA
ENDROOT
BRANCH   1   4
ATOM      4  C   UNL d   1      54.252  33.494  53.904  0.00  0.00     0.162 A 
ATOM      5  C   UNL d   1      54.204  33.800  54.662  0.00  0.00     0.072 A 
ATOM      6  C   UNL d   1      53.608  34.337  54.853  0.00  0.00     0.200 A 
ATOM      7  O   UNL d   1      53.558  34.651  55.631  0.00  0.00    -0.286 OA
ATOM      8  C   UNL d   1      53.055  34.566  54.279  0.00  0.00     0.062 A 
ATOM      9  C   UNL d   1      53.106  34.257  53.522  0.00  0.00     0.103 A 
ATOM     10  C   UNL d   1      52.458  35.102  54.471  0.00  0.00     0.005 A 
ATOM     11  O   UNL d   1      53.703  33.723  53.338  0.00  0.00    -0.302 OA
ATOM     12  C   UNL d   1      52.564  34.479  52.951  0.00  0.00     0.025 A 
ATOM     13  C   UNL d   1      51.965  35.015  53.135  0.00  0.00     0.002 A 
ATOM     14  C   UNL d   1      51.916  35.325  53.900  0.00  0.00     0.000 A 
ENDBRANCH   1   4
BRANCH   2  15
ATOM     15  N   UNL d   1      53.804  32.005  53.773  0.00  0.00    -0.118 NA
BRANCH  15  16
ATOM     16  C   UNL d   1      53.539  31.218  53.719  0.00  0.00     0.215 A 
ATOM     17  N   UNL d   1      53.632  30.636  54.290  0.00  0.00    -0.219 NA
ATOM     18  C   UNL d   1      53.292  29.941  54.019  0.00  0.00     0.090 A 
ATOM     19  C   UNL d   1      53.219  29.191  54.346  0.00  0.00     0.018 A 
ATOM     20  C   UNL d   1      52.983  30.097  53.263  0.00  0.00     0.050 A 
ATOM     21  C   UNL d   1      52.838  28.593  53.925  0.00  0.00     0.002 A 
ATOM     22  C   UNL d   1      53.529  29.039  55.101  0.00  0.00     0.002 C 
ATOM     23  C   UNL d   1      52.532  28.749  53.177  0.00  0.00     0.001 A 
ATOM     24  C   UNL d   1      52.600  29.505  52.834  0.00  0.00     0.008 A 
ATOM     25  S   UNL d   1      53.137  30.884  53.083  0.00  0.00    -0.045 SA
ENDBRANCH  15  16
ENDBRANCH   2  15
TORSDOF 3
ENDMDL
MODEL 4
REMARK VINA RESULT:      -7.2      2.097      3.096
REMARK  3 active torsions:
REMARK  status: ('A' for Active; 'I' for Inactive)
REMARK    1  A    between atoms: C_8  and  C_1 
REMARK    2  A    between atoms: C_3  and  N_14 
REMARK       I    between atoms: N_13  and  C_8 
REMARK    3  A    between atoms: N_14  and  N_13 
ROOT
ATOM      1  C   UNL d   1      50.956  34.284  51.751  0.00  0.00     0.320 C 
ATOM      2  N   UNL d   1      50.209  34.589  51.887  0.00  0.00    -0.102 NA
ATOM      3  O   UNL d   1      51.365  34.064  51.058  0.00  0.00    -0.261 OA
ENDROOT
BRANCH   1   4
ATOM      4  C   UNL d   1      51.401  34.167  52.431  0.00  0.00     0.162 A 
ATOM      5  C   UNL d   1      51.390  33.436  52.800  0.00  0.00     0.072 A 
ATOM      6  C   UNL d   1      51.834  33.313  53.484  0.00  0.00     0.200 A 
ATOM      7  O   UNL d   1      51.823  32.563  53.863  0.00  0.00    -0.286 OA
ATOM      8  C   UNL d   1      52.293  33.927  53.799  0.00  0.00     0.062 A 
ATOM      9  C   UNL d   1      52.302  34.657  53.426  0.00  0.00     0.103 A 
ATOM     10  C   UNL d   1      52.738  33.804  54.482  0.00  0.00     0.005 A 
ATOM     11  O   UNL d   1      51.856  34.773  52.745  0.00  0.00    -0.302 OA
ATOM     12  C   UNL d   1      52.752  35.268  53.731  0.00  0.00     0.025 A 
ATOM     13  C   UNL d   1      53.199  35.152  54.414  0.00  0.00     0.002 A 
ATOM     14  C   UNL d   1      53.188  34.414  54.788  0.00  0.00     0.000 A 
ENDBRANCH   1   4
BRANCH   2  15
ATOM     15  N   UNL d   1      49.971  34.747  52.656  0.00  0.00    -0.118 NA
BRANCH  15  16
ATOM     16  C   UNL d   1      49.261  35.158  52.799  0.00  0.00     0.215 A 
ATOM     17  N   UNL d   1      49.092  35.616  53.458  0.00  0.00    -0.219 NA
ATOM     18  C   UNL d   1      48.335  35.923  53.382  0.00  0.00     0.090 A 
ATOM     19  C   UNL d   1      47.879  36.410  53.862  0.00  0.00     0.018 A 
ATOM     20  C   UNL d   1      48.030  35.647  52.659  0.00  0.00     0.050 A 
ATOM     21  C   UNL d   1      47.118  36.625  53.625  0.00  0.00     0.002 A 
ATOM     22  C   UNL d   1      48.186  36.683  54.583  0.00  0.00     0.002 C 
ATOM     23  C   UNL d   1      46.818  36.352  52.909  0.00  0.00     0.001 A 
ATOM     24  C   UNL d   1      47.270  35.858  52.414  0.00  0.00     0.008 A 
ATOM     25  S   UNL d   1      48.604  35.177  52.304  0.00  0.00    -0.045 SA
ENDBRANCH  15  16
ENDBRANCH   2  15
TORSDOF 3
ENDMDL
MODEL 5
REMARK VINA RESULT:      -6.9      2.082      4.573
REMARK  3 active torsions:
REMARK  status: ('A' for Active; 'I' for Inactive)
REMARK    1  A    between atoms: C_8  and  C_1 
REMARK    2  A    between atoms: C_3  and  N_14 
REMARK       I    between atoms: N_13  and  C_8 
REMARK    3  A    between atoms: N_14  and  N_13 
ROOT
ATOM      1  C   UNL d   1      53.360  33.480  54.524  0.00  0.00     0.320 C 
ATOM      2  N   UNL d   1      53.549  32.687  54.451  0.00  0.00    -0.102 NA
ATOM      3  O   UNL d   1      53.589  34.073  55.064  0.00  0.00    -0.261 OA
ENDROOT
BRANCH   1   4
ATOM      4  C   UNL d   1      52.838  33.755  53.954  0.00  0.00     0.162 A 
ATOM      5  C   UNL d   1      53.124  34.178  53.314  0.00  0.00     0.072 A 
ATOM      6  C   UNL d   1      52.605  34.457  52.738  0.00  0.00     0.200 A 
ATOM      7  O   UNL d   1      52.899  34.891  52.081  0.00  0.00    -0.286 OA
ATOM      8  C   UNL d   1      51.792  34.310  52.804  0.00  0.00     0.062 A 
ATOM      9  C   UNL d   1      51.509  33.887  53.446  0.00  0.00     0.103 A 
ATOM     10  C   UNL d   1      51.272  34.590  52.228  0.00  0.00     0.005 A 
ATOM     11  O   UNL d   1      52.032  33.612  54.017  0.00  0.00    -0.302 OA
ATOM     12  C   UNL d   1      50.707  33.738  53.518  0.00  0.00     0.025 A 
ATOM     13  C   UNL d   1      50.182  34.014  52.945  0.00  0.00     0.002 A 
ATOM     14  C   UNL d   1      50.471  34.441  52.299  0.00  0.00     0.000 A 
ENDBRANCH   1   4
BRANCH   2  15
ATOM     15  N   UNL d   1      53.219  32.247  53.842  0.00  0.00    -0.118 NA
BRANCH  15  16
ATOM     16  C   UNL d   1      53.246  31.415  53.864  0.00  0.00     0.215 A 
ATOM     17  N   UNL d   1      53.277  30.949  54.538  0.00  0.00    -0.219 NA
ATOM     18  C   UNL d   1      53.297  30.159  54.315  0.00  0.00     0.090 A 
ATOM     19  C   UNL d   1      53.330  29.460  54.744  0.00  0.00     0.018 A 
ATOM     20  C   UNL d   1      53.277  30.138  53.484  0.00  0.00     0.050 A 
ATOM     21  C   UNL d   1      53.343  28.735  54.349  0.00  0.00     0.002 A 
ATOM     22  C   UNL d   1      53.350  29.484  55.573  0.00  0.00     0.002 C 
ATOM     23  C   UNL d   1      53.323  28.716  53.526  0.00  0.00     0.001 A 
ATOM     24  C   UNL d   1      53.290  29.418  53.080  0.00  0.00     0.008 A 
ATOM     25  S   UNL d   1      53.245  30.913  53.211  0.00  0.00    -0.045 SA
ENDBRANCH  15  16
ENDBRANCH   2  15
TORSDOF 3
ENDMDL
MODEL 6
REMARK VINA RESULT:      -6.9      1.960      4.569
REMARK  3 active torsions:
REMARK  status: ('A' for Active; 'I' for Inactive)
REMARK    1  A    between atoms: C_8  and  C_1 
REMARK    2  A    between atoms: C_3  and  N_14 
REMARK       I    between atoms: N_13  and  C_8 
REMARK    3  A    between atoms: N_14  and  N_13 
ROOT
ATOM      1  C   UNL d   1      52.825  34.311  53.349  0.00  0.00     0.320 C 
ATOM      2  N   UNL d   1      53.095  33.545  53.446  0.00  0.00    -0.102 NA
ATOM      3  O   UNL d   1      53.134  35.056  53.563  0.00  0.00    -0.261 OA
ENDROOT
BRANCH   1   4
ATOM      4  C   UNL d   1      52.103  34.368  52.962  0.00  0.00     0.162 A 
ATOM      5  C   UNL d   1      52.075  34.294  52.147  0.00  0.00     0.072 A 
ATOM      6  C   UNL d   1      51.352  34.350  51.753  0.00  0.00     0.200 A 
ATOM      7  O   UNL d   1      51.323  34.274  50.917  0.00  0.00    -0.286 OA
ATOM      8  C   UNL d   1      50.654  34.481  52.180  0.00  0.00     0.062 A 
ATOM      9  C   UNL d   1      50.687  34.554  52.995  0.00  0.00     0.103 A 
ATOM     10  C   UNL d   1      49.932  34.536  51.786  0.00  0.00     0.005 A 
ATOM     11  O   UNL d   1      51.410  34.497  53.382  0.00  0.00    -0.302 OA
ATOM     12  C   UNL d   1      50.002  34.683  53.424  0.00  0.00     0.025 A 
ATOM     13  C   UNL d   1      49.276  34.740  53.036  0.00  0.00     0.002 A 
ATOM     14  C   UNL d   1      49.247  34.665  52.213  0.00  0.00     0.000 A 
ENDBRANCH   1   4
BRANCH   2  15
ATOM     15  N   UNL d   1      52.645  32.919  53.163  0.00  0.00    -0.118 NA
BRANCH  15  16
ATOM     16  C   UNL d   1      52.858  32.134  53.342  0.00  0.00     0.215 A 
ATOM     17  N   UNL d   1      52.688  31.472  52.889  0.00  0.00    -0.219 NA
ATOM     18  C   UNL d   1      52.996  30.809  53.262  0.00  0.00     0.090 A 
ATOM     19  C   UNL d   1      52.996  30.010  53.070  0.00  0.00     0.018 A 
ATOM     20  C   UNL d   1      53.364  31.069  53.961  0.00  0.00     0.050 A 
ATOM     21  C   UNL d   1      53.361  29.466  53.571  0.00  0.00     0.002 A 
ATOM     22  C   UNL d   1      52.627  29.754  52.371  0.00  0.00     0.002 C 
ATOM     23  C   UNL d   1      53.725  29.725  54.263  0.00  0.00     0.001 A 
ATOM     24  C   UNL d   1      53.732  30.532  54.468  0.00  0.00     0.008 A 
ATOM     25  S   UNL d   1      53.276  31.885  54.006  0.00  0.00    -0.045 SA
ENDBRANCH  15  16
ENDBRANCH   2  15
TORSDOF 3
ENDMDL
