MODEL 1
REMARK VINA RESULT:      34.8      0.000      0.000
REMARK  5 active torsions:
REMARK  status: ('A' for Active; 'I' for Inactive)
REMARK    1  A    between atoms: C_2  and  C_1 
REMARK    2  A    between atoms: O_16  and  C_12 
REMARK    3  A    between atoms: C_21  and  C_14 
REMARK    4  A    between atoms: C_17  and  O_16 
REMARK    5  A    between atoms: C_24  and  C_21 
ROOT
ATOM      1  C   UNL d   1      13.706  13.038  -3.464  0.00  0.00     0.086 A 
ATOM      2  C   UNL d   1      13.854  12.588  -2.796  0.00  0.00     0.201 A 
ATOM      3  C   UNL d   1      14.101  12.974  -2.086  0.00  0.00     0.062 A 
ATOM      4  C   UNL d   1      13.794  13.854  -3.452  0.00  0.00     0.105 A 
ATOM      5  C   UNL d   1      14.192  13.813  -2.073  0.00  0.00     0.105 A 
ATOM      6  O   UNL d   1      14.033  14.241  -2.770  0.00  0.00    -0.307 OA
ATOM      7  C   UNL d   1      14.249  12.524  -1.418  0.00  0.00     0.007 A 
ATOM      8  C   UNL d   1      14.428  14.177  -1.393  0.00  0.00     0.050 A 
ATOM      9  C   UNL d   1      14.576  13.727  -0.724  0.00  0.00     0.105 A 
ATOM     10  C   UNL d   1      14.488  12.912  -0.737  0.00  0.00     0.023 A 
ATOM     11  O   UNL d   1      13.761  11.779  -2.831  0.00  0.00    -0.286 OA
ATOM     12  C   UNL d   1      13.639  14.304  -4.142  0.00  0.00     0.027 C 
ENDROOT
BRANCH   1  13
ATOM     13  C   UNL d   1      13.464  12.681  -4.167  0.00  0.00     0.116 A 
ATOM     14  N   UNL d   1      13.640  12.834  -4.969  0.00  0.00    -0.238 NA
ATOM     15  C   UNL d   1      13.237  12.297  -5.433  0.00  0.00     0.088 A 
ATOM     16  C   UNL d   1      13.248  12.242  -6.266  0.00  0.00     0.021 C 
ATOM     17  C   UNL d   1      12.819  11.816  -4.957  0.00  0.00     0.056 A 
ATOM     18  S   UNL d   1      12.950  12.043  -4.157  0.00  0.00    -0.066 SA
ENDBRANCH   1  13
BRANCH  10  19
ATOM     19  C   UNL d   1      14.654  12.489  -0.017  0.00  0.00     0.002 C 
BRANCH  19  20
ATOM     20  C   UNL d   1      15.104  11.783  -0.047  0.00  0.00     0.000 C 
ATOM     21  C   UNL d   1      15.928  11.812  -0.018  0.00  0.00     0.000 C 
ENDBRANCH  19  20
ENDBRANCH  10  19
BRANCH   9  22
ATOM     22  O   UNL d   1      14.821  14.113  -0.021  0.00  0.00    -0.273 OA
BRANCH  22  23
ATOM     23  C   UNL d   1      15.147  14.890  -0.079  0.00  0.00     0.300 C 
ATOM     24  O   UNL d   1      14.633  15.505  -0.157  0.00  0.00    -0.259 OA
ATOM     25  C   UNL d   1      15.993  14.985  -0.053  0.00  0.00     0.074 C 
ENDBRANCH  22  23
ENDBRANCH   9  22
TORSDOF 5
ENDMDL
