MODEL 1
REMARK VINA RESULT:      60.3      0.000      0.000
REMARK  6 active torsions:
REMARK  status: ('A' for Active; 'I' for Inactive)
REMARK       I    between atoms: C_8  and  N_1 
REMARK    1  A    between atoms: C_10  and  C_3 
REMARK    2  A    between atoms: C_4  and  S_14 
REMARK    3  A    between atoms: C_15  and  C_6 
REMARK    4  A    between atoms: C_16  and  C_8 
REMARK    5  A    between atoms: S_14  and  C_16 
REMARK    6  A    between atoms: O_26  and  C_23 
ROOT
ATOM      1  N   UNL d   1      45.986 -17.489  42.828  0.00  0.00    -0.195 N 
ATOM      2  N   UNL d   1      46.040 -17.901  43.518  0.00  0.00    -0.162 NA
ATOM      3  C   UNL d   1      46.061 -18.712  43.337  0.00  0.00     0.109 A 
ATOM      4  C   UNL d   1      45.973 -18.035  42.201  0.00  0.00     0.088 A 
ATOM      5  C   UNL d   1      46.019 -18.772  42.535  0.00  0.00     0.041 A 
ATOM      6  C   UNL d   1      45.947 -16.699  42.658  0.00  0.00     0.275 C 
ATOM      7  O   UNL d   1      45.893 -16.429  41.871  0.00  0.00    -0.266 OA
ENDROOT
BRANCH   4   8
ATOM      8  C   UNL d   1      45.923 -17.894  41.403  0.00  0.00     0.018 A 
ATOM      9  C   UNL d   1      45.189 -17.875  41.032  0.00  0.00     0.004 A 
ATOM     10  C   UNL d   1      45.146 -17.730  40.212  0.00  0.00     0.024 A 
ATOM     11  C   UNL d   1      45.830 -17.607  39.777  0.00  0.00     0.094 A 
ATOM     12  C   UNL d   1      46.563 -17.627  40.152  0.00  0.00     0.024 A 
ATOM     13  C   UNL d   1      46.616 -17.771  40.969  0.00  0.00     0.004 A 
BRANCH  11  14
ATOM     14  O   UNL d   1      45.804 -17.461  38.958  0.00  0.00    -0.328 OA
ATOM     15  C   UNL d   1      45.323 -16.867  38.649  0.00  0.00     0.181 C 
ENDBRANCH  11  14
ENDBRANCH   4   8
BRANCH   6  16
ATOM     16  C   UNL d   1      45.959 -16.138  43.278  0.00  0.00     0.128 C 
BRANCH  16  17
ATOM     17  S   UNL d   1      46.309 -15.394  43.163  0.00  0.00    -0.069 SA
BRANCH  17  18
ATOM     18  C   UNL d   1      45.985 -14.715  43.520  0.00  0.00     0.140 A 
ATOM     19  N   UNL d   1      46.049 -13.954  43.220  0.00  0.00    -0.232 NA
ATOM     20  C   UNL d   1      45.655 -13.448  43.736  0.00  0.00     0.088 A 
ATOM     21  C   UNL d   1      45.537 -12.627  43.719  0.00  0.00     0.020 A 
ATOM     22  C   UNL d   1      45.350 -13.893  44.351  0.00  0.00     0.049 A 
ATOM     23  C   UNL d   1      45.111 -12.257  44.322  0.00  0.00     0.002 A 
ATOM     24  C   UNL d   1      44.804 -12.719  44.946  0.00  0.00     0.001 A 
ATOM     25  C   UNL d   1      44.927 -13.532  44.953  0.00  0.00     0.008 A 
ATOM     26  S   UNL d   1      45.553 -14.687  44.222  0.00  0.00    -0.060 SA
ENDBRANCH  17  18
ENDBRANCH  16  17
ENDBRANCH   6  16
BRANCH   3  27
ATOM     27  C   UNL d   1      46.115 -19.316  43.897  0.00  0.00     0.049 A 
ATOM     28  S   UNL d   1      46.642 -19.916  44.056  0.00  0.00    -0.085 SA
ATOM     29  C   UNL d   1      46.358 -20.330  44.709  0.00  0.00     0.035 A 
ATOM     30  C   UNL d   1      45.664 -19.994  44.955  0.00  0.00     0.007 A 
ATOM     31  C   UNL d   1      45.499 -19.354  44.451  0.00  0.00     0.009 A 
ENDBRANCH   3  27
TORSDOF 6
ENDMDL
