MODEL 1
REMARK VINA RESULT:      35.9      0.000      0.000
REMARK  4 active torsions:
REMARK  status: ('A' for Active; 'I' for Inactive)
REMARK    1  A    between atoms: C_2  and  C_1 
REMARK    2  A    between atoms: C_13  and  N_5 
REMARK    3  A    between atoms: C_16  and  C_13 
REMARK    4  A    between atoms: C_17  and  C_16 
ROOT
ATOM      1  C   UNL d   1     -54.712-101.654 -42.695  0.00  0.00     0.112 A 
ATOM      2  C   UNL d   1     -54.711-101.579 -41.876  0.00  0.00     0.176 A 
ATOM      3  N   UNL d   1     -54.711-102.340 -41.545  0.00  0.00    -0.285 N 
ATOM      4  C   UNL d   1     -54.712-102.464 -42.870  0.00  0.00     0.219 A 
ATOM      5  C   UNL d   1     -54.712-102.879 -42.164  0.00  0.00     0.124 A 
ATOM      6  O   UNL d   1     -54.712-102.799 -43.634  0.00  0.00    -0.285 OA
ATOM      7  N   UNL d   1     -54.711-100.859 -41.457  0.00  0.00    -0.128 N 
ENDROOT
BRANCH   1   8
ATOM      8  C   UNL d   1     -54.712-101.018 -43.222  0.00  0.00     0.169 A 
ATOM      9  N   UNL d   1     -54.712-100.207 -43.065  0.00  0.00    -0.225 NA
ATOM     10  C   UNL d   1     -54.712 -99.808 -43.782  0.00  0.00     0.101 A 
ATOM     11  C   UNL d   1     -54.712 -99.004 -43.964  0.00  0.00     0.021 A 
ATOM     12  C   UNL d   1     -54.712-100.369 -44.387  0.00  0.00     0.101 A 
ATOM     13  C   UNL d   1     -54.712 -98.756 -44.757  0.00  0.00     0.002 A 
ATOM     14  C   UNL d   1     -54.712 -99.318 -45.363  0.00  0.00     0.002 A 
ATOM     15  C   UNL d   1     -54.712-100.127 -45.175  0.00  0.00     0.021 A 
ATOM     16  N   UNL d   1     -54.712-101.111 -44.040  0.00  0.00    -0.225 NA
ENDBRANCH   1   8
BRANCH   3  17
ATOM     17  C   UNL d   1     -54.711-102.518 -40.735  0.00  0.00     0.082 C 
BRANCH  17  18
ATOM     18  C   UNL d   1     -55.398-102.773 -40.382  0.00  0.00     0.019 C 
BRANCH  18  19
ATOM     19  C   UNL d   1     -55.449-102.809 -39.559  0.00  0.00     0.002 C 
ATOM     20  C   UNL d   1     -54.776-102.696 -39.106  0.00  0.00     0.000 C 
ENDBRANCH  18  19
ENDBRANCH  17  18
ENDBRANCH   3  17
TORSDOF 4
ENDMDL
