MODEL 1
REMARK VINA RESULT:      59.2      0.000      0.000
REMARK  5 active torsions:
REMARK  status: ('A' for Active; 'I' for Inactive)
REMARK    1  A    between atoms: N_2  and  S_1 
REMARK    2  A    between atoms: C_4  and  S_1 
REMARK    3  A    between atoms: S_8  and  C_3 
REMARK    4  A    between atoms: C_18  and  S_8 
REMARK    5  A    between atoms: C_17  and  C_18 
ROOT
ATOM      1  N   UNL d   1      60.737  49.236  51.195  0.00  0.00    -0.208 N 
ATOM      2  C   UNL d   1      61.010  48.482  51.414  0.00  0.00     0.189 A 
ATOM      3  N   UNL d   1      61.117  48.475  52.235  0.00  0.00    -0.219 NA
ATOM      4  C   UNL d   1      60.675  49.696  51.885  0.00  0.00     0.114 A 
ATOM      5  C   UNL d   1      60.909  49.225  52.521  0.00  0.00     0.121 A 
ENDROOT
BRANCH   1   6
ATOM      6  S   UNL d   1      60.559  49.481  50.423  0.00  0.00     0.273 S 
ATOM      7  O   UNL d   1      60.633  49.702  49.629  0.00  0.00    -0.200 OA
ATOM      8  O   UNL d   1      61.360  49.430  50.261  0.00  0.00    -0.200 OA
BRANCH   6   9
ATOM      9  C   UNL d   1      59.747  49.538  50.569  0.00  0.00     0.104 A 
ATOM     10  C   UNL d   1      59.224  49.501  49.936  0.00  0.00     0.013 A 
ATOM     11  C   UNL d   1      58.412  49.558  50.085  0.00  0.00     0.001 A 
ATOM     12  C   UNL d   1      57.885  49.521  49.452  0.00  0.00     0.000 A 
ATOM     13  C   UNL d   1      58.134  49.652  50.855  0.00  0.00     0.000 A 
ATOM     14  C   UNL d   1      57.073  49.578  49.589  0.00  0.00     0.000 A 
ATOM     15  C   UNL d   1      56.790  49.671  50.363  0.00  0.00     0.000 A 
ATOM     16  C   UNL d   1      57.319  49.708  50.991  0.00  0.00     0.000 A 
ATOM     17  C   UNL d   1      58.662  49.689  51.488  0.00  0.00     0.001 A 
ATOM     18  C   UNL d   1      59.482  49.631  51.339  0.00  0.00     0.013 A 
ENDBRANCH   6   9
ENDBRANCH   1   6
BRANCH   2  19
ATOM     19  S   UNL d   1      61.151  47.846  50.898  0.00  0.00    -0.049 SA
BRANCH  19  20
ATOM     20  C   UNL d   1      61.247  47.085  51.202  0.00  0.00     0.040 C 
BRANCH  20  21
ATOM     21  C   UNL d   1      61.294  46.443  50.690  0.00  0.00     0.026 A 
ATOM     22  C   UNL d   1      61.713  46.515  49.966  0.00  0.00     0.099 A 
ATOM     23  N   UNL d   1      61.770  45.884  49.444  0.00  0.00    -0.242 NA
ATOM     24  C   UNL d   1      61.403  45.173  49.644  0.00  0.00     0.099 A 
ATOM     25  C   UNL d   1      60.991  45.097  50.351  0.00  0.00     0.021 A 
ATOM     26  C   UNL d   1      60.937  45.732  50.873  0.00  0.00     0.004 A 
ENDBRANCH  20  21
ENDBRANCH  19  20
ENDBRANCH   2  19
TORSDOF 5
ENDMDL
