MODEL 1
REMARK VINA RESULT:      82.8      0.000      0.000
REMARK  5 active torsions:
REMARK  status: ('A' for Active; 'I' for Inactive)
REMARK    1  A    between atoms: N_3  and  S_1 
REMARK    2  A    between atoms: C_13  and  S_1 
REMARK    3  A    between atoms: C_2  and  N_3 
REMARK    4  A    between atoms: N_9  and  C_4 
REMARK       I    between atoms: C_8  and  N_10 
REMARK    5  A    between atoms: C_19  and  C_8 
ROOT
ATOM      1  C   UNL d   1      13.324  12.683  -3.388  0.00  0.00     0.110 A 
ATOM      2  C   UNL d   1      13.728  13.665  -3.433  0.00  0.00     0.083 A 
ATOM      3  C   UNL d   1      13.254  12.495  -4.183  0.00  0.00     0.020 A 
ATOM      4  C   UNL d   1      13.793  13.806  -4.244  0.00  0.00     0.018 A 
ATOM      5  C   UNL d   1      13.518  13.127  -4.621  0.00  0.00     0.003 A 
ATOM      6  C   UNL d   1      13.509  13.088  -5.445  0.00  0.00     0.000 A 
ATOM      7  C   UNL d   1      12.974  11.804  -4.550  0.00  0.00     0.002 A 
ATOM      8  C   UNL d   1      14.056  14.436  -4.682  0.00  0.00     0.002 A 
ATOM      9  C   UNL d   1      12.971  11.779  -5.384  0.00  0.00     0.000 A 
ATOM     10  C   UNL d   1      14.055  14.414  -5.518  0.00  0.00     0.000 A 
ATOM     11  C   UNL d   1      13.237  12.416  -5.827  0.00  0.00     0.000 A 
ATOM     12  C   UNL d   1      13.775  13.726  -5.887  0.00  0.00     0.000 A 
ENDROOT
BRANCH   2  13
ATOM     13  N   UNL d   1      13.960  14.242  -2.902  0.00  0.00    -0.300 N 
ATOM     14  C   UNL d   1      13.480  14.900  -2.783  0.00  0.00     0.100 A 
ATOM     15  C   UNL d   1      13.713  15.456  -2.266  0.00  0.00     0.102 A 
ATOM     16  N   UNL d   1      14.436  15.409  -1.825  0.00  0.00    -0.269 N 
ATOM     17  C   UNL d   1      14.682  15.982  -1.287  0.00  0.00     0.265 C 
ATOM     18  C   UNL d   1      14.910  14.756  -1.944  0.00  0.00     0.102 A 
ATOM     19  O   UNL d   1      14.241  16.666  -1.126  0.00  0.00    -0.267 OA
ATOM     20  C   UNL d   1      14.660  14.143  -2.510  0.00  0.00     0.100 A 
BRANCH  17  21
ATOM     21  C   UNL d   1      15.393  15.870  -0.897  0.00  0.00     0.057 A 
ATOM     22  C   UNL d   1      15.535  15.182  -0.448  0.00  0.00     0.005 A 
ATOM     23  C   UNL d   1      16.259  15.074  -0.055  0.00  0.00     0.000 A 
ATOM     24  C   UNL d   1      16.853  15.659  -0.108  0.00  0.00     0.000 A 
ATOM     25  C   UNL d   1      16.709  16.341  -0.554  0.00  0.00     0.000 A 
ATOM     26  C   UNL d   1      15.984  16.443  -0.945  0.00  0.00     0.005 A 
ENDBRANCH  17  21
ENDBRANCH   2  13
BRANCH   1  27
ATOM     27  N   UNL d   1      13.103  12.159  -2.804  0.00  0.00    -0.157 NA
BRANCH  27  28
ATOM     28  S   UNL d   1      13.550  12.065  -2.119  0.00  0.00     0.285 S 
ATOM     29  O   UNL d   1      12.915  12.346  -1.677  0.00  0.00    -0.198 OA
ATOM     30  O   UNL d   1      14.178  11.786  -2.564  0.00  0.00    -0.198 OA
BRANCH  28  31
ATOM     31  C   UNL d   1      13.989  11.973  -1.437  0.00  0.00     0.105 A 
ATOM     32  C   UNL d   1      13.617  11.949  -0.697  0.00  0.00     0.013 A 
ATOM     33  C   UNL d   1      14.061  11.857  -0.016  0.00  0.00     0.001 A 
ATOM     34  C   UNL d   1      14.873  11.788  -0.060  0.00  0.00     0.000 A 
ATOM     35  C   UNL d   1      15.266  11.810  -0.803  0.00  0.00     0.001 A 
ATOM     36  C   UNL d   1      14.806  11.904  -1.481  0.00  0.00     0.013 A 
ENDBRANCH  28  31
ENDBRANCH  27  28
ENDBRANCH   1  27
TORSDOF 5
ENDMDL
