MODEL 1
REMARK VINA RESULT:      -1.9      0.000      0.000
REMARK  11 active torsions:
REMARK  status: ('A' for Active; 'I' for Inactive)
REMARK    1  A    between atoms: C_8  and  S_1 
REMARK    2  A    between atoms: N_19  and  S_1 
REMARK    3  A    between atoms: S_2  and  C_9 
REMARK    4  A    between atoms: N_20  and  S_2 
REMARK    5  A    between atoms: N_14  and  C_5 
REMARK    6  A    between atoms: C_24  and  N_19 
REMARK    7  A    between atoms: C_25  and  N_20 
REMARK    8  A    between atoms: C_29  and  C_24 
REMARK    9  A    between atoms: C_28  and  C_25 
REMARK   10  A    between atoms: O_26  and  C_29 
REMARK   11  A    between atoms: O_27  and  C_28 
ROOT
ATOM      1  C   UNL d   1      33.054  20.107 -21.771  0.00  0.00     0.021 A 
ATOM      2  C   UNL d   1      32.973  21.122 -21.040  0.00  0.00     0.021 A 
ATOM      3  C   UNL d   1      33.095  20.384 -20.998  0.00  0.00     0.111 A 
ATOM      4  C   UNL d   1      32.898  20.748 -22.272  0.00  0.00     0.002 A 
ATOM      5  C   UNL d   1      32.841  21.425 -21.801  0.00  0.00     0.002 A 
ATOM      6  C   UNL d   1      33.069  19.241 -22.899  0.00  0.00     0.105 A 
ATOM      7  C   UNL d   1      32.825  22.425 -20.491  0.00  0.00     0.105 A 
ATOM      8  C   UNL d   1      32.964  21.625 -20.386  0.00  0.00     0.015 A 
ATOM      9  C   UNL d   1      33.139  19.356 -22.088  0.00  0.00     0.015 A 
ATOM     10  C   UNL d   1      32.702  22.232 -21.901  0.00  0.00     0.001 A 
ATOM     11  C   UNL d   1      32.827  20.635 -23.085  0.00  0.00     0.001 A 
ATOM     12  C   UNL d   1      32.693  22.737 -21.249  0.00  0.00     0.013 A 
ATOM     13  C   UNL d   1      32.915  19.874 -23.389  0.00  0.00     0.013 A 
ENDROOT
BRANCH   6  14
ATOM     14  S   UNL d   1      33.126  18.563 -23.370  0.00  0.00     0.285 S 
ATOM     15  O   UNL d   1      33.210  18.095 -22.693  0.00  0.00    -0.198 OA
ATOM     16  O   UNL d   1      33.041  19.037 -24.038  0.00  0.00    -0.198 OA
BRANCH  14  17
ATOM     17  N   UNL d   1      33.216  17.748 -23.446  0.00  0.00    -0.155 NA
BRANCH  17  18
ATOM     18  C   UNL d   1      32.749  17.329 -23.980  0.00  0.00     0.138 C 
BRANCH  18  19
ATOM     19  C   UNL d   1      32.452  16.578 -23.784  0.00  0.00     0.138 C 
BRANCH  19  20
ATOM     20  O   UNL d   1      31.712  16.343 -24.038  0.00  0.00    -0.325 OA
ATOM     21  C   UNL d   1      31.557  15.547 -24.202  0.00  0.00     0.182 C 
ENDBRANCH  19  20
ENDBRANCH  18  19
ENDBRANCH  17  18
ENDBRANCH  14  17
ENDBRANCH   6  14
BRANCH   3  22
ATOM     22  N   UNL d   1      33.241  19.928 -20.324  0.00  0.00    -0.096 NA
ATOM     23  O   UNL d   1      32.786  20.059 -19.639  0.00  0.00    -0.061 OA
ENDBRANCH   3  22
BRANCH   7  24
ATOM     24  S   UNL d   1      32.769  23.102 -20.020  0.00  0.00     0.285 S 
ATOM     25  O   UNL d   1      33.238  23.517 -20.560  0.00  0.00    -0.198 OA
ATOM     26  O   UNL d   1      32.300  22.688 -19.479  0.00  0.00    -0.198 OA
BRANCH  24  27
ATOM     27  N   UNL d   1      32.485  23.480 -19.343  0.00  0.00    -0.155 NA
BRANCH  27  28
ATOM     28  C   UNL d   1      32.973  23.556 -18.681  0.00  0.00     0.138 C 
BRANCH  28  29
ATOM     29  C   UNL d   1      32.702  23.310 -17.941  0.00  0.00     0.138 C 
BRANCH  29  30
ATOM     30  O   UNL d   1      33.217  23.309 -17.287  0.00  0.00    -0.325 OA
ATOM     31  C   UNL d   1      32.987  23.668 -16.589  0.00  0.00     0.182 C 
ENDBRANCH  29  30
ENDBRANCH  28  29
ENDBRANCH  27  28
ENDBRANCH  24  27
ENDBRANCH   7  24
TORSDOF 11
ENDMDL
MODEL 2
REMARK VINA RESULT:       0.0      1.015      5.999
REMARK  11 active torsions:
REMARK  status: ('A' for Active; 'I' for Inactive)
REMARK    1  A    between atoms: C_8  and  S_1 
REMARK    2  A    between atoms: N_19  and  S_1 
REMARK    3  A    between atoms: S_2  and  C_9 
REMARK    4  A    between atoms: N_20  and  S_2 
REMARK    5  A    between atoms: N_14  and  C_5 
REMARK    6  A    between atoms: C_24  and  N_19 
REMARK    7  A    between atoms: C_25  and  N_20 
REMARK    8  A    between atoms: C_29  and  C_24 
REMARK    9  A    between atoms: C_28  and  C_25 
REMARK   10  A    between atoms: O_26  and  C_29 
REMARK   11  A    between atoms: O_27  and  C_28 
ROOT
ATOM      1  C   UNL d   1      33.076  21.035 -22.114  0.00  0.00     0.021 A 
ATOM      2  C   UNL d   1      33.050  19.930 -22.705  0.00  0.00     0.021 A 
ATOM      3  C   UNL d   1      33.047  20.220 -22.014  0.00  0.00     0.111 A 
ATOM      4  C   UNL d   1      33.096  21.199 -22.926  0.00  0.00     0.002 A 
ATOM      5  C   UNL d   1      33.079  20.477 -23.328  0.00  0.00     0.002 A 
ATOM      6  C   UNL d   1      33.117  22.430 -21.840  0.00  0.00     0.105 A 
ATOM      7  C   UNL d   1      33.031  18.859 -23.640  0.00  0.00     0.105 A 
ATOM      8  C   UNL d   1      33.026  19.120 -22.864  0.00  0.00     0.015 A 
ATOM      9  C   UNL d   1      33.086  21.652 -21.575  0.00  0.00     0.015 A 
ATOM     10  C   UNL d   1      33.084  20.208 -24.108  0.00  0.00     0.001 A 
ATOM     11  C   UNL d   1      33.126  21.978 -23.194  0.00  0.00     0.001 A 
ATOM     12  C   UNL d   1      33.060  19.400 -24.270  0.00  0.00     0.013 A 
ATOM     13  C   UNL d   1      33.137  22.588 -22.640  0.00  0.00     0.013 A 
ENDROOT
BRANCH   6  14
ATOM     14  S   UNL d   1      33.134  23.152 -21.438  0.00  0.00     0.285 S 
ATOM     15  O   UNL d   1      33.241  22.755 -20.721  0.00  0.00    -0.198 OA
ATOM     16  O   UNL d   1      33.027  23.540 -22.157  0.00  0.00    -0.198 OA
BRANCH  14  17
ATOM     17  N   UNL d   1      33.201  23.584 -20.739  0.00  0.00    -0.155 NA
BRANCH  17  18
ATOM     18  C   UNL d   1      32.576  23.600 -20.202  0.00  0.00     0.138 C 
BRANCH  18  19
ATOM     19  C   UNL d   1      32.718  23.701 -19.391  0.00  0.00     0.138 C 
BRANCH  19  20
ATOM     20  O   UNL d   1      32.322  23.249 -18.837  0.00  0.00    -0.325 OA
ATOM     21  C   UNL d   1      31.571  23.471 -18.571  0.00  0.00     0.182 C 
ENDBRANCH  19  20
ENDBRANCH  18  19
ENDBRANCH  17  18
ENDBRANCH  14  17
ENDBRANCH   6  14
BRANCH   3  22
ATOM     22  N   UNL d   1      33.021  19.818 -21.291  0.00  0.00    -0.096 NA
ATOM     23  O   UNL d   1      32.325  19.850 -20.835  0.00  0.00    -0.061 OA
ENDBRANCH   3  22
BRANCH   7  24
ATOM     24  S   UNL d   1      33.014  18.137 -24.042  0.00  0.00     0.285 S 
ATOM     25  O   UNL d   1      32.788  18.527 -24.734  0.00  0.00    -0.198 OA
ATOM     26  O   UNL d   1      33.241  17.746 -23.349  0.00  0.00    -0.198 OA
BRANCH  24  27
ATOM     27  N   UNL d   1      33.113  17.317 -24.042  0.00  0.00    -0.155 NA
BRANCH  27  28
ATOM     28  C   UNL d   1      32.631  16.846 -24.517  0.00  0.00     0.138 C 
BRANCH  28  29
ATOM     29  C   UNL d   1      32.460  16.072 -24.288  0.00  0.00     0.138 C 
BRANCH  29  30
ATOM     30  O   UNL d   1      31.893  15.628 -24.707  0.00  0.00    -0.325 OA
ATOM     31  C   UNL d   1      31.138  15.544 -24.404  0.00  0.00     0.182 C 
ENDBRANCH  29  30
ENDBRANCH  28  29
ENDBRANCH  27  28
ENDBRANCH  24  27
ENDBRANCH   7  24
TORSDOF 11
ENDMDL
