MODEL 1
REMARK VINA RESULT:      28.4      0.000      0.000
REMARK  4 active torsions:
REMARK  status: ('A' for Active; 'I' for Inactive)
REMARK    1  A    between atoms: C_2  and  S_1 
REMARK    2  A    between atoms: N_4  and  S_1 
REMARK    3  A    between atoms: C_11  and  N_4 
REMARK    4  A    between atoms: C_9  and  C_11 
ROOT
ATOM      1  S   UNL d   1     -51.443  25.226  33.350  0.00  0.00     0.285 S 
ATOM      2  O   UNL d   1     -52.212  25.522  33.309  0.00  0.00    -0.198 OA
ATOM      3  O   UNL d   1     -50.674  24.930  33.392  0.00  0.00    -0.198 OA
ENDROOT
BRANCH   1   4
ATOM      4  C   UNL d   1     -51.149  25.996  33.392  0.00  0.00     0.105 A 
ATOM      5  C   UNL d   1     -50.330  26.126  33.381  0.00  0.00     0.012 A 
ATOM      6  C   UNL d   1     -50.037  26.895  33.422  0.00  0.00     0.001 A 
ATOM      7  C   UNL d   1     -49.810  25.488  33.327  0.00  0.00     0.001 C 
ATOM      8  C   UNL d   1     -49.222  27.027  33.411  0.00  0.00     0.000 C 
ATOM      9  C   UNL d   1     -50.561  27.535  33.476  0.00  0.00     0.000 A 
ATOM     10  C   UNL d   1     -51.375  27.403  33.487  0.00  0.00     0.001 A 
ATOM     11  C   UNL d   1     -50.267  28.305  33.518  0.00  0.00     0.000 C 
ATOM     12  C   UNL d   1     -51.669  26.634  33.445  0.00  0.00     0.013 A 
ENDBRANCH   1   4
BRANCH   1  13
ATOM     13  N   UNL d   1     -51.737  24.456  33.308  0.00  0.00    -0.155 NA
BRANCH  13  14
ATOM     14  C   UNL d   1     -51.981  24.070  34.000  0.00  0.00     0.137 C 
BRANCH  14  15
ATOM     15  C   UNL d   1     -52.752  23.783  34.060  0.00  0.00     0.120 A 
ATOM     16  O   UNL d   1     -53.157  23.364  33.478  0.00  0.00    -0.304 OA
ATOM     17  C   UNL d   1     -53.904  23.189  33.771  0.00  0.00     0.123 A 
ATOM     18  C   UNL d   1     -53.961  23.500  34.533  0.00  0.00     0.029 A 
ATOM     19  C   UNL d   1     -53.248  23.867  34.710  0.00  0.00     0.028 A 
ENDBRANCH  14  15
ENDBRANCH  13  14
ENDBRANCH   1  13
TORSDOF 4
ENDMDL
