MODEL 1
REMARK VINA RESULT:      43.6      0.000      0.000
REMARK  3 active torsions:
REMARK  status: ('A' for Active; 'I' for Inactive)
REMARK    1  A    between atoms: C_6  and  C_2 
REMARK    2  A    between atoms: C_8  and  C_3 
REMARK    3  A    between atoms: C_7  and  C_6 
ROOT
ATOM      1  N   UNL d   1     -47.714  30.208  34.904  0.00  0.00    -0.238 NA
ATOM      2  C   UNL d   1     -47.547  29.675  35.509  0.00  0.00     0.113 A 
ATOM      3  C   UNL d   1     -47.560  30.996  35.174  0.00  0.00     0.088 A 
ATOM      4  S   UNL d   1     -47.290  30.123  36.156  0.00  0.00    -0.066 SA
ATOM      5  C   UNL d   1     -47.291  30.910  35.975  0.00  0.00     0.056 A 
ENDROOT
BRANCH   3   6
ATOM      6  C   UNL d   1     -47.671  31.653  34.706  0.00  0.00     0.018 A 
ATOM      7  C   UNL d   1     -48.333  31.752  34.249  0.00  0.00     0.002 A 
ATOM      8  C   UNL d   1     -48.443  32.408  33.780  0.00  0.00     0.011 A 
ATOM      9  C   UNL d   1     -47.849  33.004  33.771  0.00  0.00     0.058 A 
ATOM     10  C   UNL d   1     -47.173  32.915  34.230  0.00  0.00     0.011 A 
ATOM     11 CL   UNL d   1     -47.932  33.682  33.306  0.00  0.00    -0.082 Cl
ATOM     12  C   UNL d   1     -47.073  32.242  34.702  0.00  0.00     0.002 A 
ENDBRANCH   3   6
BRANCH   2  13
ATOM     13  C   UNL d   1     -47.618  28.854  35.490  0.00  0.00     0.058 C 
BRANCH  13  14
ATOM     14  C   UNL d   1     -48.354  28.501  35.540  0.00  0.00     0.159 C 
ATOM     15  S   UNL d   1     -48.829  28.243  34.866  0.00  0.00    -0.055 SA
ATOM     16  N   UNL d   1     -48.610  28.407  36.257  0.00  0.00    -0.136 N 
ENDBRANCH  13  14
ENDBRANCH   2  13
TORSDOF 3
ENDMDL
