MODEL 1
REMARK VINA RESULT:      73.2      0.000      0.000
REMARK  9 active torsions:
REMARK  status: ('A' for Active; 'I' for Inactive)
REMARK    1  A    between atoms: C_22  and  N_1 
REMARK    2  A    between atoms: S_10  and  C_2 
REMARK    3  A    between atoms: N_8  and  C_9 
REMARK    4  A    between atoms: C_24  and  S_10 
REMARK    5  A    between atoms: C_11  and  C_24 
REMARK       I    between atoms: N_15  and  C_11 
REMARK    6  A    between atoms: C_13  and  C_25 
REMARK    7  A    between atoms: C_25  and  N_15 
REMARK    8  A    between atoms: C_30  and  C_22 
REMARK    9  A    between atoms: C_31  and  C_30 
ROOT
ATOM      1  N   UNL d   1     -49.930  26.265  33.626  0.00  0.00    -0.253 N 
ATOM      2  C   UNL d   1     -50.230  27.032  33.575  0.00  0.00     0.182 A 
ATOM      3  C   UNL d   1     -50.451  25.618  33.635  0.00  0.00     0.268 A 
ATOM      4  C   UNL d   1     -51.264  25.740  33.594  0.00  0.00     0.076 A 
ATOM      5  N   UNL d   1     -51.052  27.152  33.534  0.00  0.00    -0.222 NA
ATOM      6  C   UNL d   1     -51.564  26.507  33.544  0.00  0.00     0.088 A 
ATOM      7  C   UNL d   1     -51.776  25.096  33.603  0.00  0.00     0.024 A 
ATOM      8  C   UNL d   1     -52.590  25.218  33.562  0.00  0.00     0.065 A 
ATOM      9  O   UNL d   1     -50.150  24.852  33.685  0.00  0.00    -0.267 OA
ATOM     10  C   UNL d   1     -52.377  26.630  33.503  0.00  0.00     0.021 A 
ATOM     11  C   UNL d   1     -52.890  25.985  33.512  0.00  0.00     0.019 A 
ENDROOT
BRANCH   2  12
ATOM     12  S   UNL d   1     -49.716  27.681  33.566  0.00  0.00    -0.044 SA
BRANCH  12  13
ATOM     13  C   UNL d   1     -49.493  28.049  34.281  0.00  0.00     0.101 C 
BRANCH  13  14
ATOM     14  C   UNL d   1     -48.948  28.672  34.270  0.00  0.00     0.286 C 
ATOM     15  N   UNL d   1     -48.231  28.597  34.681  0.00  0.00    -0.204 NA
ATOM     16  O   UNL d   1     -49.122  29.361  33.851  0.00  0.00    -0.265 OA
BRANCH  15  17
ATOM     17  C   UNL d   1     -47.683  29.225  34.669  0.00  0.00     0.127 C 
BRANCH  17  18
ATOM     18  C   UNL d   1     -47.470  29.597  35.381  0.00  0.00     0.119 A 
ATOM     19  O   UNL d   1     -47.671  29.446  36.161  0.00  0.00    -0.304 OA
ATOM     20  C   UNL d   1     -47.290  30.003  36.638  0.00  0.00     0.123 A 
ATOM     21  C   UNL d   1     -46.851  30.502  36.154  0.00  0.00     0.029 A 
ATOM     22  C   UNL d   1     -46.964  30.248  35.373  0.00  0.00     0.028 A 
ENDBRANCH  17  18
ENDBRANCH  15  17
ENDBRANCH  13  14
ENDBRANCH  12  13
ENDBRANCH   2  12
BRANCH   1  23
ATOM     23  C   UNL d   1     -49.114  26.144  33.666  0.00  0.00     0.085 C 
BRANCH  23  24
ATOM     24  C   UNL d   1     -48.810  25.377  33.653  0.00  0.00     0.019 C 
BRANCH  24  25
ATOM     25  C   UNL d   1     -48.032  25.246  33.392  0.00  0.00     0.002 C 
ATOM     26  C   UNL d   1     -47.748  24.463  33.308  0.00  0.00     0.000 C 
ENDBRANCH  24  25
ENDBRANCH  23  24
ENDBRANCH   1  23
BRANCH   8  27
ATOM     27  N   UNL d   1     -53.102  24.575  33.572  0.00  0.00    -0.300 N 
ATOM     28  C   UNL d   1     -52.837  23.834  33.848  0.00  0.00     0.107 A 
ATOM     29  C   UNL d   1     -53.350  23.190  33.857  0.00  0.00     0.142 A 
ATOM     30  O   UNL d   1     -54.136  23.273  33.591  0.00  0.00    -0.300 OA
ATOM     31  C   UNL d   1     -54.401  24.014  33.314  0.00  0.00     0.142 A 
ATOM     32  C   UNL d   1     -53.880  24.661  33.307  0.00  0.00     0.107 A 
ENDBRANCH   8  27
TORSDOF 9
ENDMDL
