MODEL 1
REMARK VINA RESULT:      41.9      0.000      0.000
REMARK  4 active torsions:
REMARK  status: ('A' for Active; 'I' for Inactive)
REMARK    1  A    between atoms: C_7  and  C_3 
REMARK    2  A    between atoms: S_6  and  C_7 
REMARK    3  A    between atoms: C_9  and  S_6 
REMARK    4  A    between atoms: C_8  and  C_9 
ROOT
ATOM      1  N   UNL d   1     -51.120  25.928  33.307  0.00  0.00    -0.225 NA
ATOM      2  N   UNL d   1     -50.096  25.031  33.317  0.00  0.00    -0.225 NA
ATOM      3  C   UNL d   1     -50.284  25.848  33.312  0.00  0.00     0.169 A 
ATOM      4  C   UNL d   1     -51.439  25.155  33.309  0.00  0.00     0.101 A 
ATOM      5  C   UNL d   1     -50.816  24.599  33.315  0.00  0.00     0.101 A 
ATOM      6  C   UNL d   1     -52.231  24.888  33.306  0.00  0.00     0.021 A 
ATOM      7  C   UNL d   1     -50.997  23.788  33.319  0.00  0.00     0.021 A 
ATOM      8  C   UNL d   1     -51.776  23.536  33.316  0.00  0.00     0.002 A 
ATOM      9  C   UNL d   1     -52.393  24.087  33.309  0.00  0.00     0.002 A 
ENDROOT
BRANCH   3  10
ATOM     10  C   UNL d   1     -50.116  26.655  33.309  0.00  0.00     0.074 C 
BRANCH  10  11
ATOM     11  S   UNL d   1     -49.613  26.973  33.880  0.00  0.00    -0.083 SA
BRANCH  11  12
ATOM     12  C   UNL d   1     -49.740  27.739  34.159  0.00  0.00     0.035 C 
BRANCH  12  13
ATOM     13  C   UNL d   1     -49.158  28.116  34.605  0.00  0.00     0.006 A 
ATOM     14  C   UNL d   1     -48.855  28.842  34.348  0.00  0.00     0.001 A 
ATOM     15  C   UNL d   1     -48.272  29.219  34.793  0.00  0.00     0.000 A 
ATOM     16  C   UNL d   1     -47.996  28.872  35.489  0.00  0.00     0.000 A 
ATOM     17  C   UNL d   1     -48.304  28.146  35.739  0.00  0.00     0.000 A 
ATOM     18  C   UNL d   1     -48.887  27.769  35.294  0.00  0.00     0.001 A 
ENDBRANCH  12  13
ENDBRANCH  11  12
ENDBRANCH  10  11
ENDBRANCH   3  10
TORSDOF 4
ENDMDL
MODEL 2
REMARK VINA RESULT:      43.3      0.776      1.402
REMARK  4 active torsions:
REMARK  status: ('A' for Active; 'I' for Inactive)
REMARK    1  A    between atoms: C_7  and  C_3 
REMARK    2  A    between atoms: S_6  and  C_7 
REMARK    3  A    between atoms: C_9  and  S_6 
REMARK    4  A    between atoms: C_8  and  C_9 
ROOT
ATOM      1  N   UNL d   1     -49.797  26.286  33.395  0.00  0.00    -0.225 NA
ATOM      2  N   UNL d   1     -50.938  27.028  33.396  0.00  0.00    -0.225 NA
ATOM      3  C   UNL d   1     -50.101  27.069  33.415  0.00  0.00     0.169 A 
ATOM      4  C   UNL d   1     -50.452  25.769  33.363  0.00  0.00     0.101 A 
ATOM      5  C   UNL d   1     -51.157  26.217  33.363  0.00  0.00     0.101 A 
ATOM      6  C   UNL d   1     -50.493  24.936  33.334  0.00  0.00     0.021 A 
ATOM      7  C   UNL d   1     -51.888  25.823  33.334  0.00  0.00     0.021 A 
ATOM      8  C   UNL d   1     -51.918  25.006  33.306  0.00  0.00     0.002 A 
ATOM      9  C   UNL d   1     -51.220  24.562  33.306  0.00  0.00     0.002 A 
ENDROOT
BRANCH   3  10
ATOM     10  C   UNL d   1     -49.370  27.449  33.444  0.00  0.00     0.074 C 
BRANCH  10  11
ATOM     11  S   UNL d   1     -49.257  28.084  33.957  0.00  0.00    -0.083 SA
BRANCH  11  12
ATOM     12  C   UNL d   1     -48.735  28.012  34.592  0.00  0.00     0.035 C 
BRANCH  12  13
ATOM     13  C   UNL d   1     -48.371  28.683  34.904  0.00  0.00     0.006 A 
ATOM     14  C   UNL d   1     -48.551  29.427  34.590  0.00  0.00     0.001 A 
ATOM     15  C   UNL d   1     -48.187  30.098  34.902  0.00  0.00     0.000 A 
ATOM     16  C   UNL d   1     -47.648  30.024  35.522  0.00  0.00     0.000 A 
ATOM     17  C   UNL d   1     -47.473  29.277  35.831  0.00  0.00     0.000 A 
ATOM     18  C   UNL d   1     -47.837  28.605  35.519  0.00  0.00     0.001 A 
ENDBRANCH  12  13
ENDBRANCH  11  12
ENDBRANCH  10  11
ENDBRANCH   3  10
TORSDOF 4
ENDMDL
