MODEL 1
REMARK VINA RESULT:      -5.5      0.000      0.000
REMARK  5 active torsions:
REMARK  status: ('A' for Active; 'I' for Inactive)
REMARK    1  A    between atoms: N_3  and  C_1 
REMARK    2  A    between atoms: N_6  and  C_1 
REMARK       I    between atoms: C_2  and  N_4 
REMARK    3  A    between atoms: C_5  and  C_2 
REMARK    4  A    between atoms: C_7  and  N_3 
REMARK    5  A    between atoms: N_4  and  N_6 
ROOT
ATOM      1  N   UNL d   1      57.575   0.223  31.181  0.00  0.00    -0.273 N 
ATOM      2  H   UNL d   1      57.048   0.697  30.753  0.00  0.00     0.189 HD
ENDROOT
BRANCH   1   3
ATOM      3  N   UNL d   1      58.169  -0.194  30.792  0.00  0.00    -0.264 N 
ATOM      4  C   UNL d   1      58.218  -0.152  29.974  0.00  0.00     0.272 C 
ATOM      5  O   UNL d   1      57.677   0.304  29.544  0.00  0.00    -0.266 OA
ATOM      6  H   UNL d   1      58.702  -0.643  31.216  0.00  0.00     0.190 HD
BRANCH   4   7
ATOM      7  C   UNL d   1      58.809  -0.564  29.561  0.00  0.00     0.058 A 
ATOM      8  C   UNL d   1      58.696  -1.341  29.341  0.00  0.00     0.011 A 
ATOM      9  C   UNL d   1      59.297  -1.730  28.931  0.00  0.00     0.035 A 
ATOM     10 BR   UNL d   1      59.207  -2.518  28.697  0.00  0.00    -0.049 Br
ATOM     11  C   UNL d   1      60.006  -1.335  28.747  0.00  0.00     0.007 A 
ATOM     12  C   UNL d   1      60.116  -0.548  28.973  0.00  0.00     0.001 A 
ATOM     13  C   UNL d   1      59.519  -0.169  29.377  0.00  0.00     0.005 A 
ENDBRANCH   4   7
ENDBRANCH   1   3
BRANCH   1  14
ATOM     14  C   UNL d   1      57.514   0.161  31.992  0.00  0.00     0.191 C 
ATOM     15  S   UNL d   1      57.909   0.682  32.480  0.00  0.00    -0.039 SA
BRANCH  14  16
ATOM     16  N   UNL d   1      57.041  -0.446  32.327  0.00  0.00    -0.331 N 
ATOM     17  H   UNL d   1      57.210  -1.239  32.158  0.00  0.00     0.168 HD
BRANCH  16  18
ATOM     18  C   UNL d   1      56.415  -0.250  32.820  0.00  0.00     0.058 A 
ATOM     19  C   UNL d   1      55.821  -0.805  32.956  0.00  0.00     0.016 A 
ATOM     20  C   UNL d   1      55.856  -1.551  32.599  0.00  0.00     0.002 C 
ATOM     21  C   UNL d   1      55.201  -0.607  33.445  0.00  0.00     0.001 A 
ATOM     22  C   UNL d   1      55.166   0.129  33.797  0.00  0.00     0.000 A 
ATOM     23  C   UNL d   1      55.750   0.682  33.666  0.00  0.00     0.002 A 
ATOM     24  C   UNL d   1      56.380   0.486  33.171  0.00  0.00     0.017 A 
ENDBRANCH  16  18
ENDBRANCH  14  16
ENDBRANCH   1  14
TORSDOF 5
ENDMDL
MODEL 2
REMARK VINA RESULT:      -2.9      1.108      1.414
REMARK  5 active torsions:
REMARK  status: ('A' for Active; 'I' for Inactive)
REMARK    1  A    between atoms: N_3  and  C_1 
REMARK    2  A    between atoms: N_6  and  C_1 
REMARK       I    between atoms: C_2  and  N_4 
REMARK    3  A    between atoms: C_5  and  C_2 
REMARK    4  A    between atoms: C_7  and  N_3 
REMARK    5  A    between atoms: N_4  and  N_6 
ROOT
ATOM      1  N   UNL d   1      57.426  -0.734  31.165  0.00  0.00    -0.273 N 
ATOM      2  H   UNL d   1      57.151  -1.470  31.428  0.00  0.00     0.189 HD
ENDROOT
BRANCH   1   3
ATOM      3  N   UNL d   1      58.023  -0.691  30.600  0.00  0.00    -0.264 N 
ATOM      4  C   UNL d   1      58.221  -1.364  30.175  0.00  0.00     0.272 C 
ATOM      5  O   UNL d   1      57.826  -2.079  30.312  0.00  0.00    -0.266 OA
ATOM      6  H   UNL d   1      58.412   0.013  30.465  0.00  0.00     0.190 HD
BRANCH   4   7
ATOM      7  C   UNL d   1      58.821  -1.343  29.599  0.00  0.00     0.058 A 
ATOM      8  C   UNL d   1      59.171  -0.637  29.391  0.00  0.00     0.011 A 
ATOM      9  C   UNL d   1      59.764  -0.641  28.818  0.00  0.00     0.035 A 
ATOM     10 BR   UNL d   1      60.135   0.062  28.589  0.00  0.00    -0.049 Br
ATOM     11  C   UNL d   1      59.999  -1.355  28.459  0.00  0.00     0.007 A 
ATOM     12  C   UNL d   1      59.641  -2.067  28.674  0.00  0.00     0.001 A 
ATOM     13  C   UNL d   1      59.056  -2.058  29.241  0.00  0.00     0.005 A 
ENDBRANCH   4   7
ENDBRANCH   1   3
BRANCH   1  14
ATOM     14  C   UNL d   1      57.111  -0.043  31.461  0.00  0.00     0.191 C 
ATOM     15  S   UNL d   1      57.387   0.682  31.207  0.00  0.00    -0.039 SA
BRANCH  14  16
ATOM     16  N   UNL d   1      56.496  -0.078  32.031  0.00  0.00    -0.331 N 
ATOM     17  H   UNL d   1      55.740  -0.329  31.805  0.00  0.00     0.168 HD
BRANCH  16  18
ATOM     18  C   UNL d   1      56.648   0.136  32.808  0.00  0.00     0.058 A 
ATOM     19  C   UNL d   1      56.067   0.015  33.381  0.00  0.00     0.016 A 
ATOM     20  C   UNL d   1      55.338  -0.319  33.172  0.00  0.00     0.002 C 
ATOM     21  C   UNL d   1      56.221   0.228  34.151  0.00  0.00     0.001 A 
ATOM     22  C   UNL d   1      56.939   0.557  34.357  0.00  0.00     0.000 A 
ATOM     23  C   UNL d   1      57.518   0.679  33.796  0.00  0.00     0.002 A 
ATOM     24  C   UNL d   1      57.366   0.465  33.014  0.00  0.00     0.017 A 
ENDBRANCH  16  18
ENDBRANCH  14  16
ENDBRANCH   1  14
TORSDOF 5
ENDMDL
MODEL 3
REMARK VINA RESULT:      -2.9      1.191      1.736
REMARK  5 active torsions:
REMARK  status: ('A' for Active; 'I' for Inactive)
REMARK    1  A    between atoms: N_3  and  C_1 
REMARK    2  A    between atoms: N_6  and  C_1 
REMARK       I    between atoms: C_2  and  N_4 
REMARK    3  A    between atoms: C_5  and  C_2 
REMARK    4  A    between atoms: C_7  and  N_3 
REMARK    5  A    between atoms: N_4  and  N_6 
ROOT
ATOM      1  N   UNL d   1      56.801  -0.142  32.297  0.00  0.00    -0.273 N 
ATOM      2  H   UNL d   1      56.363  -0.844  32.306  0.00  0.00     0.189 HD
ENDROOT
BRANCH   1   3
ATOM      3  N   UNL d   1      57.272   0.046  31.647  0.00  0.00    -0.264 N 
ATOM      4  C   UNL d   1      57.367  -0.507  31.048  0.00  0.00     0.272 C 
ATOM      5  O   UNL d   1      56.994  -1.244  31.095  0.00  0.00    -0.266 OA
ATOM      6  H   UNL d   1      57.639   0.773  31.601  0.00  0.00     0.190 HD
BRANCH   4   7
ATOM      7  C   UNL d   1      57.837  -0.339  30.384  0.00  0.00     0.058 A 
ATOM      8  C   UNL d   1      58.452  -0.831  30.178  0.00  0.00     0.011 A 
ATOM      9  C   UNL d   1      58.906  -0.645  29.514  0.00  0.00     0.035 A 
ATOM     10 BR   UNL d   1      59.536  -1.128  29.283  0.00  0.00    -0.049 Br
ATOM     11  C   UNL d   1      58.735   0.036  29.065  0.00  0.00     0.007 A 
ATOM     12  C   UNL d   1      58.111   0.531  29.279  0.00  0.00     0.001 A 
ATOM     13  C   UNL d   1      57.666   0.342  29.935  0.00  0.00     0.005 A 
ENDBRANCH   4   7
ENDBRANCH   1   3
BRANCH   1  14
ATOM     14  C   UNL d   1      56.775   0.374  32.927  0.00  0.00     0.191 C 
ATOM     15  S   UNL d   1      57.458   0.594  33.315  0.00  0.00    -0.039 SA
BRANCH  14  16
ATOM     16  N   UNL d   1      56.036   0.682  33.180  0.00  0.00    -0.331 N 
ATOM     17  H   UNL d   1      55.506   0.988  32.622  0.00  0.00     0.168 HD
BRANCH  16  18
ATOM     18  C   UNL d   1      55.844   0.678  33.978  0.00  0.00     0.058 A 
ATOM     19  C   UNL d   1      55.050   0.671  34.201  0.00  0.00     0.016 A 
ATOM     20  C   UNL d   1      54.454   0.669  33.625  0.00  0.00     0.002 C 
ATOM     21  C   UNL d   1      54.863   0.667  34.993  0.00  0.00     0.001 A 
ATOM     22  C   UNL d   1      55.450   0.670  35.560  0.00  0.00     0.000 A 
ATOM     23  C   UNL d   1      56.236   0.676  35.346  0.00  0.00     0.002 A 
ATOM     24  C   UNL d   1      56.431   0.680  34.545  0.00  0.00     0.017 A 
ENDBRANCH  16  18
ENDBRANCH  14  16
ENDBRANCH   1  14
TORSDOF 5
ENDMDL
