MODEL 1
REMARK VINA RESULT:      -2.5      0.000      0.000
REMARK  5 active torsions:
REMARK  status: ('A' for Active; 'I' for Inactive)
REMARK    1  A    between atoms: N_2  and  S_1 
REMARK    2  A    between atoms: C_7  and  S_1 
REMARK    3  A    between atoms: C_3  and  N_2 
REMARK    4  A    between atoms: C_6  and  O_8 
REMARK    5  A    between atoms: O_8  and  C_9 
ROOT
ATOM      1  C   UNL d   1      32.891  19.960 -22.982  0.00  0.00     0.117 A 
ATOM      2  C   UNL d   1      32.937  19.268 -23.427  0.00  0.00     0.118 A 
ATOM      3  C   UNL d   1      33.022  20.683 -23.362  0.00  0.00     0.022 A 
ATOM      4  C   UNL d   1      33.107  19.295 -24.230  0.00  0.00     0.026 A 
ATOM      5  C   UNL d   1      33.192  20.710 -24.164  0.00  0.00     0.002 A 
ATOM      6  C   UNL d   1      33.236  20.015 -24.606  0.00  0.00     0.002 A 
ENDROOT
BRANCH   1   7
ATOM      7  N   UNL d   1      32.721  19.933 -22.178  0.00  0.00    -0.156 NA
BRANCH   7   8
ATOM      8  S   UNL d   1      32.707  20.626 -21.735  0.00  0.00     0.285 S 
ATOM      9  O   UNL d   1      32.162  20.963 -22.283  0.00  0.00    -0.198 OA
ATOM     10  O   UNL d   1      33.240  20.294 -21.197  0.00  0.00    -0.198 OA
BRANCH   8  11
ATOM     11  C   UNL d   1      32.690  21.337 -21.282  0.00  0.00     0.105 A 
ATOM     12  C   UNL d   1      32.148  21.411 -20.658  0.00  0.00     0.013 A 
ATOM     13  C   UNL d   1      32.139  22.111 -20.219  0.00  0.00     0.001 A 
ATOM     14  C   UNL d   1      32.669  22.738 -20.400  0.00  0.00     0.000 A 
ATOM     15  C   UNL d   1      33.198  22.652 -21.017  0.00  0.00     0.001 A 
ATOM     16  C   UNL d   1      33.221  21.964 -21.463  0.00  0.00     0.013 A 
ENDBRANCH   8  11
ENDBRANCH   7   8
ENDBRANCH   1   7
BRANCH   2  17
ATOM     17  O   UNL d   1      32.802  18.526 -23.033  0.00  0.00    -0.306 OA
BRANCH  17  18
ATOM     18  C   UNL d   1      32.477  17.887 -23.433  0.00  0.00     0.100 A 
ATOM     19  C   UNL d   1      31.726  17.947 -23.784  0.00  0.00     0.025 A 
ATOM     20  C   UNL d   1      31.413  17.292 -24.185  0.00  0.00     0.002 A 
ATOM     21  C   UNL d   1      30.742  17.311 -24.511  0.00  0.00     0.000 C 
ATOM     22  C   UNL d   1      31.840  16.589 -24.236  0.00  0.00     0.000 A 
ATOM     23  C   UNL d   1      32.588  16.542 -23.882  0.00  0.00     0.002 A 
ATOM     24  C   UNL d   1      32.896  17.197 -23.483  0.00  0.00     0.025 A 
ATOM     25  C   UNL d   1      32.925  15.858 -23.970  0.00  0.00     0.000 C 
ENDBRANCH  17  18
ENDBRANCH   2  17
TORSDOF 5
ENDMDL
MODEL 2
REMARK VINA RESULT:      -1.6      1.038      4.587
REMARK  5 active torsions:
REMARK  status: ('A' for Active; 'I' for Inactive)
REMARK    1  A    between atoms: N_2  and  S_1 
REMARK    2  A    between atoms: C_7  and  S_1 
REMARK    3  A    between atoms: C_3  and  N_2 
REMARK    4  A    between atoms: C_6  and  O_8 
REMARK    5  A    between atoms: O_8  and  C_9 
ROOT
ATOM      1  C   UNL d   1      33.145  19.288 -23.788  0.00  0.00     0.117 A 
ATOM      2  C   UNL d   1      33.201  20.025 -23.424  0.00  0.00     0.118 A 
ATOM      3  C   UNL d   1      33.130  19.256 -24.614  0.00  0.00     0.022 A 
ATOM      4  C   UNL d   1      33.241  20.713 -23.871  0.00  0.00     0.026 A 
ATOM      5  C   UNL d   1      33.170  19.943 -25.061  0.00  0.00     0.002 A 
ATOM      6  C   UNL d   1      33.226  20.679 -24.692  0.00  0.00     0.002 A 
ENDROOT
BRANCH   1   7
ATOM      7  N   UNL d   1      33.105  18.599 -23.341  0.00  0.00    -0.156 NA
BRANCH   7   8
ATOM      8  S   UNL d   1      32.594  17.992 -23.560  0.00  0.00     0.285 S 
ATOM      9  O   UNL d   1      33.236  17.591 -23.931  0.00  0.00    -0.198 OA
ATOM     10  O   UNL d   1      31.966  18.387 -23.195  0.00  0.00    -0.198 OA
BRANCH   8  11
ATOM     11  C   UNL d   1      32.073  17.369 -23.785  0.00  0.00     0.105 A 
ATOM     12  C   UNL d   1      31.310  17.553 -24.055  0.00  0.00     0.013 A 
ATOM     13  C   UNL d   1      30.806  16.935 -24.274  0.00  0.00     0.001 A 
ATOM     14  C   UNL d   1      31.061  16.135 -24.225  0.00  0.00     0.000 A 
ATOM     15  C   UNL d   1      31.815  15.968 -23.958  0.00  0.00     0.001 A 
ATOM     16  C   UNL d   1      32.328  16.569 -23.737  0.00  0.00     0.013 A 
ENDBRANCH   8  11
ENDBRANCH   7   8
ENDBRANCH   1   7
BRANCH   2  17
ATOM     17  O   UNL d   1      33.216  20.054 -22.573  0.00  0.00    -0.306 OA
BRANCH  17  18
ATOM     18  C   UNL d   1      33.012  20.739 -22.170  0.00  0.00     0.100 A 
ATOM     19  C   UNL d   1      33.232  21.484 -22.465  0.00  0.00     0.025 A 
ATOM     20  C   UNL d   1      33.017  22.165 -22.044  0.00  0.00     0.002 A 
ATOM     21  C   UNL d   1      33.199  22.850 -22.280  0.00  0.00     0.000 C 
ATOM     22  C   UNL d   1      32.590  22.108 -21.342  0.00  0.00     0.000 A 
ATOM     23  C   UNL d   1      32.375  21.359 -21.059  0.00  0.00     0.002 A 
ATOM     24  C   UNL d   1      32.591  20.682 -21.481  0.00  0.00     0.025 A 
ATOM     25  C   UNL d   1      31.980  21.383 -20.402  0.00  0.00     0.000 C 
ENDBRANCH  17  18
ENDBRANCH   2  17
TORSDOF 5
ENDMDL
MODEL 3
REMARK VINA RESULT:      -0.4      1.552      4.893
REMARK  5 active torsions:
REMARK  status: ('A' for Active; 'I' for Inactive)
REMARK    1  A    between atoms: N_2  and  S_1 
REMARK    2  A    between atoms: C_7  and  S_1 
REMARK    3  A    between atoms: C_3  and  N_2 
REMARK    4  A    between atoms: C_6  and  O_8 
REMARK    5  A    between atoms: O_8  and  C_9 
ROOT
ATOM      1  C   UNL d   1      32.897  19.164 -23.311  0.00  0.00     0.117 A 
ATOM      2  C   UNL d   1      33.113  19.953 -23.206  0.00  0.00     0.118 A 
ATOM      3  C   UNL d   1      32.812  18.686 -22.642  0.00  0.00     0.022 A 
ATOM      4  C   UNL d   1      33.241  20.257 -22.454  0.00  0.00     0.026 A 
ATOM      5  C   UNL d   1      32.940  18.990 -21.890  0.00  0.00     0.002 A 
ATOM      6  C   UNL d   1      33.156  19.780 -21.790  0.00  0.00     0.002 A 
ENDROOT
BRANCH   1   7
ATOM      7  N   UNL d   1      32.769  18.860 -24.064  0.00  0.00    -0.156 NA
BRANCH   7   8
ATOM      8  S   UNL d   1      32.462  18.102 -24.157  0.00  0.00     0.285 S 
ATOM      9  O   UNL d   1      33.232  17.779 -24.044  0.00  0.00    -0.198 OA
ATOM     10  O   UNL d   1      31.707  18.421 -24.268  0.00  0.00    -0.198 OA
BRANCH   8  11
ATOM     11  C   UNL d   1      32.149  17.325 -24.252  0.00  0.00     0.105 A 
ATOM     12  C   UNL d   1      32.658  16.671 -24.195  0.00  0.00     0.013 A 
ATOM     13  C   UNL d   1      32.343  15.913 -24.290  0.00  0.00     0.001 A 
ATOM     14  C   UNL d   1      31.522  15.805 -24.442  0.00  0.00     0.000 A 
ATOM     15  C   UNL d   1      31.033  16.457 -24.496  0.00  0.00     0.001 A 
ATOM     16  C   UNL d   1      31.329  17.217 -24.404  0.00  0.00     0.013 A 
ENDBRANCH   8  11
ENDBRANCH   7   8
ENDBRANCH   1   7
BRANCH   2  17
ATOM     17  O   UNL d   1      33.199  20.443 -23.897  0.00  0.00    -0.306 OA
BRANCH  17  18
ATOM     18  C   UNL d   1      33.155  21.261 -23.843  0.00  0.00     0.100 A 
ATOM     19  C   UNL d   1      33.050  21.630 -23.107  0.00  0.00     0.025 A 
ATOM     20  C   UNL d   1      33.007  22.458 -23.072  0.00  0.00     0.002 A 
ATOM     21  C   UNL d   1      32.913  22.823 -22.428  0.00  0.00     0.000 C 
ATOM     22  C   UNL d   1      33.068  22.910 -23.758  0.00  0.00     0.000 A 
ATOM     23  C   UNL d   1      33.173  22.529 -24.487  0.00  0.00     0.002 A 
ATOM     24  C   UNL d   1      33.215  21.704 -24.518  0.00  0.00     0.025 A 
ATOM     25  C   UNL d   1      33.221  23.013 -25.081  0.00  0.00     0.000 C 
ENDBRANCH  17  18
ENDBRANCH   2  17
TORSDOF 5
ENDMDL
MODEL 4
REMARK VINA RESULT:       0.1      3.749      6.064
REMARK  5 active torsions:
REMARK  status: ('A' for Active; 'I' for Inactive)
REMARK    1  A    between atoms: N_2  and  S_1 
REMARK    2  A    between atoms: C_7  and  S_1 
REMARK    3  A    between atoms: C_3  and  N_2 
REMARK    4  A    between atoms: C_6  and  O_8 
REMARK    5  A    between atoms: O_8  and  C_9 
ROOT
ATOM      1  C   UNL d   1      32.267  22.769 -20.990  0.00  0.00     0.117 A 
ATOM      2  C   UNL d   1      32.345  22.709 -20.172  0.00  0.00     0.118 A 
ATOM      3  C   UNL d   1      32.077  22.088 -21.419  0.00  0.00     0.022 A 
ATOM      4  C   UNL d   1      32.238  21.990 -19.790  0.00  0.00     0.026 A 
ATOM      5  C   UNL d   1      31.970  21.369 -21.037  0.00  0.00     0.002 A 
ATOM      6  C   UNL d   1      32.049  21.314 -20.218  0.00  0.00     0.002 A 
ENDROOT
BRANCH   1   7
ATOM      7  N   UNL d   1      32.374  23.488 -21.372  0.00  0.00    -0.156 NA
BRANCH   7   8
ATOM      8  S   UNL d   1      32.416  23.519 -22.193  0.00  0.00     0.285 S 
ATOM      9  O   UNL d   1      33.238  23.335 -22.156  0.00  0.00    -0.198 OA
ATOM     10  O   UNL d   1      31.610  23.700 -22.228  0.00  0.00    -0.198 OA
BRANCH   8  11
ATOM     11  C   UNL d   1      32.460  23.551 -23.034  0.00  0.00     0.105 A 
ATOM     12  C   UNL d   1      33.204  23.577 -23.403  0.00  0.00     0.013 A 
ATOM     13  C   UNL d   1      33.238  23.607 -24.228  0.00  0.00     0.001 A 
ATOM     14  C   UNL d   1      32.534  23.611 -24.687  0.00  0.00     0.000 A 
ATOM     15  C   UNL d   1      31.808  23.585 -24.312  0.00  0.00     0.001 A 
ATOM     16  C   UNL d   1      31.756  23.555 -23.494  0.00  0.00     0.013 A 
ENDBRANCH   8  11
ENDBRANCH   7   8
ENDBRANCH   1   7
BRANCH   2  17
ATOM     17  O   UNL d   1      32.540  23.413 -19.734  0.00  0.00    -0.306 OA
BRANCH  17  18
ATOM     18  C   UNL d   1      32.347  23.482 -18.939  0.00  0.00     0.100 A 
ATOM     19  C   UNL d   1      32.943  23.515 -18.361  0.00  0.00     0.025 A 
ATOM     20  C   UNL d   1      32.730  23.586 -17.563  0.00  0.00     0.002 A 
ATOM     21  C   UNL d   1      33.238  23.618 -17.018  0.00  0.00     0.000 C 
ATOM     22  C   UNL d   1      31.936  23.623 -17.342  0.00  0.00     0.000 A 
ATOM     23  C   UNL d   1      31.351  23.589 -17.929  0.00  0.00     0.002 A 
ATOM     24  C   UNL d   1      31.567  23.518 -18.723  0.00  0.00     0.025 A 
ATOM     25  C   UNL d   1      30.637  23.628 -17.650  0.00  0.00     0.000 C 
ENDBRANCH  17  18
ENDBRANCH   2  17
TORSDOF 5
ENDMDL
