MODEL 1
REMARK VINA RESULT:      -8.7      0.000      0.000
REMARK  3 active torsions:
REMARK  status: ('A' for Active; 'I' for Inactive)
REMARK    1  A    between atoms: N_3  and  S_1 
REMARK    2  A    between atoms: C_9  and  S_1 
REMARK    3  A    between atoms: C_2  and  N_3 
ROOT
ATOM      1  C   UNL d   1     -49.022  13.832  22.675  0.00  0.00     0.157 A 
ATOM      2  C   UNL d   1     -48.983  14.612  22.926  0.00  0.00     0.102 A 
ATOM      3  C   UNL d   1     -49.610  15.123  22.763  0.00  0.00     0.110 A 
ATOM      4  C   UNL d   1     -50.276  14.853  22.348  0.00  0.00     0.207 A 
ATOM      5  C   UNL d   1     -49.667  13.561  22.270  0.00  0.00     0.035 A 
ATOM      6  C   UNL d   1     -50.294  14.072  22.106  0.00  0.00     0.042 A 
ATOM      7 CL   UNL d   1     -48.330  14.894  23.338  0.00  0.00    -0.079 Cl
ATOM      8 CL   UNL d   1     -49.585  15.915  23.011  0.00  0.00    -0.078 Cl
ATOM      9  O   UNL d   1     -50.903  15.364  22.185  0.00  0.00    -0.286 OA
ATOM     10  C   UNL d   1     -49.707  12.781  22.018  0.00  0.00     0.003 A 
ATOM     11  C   UNL d   1     -50.961  13.802  21.691  0.00  0.00     0.003 A 
ATOM     12  C   UNL d   1     -50.986  13.010  21.443  0.00  0.00     0.000 A 
ATOM     13  C   UNL d   1     -50.359  12.500  21.607  0.00  0.00     0.000 A 
ENDROOT
BRANCH   1  14
ATOM     14  N   UNL d   1     -48.395  13.322  22.838  0.00  0.00    -0.316 NA
BRANCH  14  15
ATOM     15  S   UNL d   1     -47.768  12.811  23.001  0.00  0.00     0.327 S 
ATOM     16  O   UNL d   1     -47.396  13.050  22.322  0.00  0.00    -0.186 OA
ATOM     17  O   UNL d   1     -48.150  12.570  23.692  0.00  0.00    -0.186 OA
BRANCH  15  18
ATOM     18  C   UNL d   1     -47.145  12.303  23.164  0.00  0.00     0.116 A 
ATOM     19  C   UNL d   1     -47.278  11.592  23.534  0.00  0.00     0.014 A 
ATOM     20  C   UNL d   1     -46.650  11.081  23.698  0.00  0.00     0.001 A 
ATOM     21  C   UNL d   1     -45.882  11.291  23.484  0.00  0.00     0.000 A 
ATOM     22  C   UNL d   1     -45.739  12.012  23.108  0.00  0.00     0.001 A 
ATOM     23  C   UNL d   1     -45.263  10.765  23.656  0.00  0.00     0.000 C 
ATOM     24  C   UNL d   1     -46.373  12.528  22.943  0.00  0.00     0.014 A 
ENDBRANCH  15  18
ENDBRANCH  14  15
ENDBRANCH   1  14
TORSDOF 3
ENDMDL
MODEL 2
REMARK VINA RESULT:      -8.5      1.206      1.611
REMARK  3 active torsions:
REMARK  status: ('A' for Active; 'I' for Inactive)
REMARK    1  A    between atoms: N_3  and  S_1 
REMARK    2  A    between atoms: C_9  and  S_1 
REMARK    3  A    between atoms: C_2  and  N_3 
ROOT
ATOM      1  C   UNL d   1     -48.727  13.726  23.059  0.00  0.00     0.157 A 
ATOM      2  C   UNL d   1     -48.930  14.521  23.023  0.00  0.00     0.102 A 
ATOM      3  C   UNL d   1     -49.709  14.747  23.173  0.00  0.00     0.110 A 
ATOM      4  C   UNL d   1     -50.285  14.179  23.359  0.00  0.00     0.207 A 
ATOM      5  C   UNL d   1     -49.282  13.166  23.239  0.00  0.00     0.035 A 
ATOM      6  C   UNL d   1     -50.061  13.392  23.389  0.00  0.00     0.042 A 
ATOM      7 CL   UNL d   1     -48.372  15.094  22.841  0.00  0.00    -0.079 Cl
ATOM      8 CL   UNL d   1     -49.930  15.546  23.141  0.00  0.00    -0.078 Cl
ATOM      9  O   UNL d   1     -51.064  14.405  23.509  0.00  0.00    -0.286 OA
ATOM     10  C   UNL d   1     -49.079  12.372  23.275  0.00  0.00     0.003 A 
ATOM     11  C   UNL d   1     -50.637  12.824  23.575  0.00  0.00     0.003 A 
ATOM     12  C   UNL d   1     -50.416  12.024  23.608  0.00  0.00     0.000 A 
ATOM     13  C   UNL d   1     -49.637  11.798  23.458  0.00  0.00     0.000 A 
ENDROOT
BRANCH   1  14
ATOM     14  N   UNL d   1     -47.948  13.500  22.909  0.00  0.00    -0.316 NA
BRANCH  14  15
ATOM     15  S   UNL d   1     -47.169  13.274  22.759  0.00  0.00     0.327 S 
ATOM     16  O   UNL d   1     -46.984  13.392  23.540  0.00  0.00    -0.186 OA
ATOM     17  O   UNL d   1     -47.361  13.155  21.966  0.00  0.00    -0.186 OA
BRANCH  15  18
ATOM     18  C   UNL d   1     -46.395  13.049  22.610  0.00  0.00     0.116 A 
ATOM     19  C   UNL d   1     -45.908  13.519  22.158  0.00  0.00     0.014 A 
ATOM     20  C   UNL d   1     -45.129  13.293  22.008  0.00  0.00     0.001 A 
ATOM     21  C   UNL d   1     -44.838  12.585  22.318  0.00  0.00     0.000 A 
ATOM     22  C   UNL d   1     -45.326  12.103  22.778  0.00  0.00     0.001 A 
ATOM     23  C   UNL d   1     -44.052  12.373  22.157  0.00  0.00     0.000 C 
ATOM     24  C   UNL d   1     -46.114  12.332  22.929  0.00  0.00     0.014 A 
ENDBRANCH  15  18
ENDBRANCH  14  15
ENDBRANCH   1  14
TORSDOF 3
ENDMDL
MODEL 3
REMARK VINA RESULT:      -8.1      1.637      2.246
REMARK  3 active torsions:
REMARK  status: ('A' for Active; 'I' for Inactive)
REMARK    1  A    between atoms: N_3  and  S_1 
REMARK    2  A    between atoms: C_9  and  S_1 
REMARK    3  A    between atoms: C_2  and  N_3 
ROOT
ATOM      1  C   UNL d   1     -48.680  13.252  23.109  0.00  0.00     0.157 A 
ATOM      2  C   UNL d   1     -49.146  12.606  23.307  0.00  0.00     0.102 A 
ATOM      3  C   UNL d   1     -49.941  12.722  23.495  0.00  0.00     0.110 A 
ATOM      4  C   UNL d   1     -50.270  13.484  23.485  0.00  0.00     0.207 A 
ATOM      5  C   UNL d   1     -48.992  13.998  23.097  0.00  0.00     0.035 A 
ATOM      6  C   UNL d   1     -49.787  14.114  23.285  0.00  0.00     0.042 A 
ATOM      7 CL   UNL d   1     -48.835  11.846  23.321  0.00  0.00    -0.079 Cl
ATOM      8 CL   UNL d   1     -50.425  12.079  23.697  0.00  0.00    -0.078 Cl
ATOM      9  O   UNL d   1     -51.064  13.600  23.674  0.00  0.00    -0.286 OA
ATOM     10  C   UNL d   1     -48.526  14.644  22.899  0.00  0.00     0.003 A 
ATOM     11  C   UNL d   1     -50.116  14.876  23.276  0.00  0.00     0.003 A 
ATOM     12  C   UNL d   1     -49.632  15.520  23.074  0.00  0.00     0.000 A 
ATOM     13  C   UNL d   1     -48.837  15.404  22.885  0.00  0.00     0.000 A 
ENDROOT
BRANCH   1  14
ATOM     14  N   UNL d   1     -47.885  13.136  22.921  0.00  0.00    -0.316 NA
BRANCH  14  15
ATOM     15  S   UNL d   1     -47.090  13.020  22.733  0.00  0.00     0.327 S 
ATOM     16  O   UNL d   1     -46.892  13.112  23.514  0.00  0.00    -0.186 OA
ATOM     17  O   UNL d   1     -47.297  12.927  21.940  0.00  0.00    -0.186 OA
BRANCH  15  18
ATOM     18  C   UNL d   1     -46.300  12.904  22.546  0.00  0.00     0.116 A 
ATOM     19  C   UNL d   1     -45.927  13.392  22.013  0.00  0.00     0.014 A 
ATOM     20  C   UNL d   1     -45.132  13.276  21.824  0.00  0.00     0.001 A 
ATOM     21  C   UNL d   1     -44.710  12.661  22.178  0.00  0.00     0.000 A 
ATOM     22  C   UNL d   1     -45.082  12.163  22.720  0.00  0.00     0.001 A 
ATOM     23  C   UNL d   1     -43.911  12.559  21.977  0.00  0.00     0.000 C 
ATOM     24  C   UNL d   1     -45.886  12.280  22.911  0.00  0.00     0.014 A 
ENDBRANCH  15  18
ENDBRANCH  14  15
ENDBRANCH   1  14
TORSDOF 3
ENDMDL
