MODEL 1
REMARK VINA RESULT:      15.8      0.000      0.000
REMARK  4 active torsions:
REMARK  status: ('A' for Active; 'I' for Inactive)
REMARK    1  A    between atoms: N_2  and  S_1 
REMARK    2  A    between atoms: C_5  and  S_1 
REMARK    3  A    between atoms: O_16  and  C_11 
REMARK    4  A    between atoms: C_19  and  O_16 
ROOT
ATOM      1  C   UNL d   1      45.905 -16.700  44.318  0.00  0.00     0.107 A 
ATOM      2  C   UNL d   1      46.190 -16.998  43.605  0.00  0.00     0.040 A 
ATOM      3  C   UNL d   1      46.348 -17.805  43.526  0.00  0.00     0.128 A 
ATOM      4  C   UNL d   1      46.222 -18.314  44.162  0.00  0.00     0.163 A 
ATOM      5  C   UNL d   1      45.778 -17.210  44.955  0.00  0.00     0.015 A 
ATOM      6  C   UNL d   1      45.937 -18.017  44.876  0.00  0.00     0.032 A 
ATOM      7  F   UNL d   1      46.381 -19.121  44.084  0.00  0.00    -0.202 F 
ENDROOT
BRANCH   1   8
ATOM      8  S   UNL d   1      45.746 -15.894  44.396  0.00  0.00     0.286 S 
ATOM      9  O   UNL d   1      46.351 -15.829  44.955  0.00  0.00    -0.198 OA
ATOM     10  O   UNL d   1      45.141 -15.958  43.838  0.00  0.00    -0.198 OA
BRANCH   8  11
ATOM     11  N   UNL d   1      45.587 -15.087  44.474  0.00  0.00    -0.152 N 
ATOM     12  N   UNL d   1      46.107 -14.469  44.313  0.00  0.00    -0.155 NA
ATOM     13  C   UNL d   1      45.726 -13.759  44.465  0.00  0.00     0.104 A 
ATOM     14  C   UNL d   1      46.049 -13.000  44.376  0.00  0.00     0.022 C 
ATOM     15  C   UNL d   1      44.962 -13.935  44.724  0.00  0.00     0.041 A 
ATOM     16  C   UNL d   1      44.875 -14.752  44.730  0.00  0.00     0.096 A 
ATOM     17  C   UNL d   1      44.199 -15.170  44.951  0.00  0.00     0.022 C 
ENDBRANCH   8  11
ENDBRANCH   1   8
BRANCH   3  18
ATOM     18  O   UNL d   1      46.633 -18.103  42.813  0.00  0.00    -0.303 OA
BRANCH  18  19
ATOM     19  C   UNL d   1      46.423 -18.869  42.566  0.00  0.00     0.123 C 
ATOM     20  C   UNL d   1      46.541 -19.098  41.784  0.00  0.00     0.029 C 
ENDBRANCH  18  19
ENDBRANCH   3  18
TORSDOF 4
ENDMDL
MODEL 2
REMARK VINA RESULT:      18.2      1.825      4.015
REMARK  4 active torsions:
REMARK  status: ('A' for Active; 'I' for Inactive)
REMARK    1  A    between atoms: N_2  and  S_1 
REMARK    2  A    between atoms: C_5  and  S_1 
REMARK    3  A    between atoms: O_16  and  C_11 
REMARK    4  A    between atoms: C_19  and  O_16 
ROOT
ATOM      1  C   UNL d   1      45.666 -16.512  44.124  0.00  0.00     0.107 A 
ATOM      2  C   UNL d   1      46.032 -15.821  43.865  0.00  0.00     0.040 A 
ATOM      3  C   UNL d   1      45.774 -15.086  44.142  0.00  0.00     0.128 A 
ATOM      4  C   UNL d   1      45.149 -15.043  44.677  0.00  0.00     0.163 A 
ATOM      5  C   UNL d   1      45.040 -16.469  44.660  0.00  0.00     0.015 A 
ATOM      6  C   UNL d   1      44.782 -15.735  44.937  0.00  0.00     0.032 A 
ATOM      7  F   UNL d   1      44.891 -14.309  44.954  0.00  0.00    -0.202 F 
ENDROOT
BRANCH   1   8
ATOM      8  S   UNL d   1      45.924 -17.246  43.847  0.00  0.00     0.286 S 
ATOM      9  O   UNL d   1      45.866 -16.973  43.070  0.00  0.00    -0.198 OA
ATOM     10  O   UNL d   1      45.981 -17.519  44.625  0.00  0.00    -0.198 OA
BRANCH   8  11
ATOM     11  N   UNL d   1      46.182 -17.980  43.570  0.00  0.00    -0.152 N 
ATOM     12  N   UNL d   1      46.224 -18.217  42.783  0.00  0.00    -0.155 NA
ATOM     13  C   UNL d   1      46.510 -18.986  42.757  0.00  0.00     0.104 A 
ATOM     14  C   UNL d   1      46.639 -19.437  42.073  0.00  0.00     0.022 C 
ATOM     15  C   UNL d   1      46.647 -19.230  43.533  0.00  0.00     0.041 A 
ATOM     16  C   UNL d   1      46.445 -18.612  44.035  0.00  0.00     0.096 A 
ATOM     17  C   UNL d   1      46.495 -18.615  44.859  0.00  0.00     0.022 C 
ENDBRANCH   8  11
ENDBRANCH   1   8
BRANCH   3  18
ATOM     18  O   UNL d   1      46.141 -14.395  43.883  0.00  0.00    -0.303 OA
BRANCH  18  19
ATOM     19  C   UNL d   1      45.734 -13.670  43.912  0.00  0.00     0.123 C 
ATOM     20  C   UNL d   1      46.012 -13.023  43.486  0.00  0.00     0.029 C 
ENDBRANCH  18  19
ENDBRANCH   3  18
TORSDOF 4
ENDMDL
