MODEL 1
REMARK VINA RESULT:      -5.3      0.000      0.000
REMARK  3 active torsions:
REMARK  status: ('A' for Active; 'I' for Inactive)
REMARK    1  A    between atoms: S_4  and  C_1 
REMARK    2  A    between atoms: C_8  and  S_4 
REMARK    3  A    between atoms: C_10  and  C_8 
ROOT
ATOM      1  C   UNL d   1      58.151  -0.332  30.057  0.00  0.00     0.114 A 
ATOM      2  C   UNL d   1      58.504  -0.909  29.590  0.00  0.00     0.042 A 
ATOM      3  N   UNL d   1      58.238   0.464  29.857  0.00  0.00    -0.217 NA
ATOM      4  N   UNL d   1      59.032   0.098  28.725  0.00  0.00    -0.224 NA
ATOM      5  C   UNL d   1      58.679   0.679  29.192  0.00  0.00     0.200 A 
ATOM      6  C   UNL d   1      58.944  -0.694  28.924  0.00  0.00     0.085 A 
ATOM      7  C   UNL d   1      58.416  -1.705  29.789  0.00  0.00     0.004 A 
ATOM      8  C   UNL d   1      59.297  -1.275  28.457  0.00  0.00     0.019 A 
ATOM      9  C   UNL d   1      58.769  -2.286  29.321  0.00  0.00     0.000 A 
ATOM     10  C   UNL d   1      59.210  -2.071  28.656  0.00  0.00     0.002 A 
ENDROOT
BRANCH   1  11
ATOM     11  S   UNL d   1      57.710  -0.547  30.722  0.00  0.00    -0.067 SA
BRANCH  11  12
ATOM     12  C   UNL d   1      57.333   0.025  31.170  0.00  0.00     0.037 C 
BRANCH  12  13
ATOM     13  C   UNL d   1      56.853  -0.193  31.797  0.00  0.00     0.007 A 
ATOM     14  C   UNL d   1      56.640  -0.988  31.916  0.00  0.00     0.003 A 
ATOM     15  C   UNL d   1      56.162  -1.195  32.544  0.00  0.00     0.030 A 
ATOM     16  C   UNL d   1      55.889  -0.620  33.058  0.00  0.00     0.140 A 
ATOM     17  C   UNL d   1      56.093   0.165  32.947  0.00  0.00     0.030 A 
ATOM     18  F   UNL d   1      55.400  -0.834  33.697  0.00  0.00    -0.204 F 
ATOM     19  C   UNL d   1      56.577   0.388  32.317  0.00  0.00     0.003 A 
ENDBRANCH  12  13
ENDBRANCH  11  12
ENDBRANCH   1  11
TORSDOF 3
ENDMDL
MODEL 2
REMARK VINA RESULT:      -4.7      1.460      1.674
REMARK  3 active torsions:
REMARK  status: ('A' for Active; 'I' for Inactive)
REMARK    1  A    between atoms: S_4  and  C_1 
REMARK    2  A    between atoms: C_8  and  S_4 
REMARK    3  A    between atoms: C_10  and  C_8 
ROOT
ATOM      1  C   UNL d   1      58.358   0.499  31.254  0.00  0.00     0.114 A 
ATOM      2  C   UNL d   1      58.450   0.466  30.437  0.00  0.00     0.042 A 
ATOM      3  N   UNL d   1      59.020   0.607  31.735  0.00  0.00    -0.217 NA
ATOM      4  N   UNL d   1      59.860   0.648  30.578  0.00  0.00    -0.224 NA
ATOM      5  C   UNL d   1      59.771   0.682  31.397  0.00  0.00     0.200 A 
ATOM      6  C   UNL d   1      59.201   0.541  30.099  0.00  0.00     0.085 A 
ATOM      7  C   UNL d   1      57.789   0.358  29.956  0.00  0.00     0.004 A 
ATOM      8  C   UNL d   1      59.291   0.507  29.280  0.00  0.00     0.019 A 
ATOM      9  C   UNL d   1      57.879   0.324  29.136  0.00  0.00     0.000 A 
ATOM     10  C   UNL d   1      58.630   0.399  28.798  0.00  0.00     0.002 A 
ENDROOT
BRANCH   1  11
ATOM     11  S   UNL d   1      57.608   0.424  31.591  0.00  0.00    -0.067 SA
BRANCH  11  12
ATOM     12  C   UNL d   1      57.527   0.203  32.375  0.00  0.00     0.037 C 
BRANCH  12  13
ATOM     13  C   UNL d   1      56.784   0.069  32.692  0.00  0.00     0.007 A 
ATOM     14  C   UNL d   1      56.415  -0.673  32.618  0.00  0.00     0.003 A 
ATOM     15  C   UNL d   1      55.674  -0.796  32.937  0.00  0.00     0.030 A 
ATOM     16  C   UNL d   1      55.292  -0.189  33.331  0.00  0.00     0.140 A 
ATOM     17  C   UNL d   1      55.647   0.543  33.408  0.00  0.00     0.030 A 
ATOM     18  F   UNL d   1      54.536  -0.318  33.655  0.00  0.00    -0.204 F 
ATOM     19  C   UNL d   1      56.397   0.682  33.090  0.00  0.00     0.003 A 
ENDBRANCH  12  13
ENDBRANCH  11  12
ENDBRANCH   1  11
TORSDOF 3
ENDMDL
MODEL 3
REMARK VINA RESULT:      -4.0      2.399      4.379
REMARK  3 active torsions:
REMARK  status: ('A' for Active; 'I' for Inactive)
REMARK    1  A    between atoms: S_4  and  C_1 
REMARK    2  A    between atoms: C_8  and  S_4 
REMARK    3  A    between atoms: C_10  and  C_8 
ROOT
ATOM      1  C   UNL d   1      57.196   0.155  32.577  0.00  0.00     0.114 A 
ATOM      2  C   UNL d   1      56.570  -0.310  32.836  0.00  0.00     0.042 A 
ATOM      3  N   UNL d   1      57.583   0.652  33.110  0.00  0.00    -0.217 NA
ATOM      4  N   UNL d   1      56.713   0.214  34.158  0.00  0.00    -0.224 NA
ATOM      5  C   UNL d   1      57.341   0.682  33.900  0.00  0.00     0.200 A 
ATOM      6  C   UNL d   1      56.328  -0.281  33.626  0.00  0.00     0.085 A 
ATOM      7  C   UNL d   1      56.183  -0.808  32.303  0.00  0.00     0.004 A 
ATOM      8  C   UNL d   1      55.699  -0.748  33.884  0.00  0.00     0.019 A 
ATOM      9  C   UNL d   1      55.554  -1.276  32.562  0.00  0.00     0.000 A 
ATOM     10  C   UNL d   1      55.312  -1.246  33.352  0.00  0.00     0.002 A 
ENDROOT
BRANCH   1  11
ATOM     11  S   UNL d   1      57.438   0.125  31.788  0.00  0.00    -0.067 SA
BRANCH  11  12
ATOM     12  C   UNL d   1      57.969   0.675  31.496  0.00  0.00     0.037 C 
BRANCH  12  13
ATOM     13  C   UNL d   1      58.271   0.597  30.739  0.00  0.00     0.007 A 
ATOM     14  C   UNL d   1      57.776   0.667  30.073  0.00  0.00     0.003 A 
ATOM     15  C   UNL d   1      58.086   0.588  29.323  0.00  0.00     0.030 A 
ATOM     16  C   UNL d   1      58.884   0.440  29.222  0.00  0.00     0.140 A 
ATOM     17  C   UNL d   1      59.378   0.369  29.872  0.00  0.00     0.030 A 
ATOM     18  F   UNL d   1      59.197   0.360  28.455  0.00  0.00    -0.204 F 
ATOM     19  C   UNL d   1      59.077   0.447  30.637  0.00  0.00     0.003 A 
ENDBRANCH  12  13
ENDBRANCH  11  12
ENDBRANCH   1  11
TORSDOF 3
ENDMDL
MODEL 4
REMARK VINA RESULT:      -3.6      2.158      4.482
REMARK  3 active torsions:
REMARK  status: ('A' for Active; 'I' for Inactive)
REMARK    1  A    between atoms: S_4  and  C_1 
REMARK    2  A    between atoms: C_8  and  S_4 
REMARK    3  A    between atoms: C_10  and  C_8 
ROOT
ATOM      1  C   UNL d   1      56.853  -0.604  32.053  0.00  0.00     0.114 A 
ATOM      2  C   UNL d   1      56.810  -0.260  32.799  0.00  0.00     0.042 A 
ATOM      3  N   UNL d   1      56.320  -1.200  31.847  0.00  0.00    -0.217 NA
ATOM      4  N   UNL d   1      55.706  -1.103  33.136  0.00  0.00    -0.224 NA
ATOM      5  C   UNL d   1      55.747  -1.449  32.389  0.00  0.00     0.200 A 
ATOM      6  C   UNL d   1      56.237  -0.510  33.340  0.00  0.00     0.085 A 
ATOM      7  C   UNL d   1      57.343   0.336  33.005  0.00  0.00     0.004 A 
ATOM      8  C   UNL d   1      56.196  -0.163  34.087  0.00  0.00     0.019 A 
ATOM      9  C   UNL d   1      57.301   0.682  33.753  0.00  0.00     0.000 A 
ATOM     10  C   UNL d   1      56.728   0.433  34.294  0.00  0.00     0.002 A 
ENDROOT
BRANCH   1  11
ATOM     11  S   UNL d   1      57.426  -0.355  31.513  0.00  0.00    -0.067 SA
BRANCH  11  12
ATOM     12  C   UNL d   1      57.370  -0.566  30.724  0.00  0.00     0.037 C 
BRANCH  12  13
ATOM     13  C   UNL d   1      57.925  -0.299  30.184  0.00  0.00     0.007 A 
ATOM     14  C   UNL d   1      57.811   0.416  29.773  0.00  0.00     0.003 A 
ATOM     15  C   UNL d   1      58.370   0.673  29.238  0.00  0.00     0.030 A 
ATOM     16  C   UNL d   1      59.044   0.230  29.103  0.00  0.00     0.140 A 
ATOM     17  C   UNL d   1      59.164  -0.474  29.504  0.00  0.00     0.030 A 
ATOM     18  F   UNL d   1      59.613   0.496  28.556  0.00  0.00    -0.204 F 
ATOM     19  C   UNL d   1      58.606  -0.747  30.048  0.00  0.00     0.003 A 
ENDBRANCH  12  13
ENDBRANCH  11  12
ENDBRANCH   1  11
TORSDOF 3
ENDMDL
MODEL 5
REMARK VINA RESULT:      -2.7      9.288      9.500
REMARK  3 active torsions:
REMARK  status: ('A' for Active; 'I' for Inactive)
REMARK    1  A    between atoms: S_4  and  C_1 
REMARK    2  A    between atoms: C_8  and  S_4 
REMARK    3  A    between atoms: C_10  and  C_8 
ROOT
ATOM      1  C   UNL d   1      58.122  -9.771  31.576  0.00  0.00     0.114 A 
ATOM      2  C   UNL d   1      58.223  -9.783  30.760  0.00  0.00     0.042 A 
ATOM      3  N   UNL d   1      57.360  -9.782  31.893  0.00  0.00    -0.217 NA
ATOM      4  N   UNL d   1      56.806  -9.817  30.574  0.00  0.00    -0.224 NA
ATOM      5  C   UNL d   1      56.702  -9.805  31.393  0.00  0.00     0.200 A 
ATOM      6  C   UNL d   1      57.565  -9.806  30.259  0.00  0.00     0.085 A 
ATOM      7  C   UNL d   1      58.984  -9.771  30.443  0.00  0.00     0.004 A 
ATOM      8  C   UNL d   1      57.669  -9.818  29.441  0.00  0.00     0.019 A 
ATOM      9  C   UNL d   1      59.087  -9.783  29.624  0.00  0.00     0.000 A 
ATOM     10  C   UNL d   1      58.430  -9.807  29.123  0.00  0.00     0.002 A 
ENDROOT
BRANCH   1  11
ATOM     11  S   UNL d   1      58.779  -9.747  32.076  0.00  0.00    -0.067 SA
BRANCH  11  12
ATOM     12  C   UNL d   1      58.685  -9.818  32.886  0.00  0.00     0.037 C 
BRANCH  12  13
ATOM     13  C   UNL d   1      59.287  -9.590  33.392  0.00  0.00     0.007 A 
ATOM     14  C   UNL d   1      60.078  -9.794  33.236  0.00  0.00     0.003 A 
ATOM     15  C   UNL d   1      60.670  -9.562  33.748  0.00  0.00     0.030 A 
ATOM     16  C   UNL d   1      60.487  -9.127  34.416  0.00  0.00     0.140 A 
ATOM     17  C   UNL d   1      59.712  -8.921  34.577  0.00  0.00     0.030 A 
ATOM     18  F   UNL d   1      61.093  -8.891  34.935  0.00  0.00    -0.204 F 
ATOM     19  C   UNL d   1      59.102  -9.150  34.068  0.00  0.00     0.003 A 
ENDBRANCH  12  13
ENDBRANCH  11  12
ENDBRANCH   1  11
TORSDOF 3
ENDMDL
MODEL 6
REMARK VINA RESULT:      -2.5      2.869      5.353
REMARK  3 active torsions:
REMARK  status: ('A' for Active; 'I' for Inactive)
REMARK    1  A    between atoms: S_4  and  C_1 
REMARK    2  A    between atoms: C_8  and  S_4 
REMARK    3  A    between atoms: C_10  and  C_8 
ROOT
ATOM      1  C   UNL d   1      55.830   0.671  34.098  0.00  0.00     0.114 A 
ATOM      2  C   UNL d   1      55.012   0.675  34.174  0.00  0.00     0.042 A 
ATOM      3  N   UNL d   1      56.303   0.672  34.774  0.00  0.00    -0.217 NA
ATOM      4  N   UNL d   1      55.134   0.678  35.598  0.00  0.00    -0.224 NA
ATOM      5  C   UNL d   1      55.955   0.675  35.524  0.00  0.00     0.200 A 
ATOM      6  C   UNL d   1      54.664   0.678  34.925  0.00  0.00     0.085 A 
ATOM      7  C   UNL d   1      54.539   0.674  33.498  0.00  0.00     0.004 A 
ATOM      8  C   UNL d   1      53.842   0.681  34.998  0.00  0.00     0.019 A 
ATOM      9  C   UNL d   1      53.717   0.677  33.573  0.00  0.00     0.000 A 
ATOM     10  C   UNL d   1      53.368   0.681  34.323  0.00  0.00     0.002 A 
ENDROOT
BRANCH   1  11
ATOM     11  S   UNL d   1      56.178   0.668  33.349  0.00  0.00    -0.067 SA
BRANCH  11  12
ATOM     12  C   UNL d   1      56.916   0.333  33.237  0.00  0.00     0.037 C 
BRANCH  12  13
ATOM     13  C   UNL d   1      57.187   0.173  32.480  0.00  0.00     0.007 A 
ATOM     14  C   UNL d   1      56.888  -0.470  32.047  0.00  0.00     0.003 A 
ATOM     15  C   UNL d   1      57.165  -0.621  31.294  0.00  0.00     0.030 A 
ATOM     16  C   UNL d   1      57.737  -0.138  30.963  0.00  0.00     0.140 A 
ATOM     17  C   UNL d   1      58.036   0.497  31.383  0.00  0.00     0.030 A 
ATOM     18  F   UNL d   1      58.017  -0.294  30.195  0.00  0.00    -0.204 F 
ATOM     19  C   UNL d   1      57.765   0.661  32.146  0.00  0.00     0.003 A 
ENDBRANCH  12  13
ENDBRANCH  11  12
ENDBRANCH   1  11
TORSDOF 3
ENDMDL
