MODEL 1
REMARK VINA RESULT:      -3.3      0.000      0.000
REMARK  4 active torsions:
REMARK  status: ('A' for Active; 'I' for Inactive)
REMARK    1  A    between atoms: N_2  and  S_1 
REMARK    2  A    between atoms: C_6  and  S_1 
REMARK    3  A    between atoms: C_3  and  C_11 
REMARK       I    between atoms: N_4  and  C_3 
REMARK    4  A    between atoms: C_17  and  N_5 
ROOT
ATOM      1  C   UNL d   1      32.813  20.286 -22.385  0.00  0.00     0.104 A 
ATOM      2  C   UNL d   1      32.808  21.815 -21.700  0.00  0.00     0.057 A 
ATOM      3  C   UNL d   1      33.231  20.926 -22.753  0.00  0.00     0.013 A 
ATOM      4  C   UNL d   1      32.417  20.450 -21.694  0.00  0.00     0.013 A 
ATOM      5  C   UNL d   1      33.232  21.675 -22.423  0.00  0.00     0.005 A 
ATOM      6  C   UNL d   1      32.419  21.206 -21.363  0.00  0.00     0.005 A 
ENDROOT
BRANCH   2   7
ATOM      7  C   UNL d   1      32.818  22.545 -21.392  0.00  0.00     0.265 C 
ATOM      8  N   UNL d   1      32.824  22.605 -20.587  0.00  0.00    -0.269 N 
ATOM      9  C   UNL d   1      32.834  23.355 -20.268  0.00  0.00     0.102 A 
ATOM     10  C   UNL d   1      32.821  21.949 -20.080  0.00  0.00     0.102 A 
ATOM     11  C   UNL d   1      32.841  23.470 -19.447  0.00  0.00     0.100 A 
ATOM     12  N   UNL d   1      32.838  22.818 -18.963  0.00  0.00    -0.301 N 
ATOM     13  C   UNL d   1      32.828  22.064 -19.253  0.00  0.00     0.100 A 
ATOM     14  O   UNL d   1      32.821  23.219 -21.874  0.00  0.00    -0.267 OA
BRANCH  12  15
ATOM     15  C   UNL d   1      32.845  22.934 -18.149  0.00  0.00     0.064 A 
ATOM     16  C   UNL d   1      33.230  22.425 -17.633  0.00  0.00     0.018 A 
ATOM     17  C   UNL d   1      33.236  22.539 -16.841  0.00  0.00     0.002 A 
ATOM     18  C   UNL d   1      32.831  23.209 -16.528  0.00  0.00     0.000 A 
ATOM     19  C   UNL d   1      32.462  23.696 -17.032  0.00  0.00     0.002 A 
ATOM     20  C   UNL d   1      32.455  23.579 -17.846  0.00  0.00     0.018 A 
ENDBRANCH  12  15
ENDBRANCH   2   7
BRANCH   1  21
ATOM     21  S   UNL d   1      32.815  19.551 -22.712  0.00  0.00     0.271 S 
ATOM     22  O   UNL d   1      33.231  19.826 -23.345  0.00  0.00    -0.200 OA
ATOM     23  O   UNL d   1      32.372  19.252 -22.043  0.00  0.00    -0.200 OA
BRANCH  21  24
ATOM     24  N   UNL d   1      32.816  18.790 -23.052  0.00  0.00    -0.229 N 
ATOM     25  C   UNL d   1      32.665  18.720 -23.838  0.00  0.00     0.092 A 
ATOM     26  C   UNL d   1      32.664  17.968 -24.188  0.00  0.00     0.018 A 
ATOM     27  C   UNL d   1      32.513  17.842 -24.994  0.00  0.00     0.002 C 
ATOM     28  C   UNL d   1      32.820  17.293 -23.719  0.00  0.00     0.003 A 
ATOM     29  C   UNL d   1      32.978  17.371 -22.899  0.00  0.00     0.018 A 
ATOM     30  C   UNL d   1      32.974  18.110 -22.577  0.00  0.00     0.092 A 
ATOM     31  C   UNL d   1      33.136  16.712 -22.416  0.00  0.00     0.002 C 
ENDBRANCH  21  24
ENDBRANCH   1  21
TORSDOF 4
ENDMDL
MODEL 2
REMARK VINA RESULT:      -1.7      1.348      2.190
REMARK  4 active torsions:
REMARK  status: ('A' for Active; 'I' for Inactive)
REMARK    1  A    between atoms: N_2  and  S_1 
REMARK    2  A    between atoms: C_6  and  S_1 
REMARK    3  A    between atoms: C_3  and  C_11 
REMARK       I    between atoms: N_4  and  C_3 
REMARK    4  A    between atoms: C_17  and  N_5 
ROOT
ATOM      1  C   UNL d   1      32.428  18.902 -23.537  0.00  0.00     0.104 A 
ATOM      2  C   UNL d   1      32.784  20.524 -23.309  0.00  0.00     0.057 A 
ATOM      3  C   UNL d   1      33.062  19.270 -23.964  0.00  0.00     0.013 A 
ATOM      4  C   UNL d   1      32.009  19.369 -23.020  0.00  0.00     0.013 A 
ATOM      5  C   UNL d   1      33.240  20.061 -23.857  0.00  0.00     0.005 A 
ATOM      6  C   UNL d   1      32.190  20.167 -22.912  0.00  0.00     0.005 A 
ENDROOT
BRANCH   2   7
ATOM      7  C   UNL d   1      32.968  21.288 -23.215  0.00  0.00     0.265 C 
ATOM      8  N   UNL d   1      33.000  21.569 -22.459  0.00  0.00    -0.269 N 
ATOM      9  C   UNL d   1      33.189  22.355 -22.360  0.00  0.00     0.102 A 
ATOM     10  C   UNL d   1      32.851  21.101 -21.791  0.00  0.00     0.102 A 
ATOM     11  C   UNL d   1      33.234  22.692 -21.604  0.00  0.00     0.100 A 
ATOM     12  N   UNL d   1      33.085  22.221 -20.958  0.00  0.00    -0.301 N 
ATOM     13  C   UNL d   1      32.896  21.439 -21.028  0.00  0.00     0.100 A 
ATOM     14  O   UNL d   1      33.122  21.780 -23.864  0.00  0.00    -0.267 OA
BRANCH  12  15
ATOM     15  C   UNL d   1      33.131  22.557 -20.209  0.00  0.00     0.064 A 
ATOM     16  C   UNL d   1      33.157  23.369 -20.089  0.00  0.00     0.018 A 
ATOM     17  C   UNL d   1      33.201  23.695 -19.360  0.00  0.00     0.002 A 
ATOM     18  C   UNL d   1      33.221  23.182 -18.691  0.00  0.00     0.000 A 
ATOM     19  C   UNL d   1      33.196  22.400 -18.815  0.00  0.00     0.002 A 
ATOM     20  C   UNL d   1      33.150  22.064 -19.564  0.00  0.00     0.018 A 
ENDBRANCH  12  15
ENDBRANCH   2   7
BRANCH   1  21
ATOM     21  S   UNL d   1      32.255  18.124 -23.646  0.00  0.00     0.271 S 
ATOM     22  O   UNL d   1      31.969  18.283 -24.383  0.00  0.00    -0.200 OA
ATOM     23  O   UNL d   1      32.558  17.948 -22.865  0.00  0.00    -0.200 OA
BRANCH  21  24
ATOM     24  N   UNL d   1      32.076  17.317 -23.759  0.00  0.00    -0.229 N 
ATOM     25  C   UNL d   1      32.672  16.817 -23.961  0.00  0.00     0.092 A 
ATOM     26  C   UNL d   1      32.506  16.012 -24.077  0.00  0.00     0.018 A 
ATOM     27  C   UNL d   1      33.084  15.455 -24.286  0.00  0.00     0.002 C 
ATOM     28  C   UNL d   1      31.724  15.733 -23.981  0.00  0.00     0.003 A 
ATOM     29  C   UNL d   1      31.106  16.259 -23.770  0.00  0.00     0.018 A 
ATOM     30  C   UNL d   1      31.287  17.037 -23.662  0.00  0.00     0.092 A 
ATOM     31  C   UNL d   1      30.321  16.000 -23.670  0.00  0.00     0.002 C 
ENDBRANCH  21  24
ENDBRANCH   1  21
TORSDOF 4
ENDMDL
MODEL 3
REMARK VINA RESULT:      -0.9      2.083      6.597
REMARK  4 active torsions:
REMARK  status: ('A' for Active; 'I' for Inactive)
REMARK    1  A    between atoms: N_2  and  S_1 
REMARK    2  A    between atoms: C_6  and  S_1 
REMARK    3  A    between atoms: C_3  and  C_11 
REMARK       I    between atoms: N_4  and  C_3 
REMARK    4  A    between atoms: C_17  and  N_5 
ROOT
ATOM      1  C   UNL d   1      32.834  20.121 -22.875  0.00  0.00     0.104 A 
ATOM      2  C   UNL d   1      32.713  18.824 -23.929  0.00  0.00     0.057 A 
ATOM      3  C   UNL d   1      32.338  19.458 -22.690  0.00  0.00     0.013 A 
ATOM      4  C   UNL d   1      33.241  20.095 -23.579  0.00  0.00     0.013 A 
ATOM      5  C   UNL d   1      32.275  18.822 -23.201  0.00  0.00     0.005 A 
ATOM      6  C   UNL d   1      33.176  19.453 -24.093  0.00  0.00     0.005 A 
ENDROOT
BRANCH   2   7
ATOM      7  C   UNL d   1      32.642  18.201 -24.414  0.00  0.00     0.265 C 
ATOM      8  N   UNL d   1      31.960  17.772 -24.365  0.00  0.00    -0.269 N 
ATOM      9  C   UNL d   1      31.885  17.132 -24.863  0.00  0.00     0.102 A 
ATOM     10  C   UNL d   1      31.344  17.952 -23.840  0.00  0.00     0.102 A 
ATOM     11  C   UNL d   1      31.204  16.659 -24.852  0.00  0.00     0.100 A 
ATOM     12  N   UNL d   1      30.608  16.847 -24.331  0.00  0.00    -0.301 N 
ATOM     13  C   UNL d   1      30.657  17.477 -23.828  0.00  0.00     0.100 A 
ATOM     14  O   UNL d   1      33.241  17.998 -24.949  0.00  0.00    -0.267 OA
BRANCH  12  15
ATOM     15  C   UNL d   1      29.933  16.377 -24.322  0.00  0.00     0.064 A 
ATOM     16  C   UNL d   1      29.729  15.910 -23.678  0.00  0.00     0.018 A 
ATOM     17  C   UNL d   1      29.073  15.453 -23.669  0.00  0.00     0.002 A 
ATOM     18  C   UNL d   1      28.573  15.454 -24.349  0.00  0.00     0.000 A 
ATOM     19  C   UNL d   1      28.777  15.907 -24.966  0.00  0.00     0.002 A 
ATOM     20  C   UNL d   1      29.452  16.377 -24.976  0.00  0.00     0.018 A 
ENDBRANCH  12  15
ENDBRANCH   2   7
BRANCH   1  21
ATOM     21  S   UNL d   1      32.894  20.745 -22.370  0.00  0.00     0.271 S 
ATOM     22  O   UNL d   1      33.222  21.195 -22.954  0.00  0.00    -0.200 OA
ATOM     23  O   UNL d   1      32.546  20.273 -21.747  0.00  0.00    -0.200 OA
BRANCH  21  24
ATOM     24  N   UNL d   1      32.956  21.391 -21.848  0.00  0.00    -0.229 N 
ATOM     25  C   UNL d   1      33.061  21.243 -21.066  0.00  0.00     0.092 A 
ATOM     26  C   UNL d   1      33.125  21.878 -20.535  0.00  0.00     0.018 A 
ATOM     27  C   UNL d   1      33.234  21.780 -19.718  0.00  0.00     0.002 C 
ATOM     28  C   UNL d   1      33.077  22.663 -20.822  0.00  0.00     0.003 A 
ATOM     29  C   UNL d   1      32.967  22.812 -21.639  0.00  0.00     0.018 A 
ATOM     30  C   UNL d   1      32.908  22.182 -22.139  0.00  0.00     0.092 A 
ATOM     31  C   UNL d   1      32.917  23.585 -21.943  0.00  0.00     0.002 C 
ENDBRANCH  21  24
ENDBRANCH   1  21
TORSDOF 4
ENDMDL
