MODEL 1
REMARK VINA RESULT:      83.2      0.000      0.000
REMARK  4 active torsions:
REMARK  status: ('A' for Active; 'I' for Inactive)
REMARK    1  A    between atoms: N_4  and  S_1 
REMARK    2  A    between atoms: C_5  and  S_1 
REMARK    3  A    between atoms: C_3  and  C_9 
REMARK    4  A    between atoms: C_14  and  N_4 
ROOT
ATOM      1  S   UNL d   1      61.542  47.530  50.076  0.00  0.00     0.285 S 
ATOM      2  O   UNL d   1      61.695  48.177  49.592  0.00  0.00    -0.198 OA
ATOM      3  O   UNL d   1      61.348  47.030  50.705  0.00  0.00    -0.198 OA
ENDROOT
BRANCH   1   4
ATOM      4  N   UNL d   1      61.309  47.636  50.858  0.00  0.00    -0.158 NA
BRANCH   4   5
ATOM      5  C   UNL d   1      60.904  48.323  51.076  0.00  0.00     0.094 A 
ATOM      6  C   UNL d   1      60.154  48.480  50.765  0.00  0.00     0.021 A 
ATOM      7  C   UNL d   1      59.756  49.163  50.984  0.00  0.00     0.020 A 
ATOM      8  C   UNL d   1      60.102  49.696  51.517  0.00  0.00     0.002 A 
ATOM      9  C   UNL d   1      60.842  49.542  51.825  0.00  0.00     0.002 A 
ATOM     10  C   UNL d   1      61.250  48.856  51.609  0.00  0.00     0.020 A 
BRANCH   7  11
ATOM     11  C   UNL d   1      59.006  49.320  50.673  0.00  0.00     0.088 A 
ATOM     12  N   UNL d   1      57.668  49.207  51.163  0.00  0.00    -0.238 NA
ATOM     13  C   UNL d   1      57.377  49.498  50.433  0.00  0.00     0.111 A 
ATOM     14  C   UNL d   1      56.566  49.585  50.319  0.00  0.00     0.028 C 
ATOM     15  S   UNL d   1      57.896  49.701  49.823  0.00  0.00    -0.066 SA
ATOM     16  C   UNL d   1      58.716  49.610  49.948  0.00  0.00     0.056 A 
ENDBRANCH   7  11
ENDBRANCH   4   5
ENDBRANCH   1   4
BRANCH   1  17
ATOM     17  C   UNL d   1      61.625  46.767  49.770  0.00  0.00     0.105 A 
ATOM     18  C   UNL d   1      61.063  46.191  49.952  0.00  0.00     0.013 A 
ATOM     19  C   UNL d   1      61.149  45.423  49.642  0.00  0.00     0.001 A 
ATOM     20  C   UNL d   1      60.583  44.848  49.826  0.00  0.00     0.000 A 
ATOM     21  C   UNL d   1      61.790  45.241  49.159  0.00  0.00     0.000 A 
ATOM     22  C   UNL d   1      60.670  44.088  49.518  0.00  0.00     0.000 A 
ATOM     23  C   UNL d   1      61.312  43.903  49.034  0.00  0.00     0.000 A 
ATOM     24  C   UNL d   1      61.870  44.477  48.854  0.00  0.00     0.000 A 
ATOM     25  C   UNL d   1      62.346  45.821  48.983  0.00  0.00     0.001 A 
ATOM     26  C   UNL d   1      62.267  46.582  49.286  0.00  0.00     0.013 A 
ENDBRANCH   1  17
TORSDOF 4
ENDMDL
