MODEL 1
REMARK VINA RESULT:      -2.9      0.000      0.000
REMARK  4 active torsions:
REMARK  status: ('A' for Active; 'I' for Inactive)
REMARK    1  A    between atoms: C_7  and  N_2 
REMARK    2  A    between atoms: C_10  and  C_7 
REMARK    3  A    between atoms: O_8  and  C_10 
REMARK    4  A    between atoms: C_9  and  O_8 
ROOT
ATOM      1  C   UNL d   1      31.795  16.231 -23.558  0.00  0.00     0.296 A 
ATOM      2  N   UNL d   1      31.663  16.939 -23.958  0.00  0.00    -0.266 N 
ATOM      3  S   UNL d   1      31.070  15.811 -23.540  0.00  0.00    -0.025 SA
ATOM      4  C   UNL d   1      30.866  16.961 -24.187  0.00  0.00     0.074 A 
ATOM      5  C   UNL d   1      30.503  16.270 -23.932  0.00  0.00     0.050 A 
ATOM      6  O   UNL d   1      32.506  15.979 -23.233  0.00  0.00    -0.259 OA
ATOM      7  C   UNL d   1      30.432  17.532 -24.600  0.00  0.00     0.018 A 
ATOM      8  C   UNL d   1      29.698  16.134 -24.083  0.00  0.00     0.008 A 
ATOM      9  C   UNL d   1      29.630  17.401 -24.752  0.00  0.00     0.002 A 
ATOM     10  C   UNL d   1      29.268  16.710 -24.497  0.00  0.00     0.001 A 
ENDROOT
BRANCH   2  11
ATOM     11  C   UNL d   1      32.225  17.525 -24.104  0.00  0.00     0.110 C 
BRANCH  11  12
ATOM     12  C   UNL d   1      32.458  18.038 -23.505  0.00  0.00     0.142 C 
BRANCH  12  13
ATOM     13  O   UNL d   1      33.048  18.604 -23.634  0.00  0.00    -0.304 OA
BRANCH  13  14
ATOM     14  C   UNL d   1      33.112  19.259 -23.137  0.00  0.00     0.100 A 
ATOM     15  C   UNL d   1      33.177  20.016 -23.460  0.00  0.00     0.025 A 
ATOM     16  C   UNL d   1      33.241  20.668 -22.965  0.00  0.00     0.002 A 
ATOM     17  C   UNL d   1      33.240  20.562 -22.147  0.00  0.00     0.000 A 
ATOM     18  C   UNL d   1      33.175  19.801 -21.826  0.00  0.00     0.002 A 
ATOM     19  C   UNL d   1      33.112  19.154 -22.330  0.00  0.00     0.025 A 
ENDBRANCH  13  14
ENDBRANCH  12  13
ENDBRANCH  11  12
ENDBRANCH   2  11
TORSDOF 4
ENDMDL
MODEL 2
REMARK VINA RESULT:      -2.8      1.710      2.412
REMARK  4 active torsions:
REMARK  status: ('A' for Active; 'I' for Inactive)
REMARK    1  A    between atoms: C_7  and  N_2 
REMARK    2  A    between atoms: C_10  and  C_7 
REMARK    3  A    between atoms: O_8  and  C_10 
REMARK    4  A    between atoms: C_9  and  O_8 
ROOT
ATOM      1  C   UNL d   1      28.974  17.688 -24.597  0.00  0.00     0.296 A 
ATOM      2  N   UNL d   1      29.571  17.145 -24.432  0.00  0.00    -0.266 N 
ATOM      3  S   UNL d   1      28.295  17.459 -24.161  0.00  0.00    -0.025 SA
ATOM      4  C   UNL d   1      29.270  16.583 -23.901  0.00  0.00     0.074 A 
ATOM      5  C   UNL d   1      28.489  16.775 -23.735  0.00  0.00     0.050 A 
ATOM      6  O   UNL d   1      29.027  18.338 -25.096  0.00  0.00    -0.259 OA
ATOM      7  C   UNL d   1      29.620  15.921 -23.552  0.00  0.00     0.018 A 
ATOM      8  C   UNL d   1      28.041  16.309 -23.216  0.00  0.00     0.008 A 
ATOM      9  C   UNL d   1      29.177  15.453 -23.034  0.00  0.00     0.002 A 
ATOM     10  C   UNL d   1      28.396  15.645 -22.867  0.00  0.00     0.001 A 
ENDROOT
BRANCH   2  11
ATOM     11  C   UNL d   1      30.335  17.157 -24.742  0.00  0.00     0.110 C 
BRANCH  11  12
ATOM     12  C   UNL d   1      30.867  17.743 -24.517  0.00  0.00     0.142 C 
BRANCH  12  13
ATOM     13  O   UNL d   1      31.681  17.647 -24.629  0.00  0.00    -0.304 OA
BRANCH  13  14
ATOM     14  C   UNL d   1      32.203  18.258 -24.442  0.00  0.00     0.100 A 
ATOM     15  C   UNL d   1      32.542  18.707 -25.046  0.00  0.00     0.025 A 
ATOM     16  C   UNL d   1      33.061  19.315 -24.860  0.00  0.00     0.002 A 
ATOM     17  C   UNL d   1      33.241  19.473 -24.070  0.00  0.00     0.000 A 
ATOM     18  C   UNL d   1      32.899  19.020 -23.467  0.00  0.00     0.002 A 
ATOM     19  C   UNL d   1      32.380  18.412 -23.663  0.00  0.00     0.025 A 
ENDBRANCH  13  14
ENDBRANCH  12  13
ENDBRANCH  11  12
ENDBRANCH   2  11
TORSDOF 4
ENDMDL
MODEL 3
REMARK VINA RESULT:      -2.7      1.579      4.153
REMARK  4 active torsions:
REMARK  status: ('A' for Active; 'I' for Inactive)
REMARK    1  A    between atoms: C_7  and  N_2 
REMARK    2  A    between atoms: C_10  and  C_7 
REMARK    3  A    between atoms: O_8  and  C_10 
REMARK    4  A    between atoms: C_9  and  O_8 
ROOT
ATOM      1  C   UNL d   1      32.265  16.545 -23.590  0.00  0.00     0.296 A 
ATOM      2  N   UNL d   1      31.809  16.856 -24.201  0.00  0.00    -0.266 N 
ATOM      3  S   UNL d   1      32.882  17.090 -23.432  0.00  0.00    -0.025 SA
ATOM      4  C   UNL d   1      32.135  17.585 -24.422  0.00  0.00     0.074 A 
ATOM      5  C   UNL d   1      32.793  17.729 -23.952  0.00  0.00     0.050 A 
ATOM      6  O   UNL d   1      32.143  15.831 -23.202  0.00  0.00    -0.259 OA
ATOM      7  C   UNL d   1      31.908  18.133 -24.999  0.00  0.00     0.018 A 
ATOM      8  C   UNL d   1      33.237  18.423 -24.046  0.00  0.00     0.008 A 
ATOM      9  C   UNL d   1      32.348  18.826 -25.097  0.00  0.00     0.002 A 
ATOM     10  C   UNL d   1      33.005  18.970 -24.626  0.00  0.00     0.001 A 
ENDROOT
BRANCH   2  11
ATOM     11  C   UNL d   1      31.142  16.503 -24.535  0.00  0.00     0.110 C 
BRANCH  11  12
ATOM     12  C   UNL d   1      30.419  16.522 -24.143  0.00  0.00     0.142 C 
BRANCH  12  13
ATOM     13  O   UNL d   1      29.724  16.275 -24.517  0.00  0.00    -0.304 OA
BRANCH  13  14
ATOM     14  C   UNL d   1      29.017  16.226 -24.094  0.00  0.00     0.100 A 
ATOM     15  C   UNL d   1      28.706  16.901 -23.734  0.00  0.00     0.025 A 
ATOM     16  C   UNL d   1      28.003  16.851 -23.313  0.00  0.00     0.002 A 
ATOM     17  C   UNL d   1      27.612  16.128 -23.253  0.00  0.00     0.000 A 
ATOM     18  C   UNL d   1      27.927  15.453 -23.615  0.00  0.00     0.002 A 
ATOM     19  C   UNL d   1      28.632  15.511 -24.035  0.00  0.00     0.025 A 
ENDBRANCH  13  14
ENDBRANCH  12  13
ENDBRANCH  11  12
ENDBRANCH   2  11
TORSDOF 4
ENDMDL
MODEL 4
REMARK VINA RESULT:      -2.6      1.250      1.807
REMARK  4 active torsions:
REMARK  status: ('A' for Active; 'I' for Inactive)
REMARK    1  A    between atoms: C_7  and  N_2 
REMARK    2  A    between atoms: C_10  and  C_7 
REMARK    3  A    between atoms: O_8  and  C_10 
REMARK    4  A    between atoms: C_9  and  O_8 
ROOT
ATOM      1  C   UNL d   1      31.849  18.131 -24.665  0.00  0.00     0.296 A 
ATOM      2  N   UNL d   1      32.161  17.857 -23.954  0.00  0.00    -0.266 N 
ATOM      3  S   UNL d   1      31.238  17.603 -24.893  0.00  0.00    -0.025 SA
ATOM      4  C   UNL d   1      31.752  17.168 -23.740  0.00  0.00     0.074 A 
ATOM      5  C   UNL d   1      31.187  17.013 -24.315  0.00  0.00     0.050 A 
ATOM      6  O   UNL d   1      32.087  18.798 -25.080  0.00  0.00    -0.259 OA
ATOM      7  C   UNL d   1      31.832  16.667 -23.087  0.00  0.00     0.018 A 
ATOM      8  C   UNL d   1      30.688  16.352 -24.250  0.00  0.00     0.008 A 
ATOM      9  C   UNL d   1      31.337  16.007 -23.019  0.00  0.00     0.002 A 
ATOM     10  C   UNL d   1      30.772  15.852 -23.594  0.00  0.00     0.001 A 
ENDROOT
BRANCH   2  11
ATOM     11  C   UNL d   1      32.775  18.208 -23.528  0.00  0.00     0.110 C 
BRANCH  11  12
ATOM     12  C   UNL d   1      32.632  18.869 -23.060  0.00  0.00     0.142 C 
BRANCH  12  13
ATOM     13  O   UNL d   1      33.241  19.220 -22.622  0.00  0.00    -0.304 OA
BRANCH  13  14
ATOM     14  C   UNL d   1      33.095  19.899 -22.176  0.00  0.00     0.100 A 
ATOM     15  C   UNL d   1      32.853  19.830 -21.390  0.00  0.00     0.025 A 
ATOM     16  C   UNL d   1      32.708  20.505 -20.946  0.00  0.00     0.002 A 
ATOM     17  C   UNL d   1      32.804  21.249 -21.290  0.00  0.00     0.000 A 
ATOM     18  C   UNL d   1      33.047  21.315 -22.079  0.00  0.00     0.002 A 
ATOM     19  C   UNL d   1      33.190  20.632 -22.516  0.00  0.00     0.025 A 
ENDBRANCH  13  14
ENDBRANCH  12  13
ENDBRANCH  11  12
ENDBRANCH   2  11
TORSDOF 4
ENDMDL
MODEL 5
REMARK VINA RESULT:      -2.6      2.346      4.778
REMARK  4 active torsions:
REMARK  status: ('A' for Active; 'I' for Inactive)
REMARK    1  A    between atoms: C_7  and  N_2 
REMARK    2  A    between atoms: C_10  and  C_7 
REMARK    3  A    between atoms: O_8  and  C_10 
REMARK    4  A    between atoms: C_9  and  O_8 
ROOT
ATOM      1  C   UNL d   1      32.803  20.574 -20.978  0.00  0.00     0.296 A 
ATOM      2  N   UNL d   1      32.941  20.779 -21.763  0.00  0.00    -0.266 N 
ATOM      3  S   UNL d   1      32.499  21.251 -20.588  0.00  0.00    -0.025 SA
ATOM      4  C   UNL d   1      32.726  21.574 -21.864  0.00  0.00     0.074 A 
ATOM      5  C   UNL d   1      32.455  21.863 -21.145  0.00  0.00     0.050 A 
ATOM      6  O   UNL d   1      32.937  19.841 -20.633  0.00  0.00    -0.259 OA
ATOM      7  C   UNL d   1      32.747  22.065 -22.529  0.00  0.00     0.018 A 
ATOM      8  C   UNL d   1      32.199  22.649 -21.074  0.00  0.00     0.008 A 
ATOM      9  C   UNL d   1      32.493  22.849 -22.464  0.00  0.00     0.002 A 
ATOM     10  C   UNL d   1      32.222  23.138 -21.745  0.00  0.00     0.001 A 
ENDROOT
BRANCH   2  11
ATOM     11  C   UNL d   1      33.241  20.281 -22.348  0.00  0.00     0.110 C 
BRANCH  11  12
ATOM     12  C   UNL d   1      32.809  19.628 -22.601  0.00  0.00     0.142 C 
BRANCH  12  13
ATOM     13  O   UNL d   1      33.075  19.157 -23.228  0.00  0.00    -0.304 OA
BRANCH  13  14
ATOM     14  C   UNL d   1      32.637  18.502 -23.472  0.00  0.00     0.100 A 
ATOM     15  C   UNL d   1      31.984  18.604 -23.966  0.00  0.00     0.025 A 
ATOM     16  C   UNL d   1      31.549  17.952 -24.209  0.00  0.00     0.002 A 
ATOM     17  C   UNL d   1      31.767  17.198 -23.956  0.00  0.00     0.000 A 
ATOM     18  C   UNL d   1      32.422  17.098 -23.459  0.00  0.00     0.002 A 
ATOM     19  C   UNL d   1      32.853  17.758 -23.222  0.00  0.00     0.025 A 
ENDBRANCH  13  14
ENDBRANCH  12  13
ENDBRANCH  11  12
ENDBRANCH   2  11
TORSDOF 4
ENDMDL
MODEL 6
REMARK VINA RESULT:      -2.4      1.811      4.608
REMARK  4 active torsions:
REMARK  status: ('A' for Active; 'I' for Inactive)
REMARK    1  A    between atoms: C_7  and  N_2 
REMARK    2  A    between atoms: C_10  and  C_7 
REMARK    3  A    between atoms: O_8  and  C_10 
REMARK    4  A    between atoms: C_9  and  O_8 
ROOT
ATOM      1  C   UNL d   1      33.236  20.639 -23.393  0.00  0.00     0.296 A 
ATOM      2  N   UNL d   1      33.235  19.976 -22.904  0.00  0.00    -0.266 N 
ATOM      3  S   UNL d   1      33.229  21.317 -22.900  0.00  0.00    -0.025 SA
ATOM      4  C   UNL d   1      33.229  20.236 -22.116  0.00  0.00     0.074 A 
ATOM      5  C   UNL d   1      33.225  21.057 -22.114  0.00  0.00     0.050 A 
ATOM      6  O   UNL d   1      33.241  20.642 -24.214  0.00  0.00    -0.259 OA
ATOM      7  C   UNL d   1      33.226  19.816 -21.404  0.00  0.00     0.018 A 
ATOM      8  C   UNL d   1      33.219  21.477 -21.398  0.00  0.00     0.008 A 
ATOM      9  C   UNL d   1      33.220  20.231 -20.688  0.00  0.00     0.002 A 
ATOM     10  C   UNL d   1      33.216  21.052 -20.686  0.00  0.00     0.001 A 
ENDROOT
BRANCH   2  11
ATOM     11  C   UNL d   1      33.241  19.190 -23.155  0.00  0.00     0.110 C 
BRANCH  11  12
ATOM     12  C   UNL d   1      32.556  18.842 -23.449  0.00  0.00     0.142 C 
BRANCH  12  13
ATOM     13  O   UNL d   1      32.563  18.069 -23.743  0.00  0.00    -0.304 OA
BRANCH  13  14
ATOM     14  C   UNL d   1      31.856  17.690 -23.938  0.00  0.00     0.100 A 
ATOM     15  C   UNL d   1      31.657  16.977 -23.573  0.00  0.00     0.025 A 
ATOM     16  C   UNL d   1      30.953  16.601 -23.767  0.00  0.00     0.002 A 
ATOM     17  C   UNL d   1      30.450  16.939 -24.326  0.00  0.00     0.000 A 
ATOM     18  C   UNL d   1      30.652  17.655 -24.691  0.00  0.00     0.002 A 
ATOM     19  C   UNL d   1      31.360  18.025 -24.490  0.00  0.00     0.025 A 
ENDBRANCH  13  14
ENDBRANCH  12  13
ENDBRANCH  11  12
ENDBRANCH   2  11
TORSDOF 4
ENDMDL
MODEL 7
REMARK VINA RESULT:      -1.7      4.638      6.519
REMARK  4 active torsions:
REMARK  status: ('A' for Active; 'I' for Inactive)
REMARK    1  A    between atoms: C_7  and  N_2 
REMARK    2  A    between atoms: C_10  and  C_7 
REMARK    3  A    between atoms: O_8  and  C_10 
REMARK    4  A    between atoms: C_9  and  O_8 
ROOT
ATOM      1  C   UNL d   1      32.685  22.734 -21.214  0.00  0.00     0.296 A 
ATOM      2  N   UNL d   1      32.988  22.317 -20.572  0.00  0.00    -0.266 N 
ATOM      3  S   UNL d   1      32.502  22.178 -21.814  0.00  0.00    -0.025 SA
ATOM      4  C   UNL d   1      32.996  21.511 -20.767  0.00  0.00     0.074 A 
ATOM      5  C   UNL d   1      32.698  21.425 -21.528  0.00  0.00     0.050 A 
ATOM      6  O   UNL d   1      32.578  23.547 -21.263  0.00  0.00    -0.259 OA
ATOM      7  C   UNL d   1      33.239  20.847 -20.338  0.00  0.00     0.018 A 
ATOM      8  C   UNL d   1      32.638  20.675 -21.877  0.00  0.00     0.008 A 
ATOM      9  C   UNL d   1      33.181  20.097 -20.682  0.00  0.00     0.002 A 
ATOM     10  C   UNL d   1      32.884  20.012 -21.442  0.00  0.00     0.001 A 
ENDROOT
BRANCH   2  11
ATOM     11  C   UNL d   1      33.241  22.644 -19.858  0.00  0.00     0.110 C 
BRANCH  11  12
ATOM     12  C   UNL d   1      32.701  22.999 -19.348  0.00  0.00     0.142 C 
BRANCH  12  13
ATOM     13  O   UNL d   1      32.947  23.557 -18.789  0.00  0.00    -0.304 OA
BRANCH  13  14
ATOM     14  C   UNL d   1      32.679  23.512 -18.010  0.00  0.00     0.100 A 
ATOM     15  C   UNL d   1      31.876  23.609 -17.844  0.00  0.00     0.025 A 
ATOM     16  C   UNL d   1      31.610  23.564 -17.069  0.00  0.00     0.002 A 
ATOM     17  C   UNL d   1      32.148  23.422 -16.460  0.00  0.00     0.000 A 
ATOM     18  C   UNL d   1      32.953  23.324 -16.629  0.00  0.00     0.002 A 
ATOM     19  C   UNL d   1      33.210  23.371 -17.409  0.00  0.00     0.025 A 
ENDBRANCH  13  14
ENDBRANCH  12  13
ENDBRANCH  11  12
ENDBRANCH   2  11
TORSDOF 4
ENDMDL
MODEL 8
REMARK VINA RESULT:      -1.3      2.663      3.717
REMARK  4 active torsions:
REMARK  status: ('A' for Active; 'I' for Inactive)
REMARK    1  A    between atoms: C_7  and  N_2 
REMARK    2  A    between atoms: C_10  and  C_7 
REMARK    3  A    between atoms: O_8  and  C_10 
REMARK    4  A    between atoms: C_9  and  O_8 
ROOT
ATOM      1  C   UNL d   1      33.235  19.367 -22.259  0.00  0.00     0.296 A 
ATOM      2  N   UNL d   1      33.229  19.957 -22.834  0.00  0.00    -0.266 N 
ATOM      3  S   UNL d   1      33.234  18.628 -22.655  0.00  0.00    -0.025 SA
ATOM      4  C   UNL d   1      33.224  19.593 -23.579  0.00  0.00     0.074 A 
ATOM      5  C   UNL d   1      33.227  18.779 -23.469  0.00  0.00     0.050 A 
ATOM      6  O   UNL d   1      33.241  19.477 -21.445  0.00  0.00    -0.259 OA
ATOM      7  C   UNL d   1      33.218  19.911 -24.342  0.00  0.00     0.018 A 
ATOM      8  C   UNL d   1      33.224  18.265 -24.120  0.00  0.00     0.008 A 
ATOM      9  C   UNL d   1      33.214  19.402 -24.994  0.00  0.00     0.002 A 
ATOM     10  C   UNL d   1      33.217  18.589 -24.884  0.00  0.00     0.001 A 
ENDROOT
BRANCH   2  11
ATOM     11  C   UNL d   1      33.228  20.770 -22.693  0.00  0.00     0.110 C 
BRANCH  11  12
ATOM     12  C   UNL d   1      32.819  21.081 -22.049  0.00  0.00     0.142 C 
BRANCH  12  13
ATOM     13  O   UNL d   1      32.489  21.839 -22.080  0.00  0.00    -0.304 OA
BRANCH  13  14
ATOM     14  C   UNL d   1      32.571  22.355 -21.441  0.00  0.00     0.100 A 
ATOM     15  C   UNL d   1      32.963  23.075 -21.540  0.00  0.00     0.025 A 
ATOM     16  C   UNL d   1      33.043  23.587 -20.904  0.00  0.00     0.002 A 
ATOM     17  C   UNL d   1      32.732  23.379 -20.169  0.00  0.00     0.000 A 
ATOM     18  C   UNL d   1      32.339  22.657 -20.073  0.00  0.00     0.002 A 
ATOM     19  C   UNL d   1      32.263  22.149 -20.716  0.00  0.00     0.025 A 
ENDBRANCH  13  14
ENDBRANCH  12  13
ENDBRANCH  11  12
ENDBRANCH   2  11
TORSDOF 4
ENDMDL
