MODEL 1
REMARK VINA RESULT:       6.5      0.000      0.000
REMARK  4 active torsions:
REMARK  status: ('A' for Active; 'I' for Inactive)
REMARK       I    between atoms: C_3  and  N_7 
REMARK    1  A    between atoms: C_6  and  C_3 
REMARK    2  A    between atoms: C_8  and  C_6 
REMARK    3  A    between atoms: N_7  and  C_9 
REMARK    4  A    between atoms: C_13  and  C_8 
ROOT
ATOM      1  C   UNL d   1      46.111 -17.347  44.229  0.00  0.00     0.279 C 
ATOM      2  N   UNL d   1      46.307 -17.782  43.554  0.00  0.00    -0.207 NA
ATOM      3  O   UNL d   1      46.056 -17.723  44.954  0.00  0.00    -0.265 OA
ENDROOT
BRANCH   1   4
ATOM      4  C   UNL d   1      45.972 -16.536  44.166  0.00  0.00     0.062 C 
BRANCH   4   5
ATOM      5  C   UNL d   1      45.745 -16.104  44.827  0.00  0.00     0.005 C 
BRANCH   5   6
ATOM      6  C   UNL d   1      45.585 -15.303  44.768  0.00  0.00     0.000 A 
ATOM      7  C   UNL d   1      44.803 -15.037  44.730  0.00  0.00     0.000 A 
ATOM      8  C   UNL d   1      44.653 -14.235  44.671  0.00  0.00     0.000 A 
ATOM      9  C   UNL d   1      45.269 -13.696  44.649  0.00  0.00     0.000 A 
ATOM     10  C   UNL d   1      46.047 -13.955  44.685  0.00  0.00     0.000 A 
ATOM     11  C   UNL d   1      46.210 -14.764  44.745  0.00  0.00     0.000 A 
ENDBRANCH   5   6
ENDBRANCH   4   5
ENDBRANCH   1   4
BRANCH   2  12
ATOM     12  C   UNL d   1      46.445 -18.588  43.617  0.00  0.00     0.097 A 
ATOM     13  C   UNL d   1      46.402 -18.640  42.793  0.00  0.00     0.118 A 
ATOM     14  S   UNL d   1      46.520 -19.431  42.579  0.00  0.00     0.213 S 
ATOM     15  O   UNL d   1      46.395 -18.916  41.949  0.00  0.00    -0.217 OA
ATOM     16  O   UNL d   1      46.646 -20.238  42.441  0.00  0.00    -0.217 OA
ATOM     17  C   UNL d   1      46.636 -19.869  43.273  0.00  0.00     0.100 A 
ATOM     18  C   UNL d   1      46.591 -19.353  43.912  0.00  0.00     0.032 A 
ENDBRANCH   2  12
TORSDOF 4
ENDMDL
MODEL 2
REMARK VINA RESULT:       7.9      2.104      4.670
REMARK  4 active torsions:
REMARK  status: ('A' for Active; 'I' for Inactive)
REMARK       I    between atoms: C_3  and  N_7 
REMARK    1  A    between atoms: C_6  and  C_3 
REMARK    2  A    between atoms: C_8  and  C_6 
REMARK    3  A    between atoms: N_7  and  C_9 
REMARK    4  A    between atoms: C_13  and  C_8 
ROOT
ATOM      1  C   UNL d   1      45.717 -16.571  44.328  0.00  0.00     0.279 C 
ATOM      2  N   UNL d   1      45.840 -15.786  44.098  0.00  0.00    -0.207 NA
ATOM      3  O   UNL d   1      45.204 -16.739  44.942  0.00  0.00    -0.265 OA
ENDROOT
BRANCH   1   4
ATOM      4  C   UNL d   1      46.113 -17.179  43.934  0.00  0.00     0.062 C 
BRANCH   4   5
ATOM      5  C   UNL d   1      46.087 -17.945  44.227  0.00  0.00     0.005 C 
BRANCH   5   6
ATOM      6  C   UNL d   1      46.270 -18.582  43.746  0.00  0.00     0.000 A 
ATOM      7  C   UNL d   1      46.366 -18.475  42.931  0.00  0.00     0.000 A 
ATOM      8  C   UNL d   1      46.548 -19.116  42.459  0.00  0.00     0.000 A 
ATOM      9  C   UNL d   1      46.637 -19.863  42.784  0.00  0.00     0.000 A 
ATOM     10  C   UNL d   1      46.544 -19.974  43.592  0.00  0.00     0.000 A 
ATOM     11  C   UNL d   1      46.359 -19.332  44.079  0.00  0.00     0.000 A 
ENDBRANCH   5   6
ENDBRANCH   4   5
ENDBRANCH   1   4
BRANCH   2  12
ATOM     12  C   UNL d   1      45.446 -15.183  44.490  0.00  0.00     0.097 A 
ATOM     13  C   UNL d   1      46.002 -14.650  44.188  0.00  0.00     0.118 A 
ATOM     14  S   UNL d   1      45.809 -13.893  44.463  0.00  0.00     0.213 S 
ATOM     15  O   UNL d   1      46.474 -13.928  43.980  0.00  0.00    -0.217 OA
ATOM     16  O   UNL d   1      45.555 -13.170  44.776  0.00  0.00    -0.217 OA
ATOM     17  C   UNL d   1      45.132 -13.959  44.937  0.00  0.00     0.100 A 
ATOM     18  C   UNL d   1      44.907 -14.750  44.955  0.00  0.00     0.032 A 
ENDBRANCH   2  12
TORSDOF 4
ENDMDL
