MODEL 1
REMARK VINA RESULT:      23.7      0.000      0.000
REMARK  6 active torsions:
REMARK  status: ('A' for Active; 'I' for Inactive)
REMARK    1  A    between atoms: C_7  and  S_1 
REMARK    2  A    between atoms: N_9  and  S_1 
REMARK    3  A    between atoms: C_20  and  N_2 
REMARK    4  A    between atoms: C_10  and  N_9 
REMARK    5  A    between atoms: O_24  and  C_13 
REMARK    6  A    between atoms: O_25  and  C_19 
ROOT
ATOM      1  N   UNL d   1      46.473 -18.697  42.076  0.00  0.00    -0.273 N 
ATOM      2  C   UNL d   1      46.479 -19.502  42.790  0.00  0.00     0.265 A 
ATOM      3  C   UNL d   1      46.337 -18.046  42.540  0.00  0.00     0.067 A 
ATOM      4  C   UNL d   1      46.270 -18.300  43.317  0.00  0.00     0.021 A 
ATOM      5  C   UNL d   1      46.342 -19.104  43.501  0.00  0.00     0.058 A 
ATOM      6  C   UNL d   1      46.054 -16.938  43.743  0.00  0.00     0.105 A 
ATOM      7  C   UNL d   1      46.129 -17.759  43.923  0.00  0.00     0.014 A 
ATOM      8  C   UNL d   1      46.266 -17.246  42.353  0.00  0.00     0.018 A 
ATOM      9  C   UNL d   1      46.122 -16.684  42.966  0.00  0.00     0.014 A 
ATOM     10  O   UNL d   1      46.577 -20.329  42.791  0.00  0.00    -0.267 OA
ATOM     11  C   UNL d   1      46.275 -19.357  44.274  0.00  0.00     0.005 A 
ATOM     12  C   UNL d   1      46.062 -18.011  44.696  0.00  0.00     0.001 A 
ATOM     13  C   UNL d   1      46.133 -18.815  44.890  0.00  0.00     0.000 A 
ENDROOT
BRANCH   6  14
ATOM     14  S   UNL d   1      45.913 -16.392  44.350  0.00  0.00     0.285 S 
ATOM     15  O   UNL d   1      46.627 -16.010  44.174  0.00  0.00    -0.198 OA
ATOM     16  O   UNL d   1      45.196 -16.775  44.530  0.00  0.00    -0.198 OA
BRANCH  14  17
ATOM     17  N   UNL d   1      45.769 -15.854  44.954  0.00  0.00    -0.156 NA
BRANCH  17  18
ATOM     18  C   UNL d   1      45.746 -15.054  44.789  0.00  0.00     0.116 A 
ATOM     19  C   UNL d   1      45.034 -14.669  44.784  0.00  0.00     0.114 A 
ATOM     20  C   UNL d   1      45.005 -13.869  44.620  0.00  0.00     0.050 A 
ATOM     21  C   UNL d   1      45.677 -13.441  44.460  0.00  0.00     0.096 A 
ATOM     22  C   UNL d   1      46.409 -13.859  44.470  0.00  0.00     0.026 A 
ATOM     23  C   UNL d   1      46.442 -14.657  44.633  0.00  0.00     0.024 A 
BRANCH  19  24
ATOM     24  O   UNL d   1      44.329 -15.092  44.946  0.00  0.00    -0.327 OA
ATOM     25  C   UNL d   1      43.588 -14.720  44.848  0.00  0.00     0.181 C 
ENDBRANCH  19  24
BRANCH  21  26
ATOM     26  O   UNL d   1      45.658 -12.614  44.289  0.00  0.00    -0.328 OA
ATOM     27  C   UNL d   1      45.473 -12.362  43.508  0.00  0.00     0.181 C 
ENDBRANCH  21  26
ENDBRANCH  17  18
ENDBRANCH  14  17
ENDBRANCH   6  14
BRANCH   1  28
ATOM     28  C   UNL d   1      46.566 -18.605  41.254  0.00  0.00     0.083 C 
ATOM     29  C   UNL d   1      46.588 -19.259  40.768  0.00  0.00     0.021 C 
ENDBRANCH   1  28
TORSDOF 6
ENDMDL
