MODEL 1
REMARK VINA RESULT:       8.4      0.000      0.000
REMARK  3 active torsions:
REMARK  status: ('A' for Active; 'I' for Inactive)
REMARK       I    between atoms: C_6  and  N_1 
REMARK    1  A    between atoms: C_11  and  C_5 
REMARK    2  A    between atoms: C_12  and  C_6 
REMARK    3  A    between atoms: C_27  and  N_10 
ROOT
ATOM      1  N   UNL d   1     -41.398-121.958 -51.994  0.00  0.00    -0.264 N 
ATOM      2  C   UNL d   1     -41.448-122.752 -52.236  0.00  0.00     0.198 A 
ATOM      3  C   UNL d   1     -41.515-121.940 -51.174  0.00  0.00     0.138 A 
ATOM      4  N   UNL d   1     -41.593-123.208 -51.569  0.00  0.00    -0.243 NA
ATOM      5  C   UNL d   1     -41.635-122.712 -50.912  0.00  0.00     0.105 A 
ATOM      6  C   UNL d   1     -41.261-121.316 -52.475  0.00  0.00     0.263 C 
ATOM      7  C   UNL d   1     -41.509-123.558 -52.403  0.00  0.00     0.041 A 
ATOM      8  C   UNL d   1     -41.304-122.219 -52.837  0.00  0.00     0.041 A 
ATOM      9  S   UNL d   1     -41.512-121.259 -50.698  0.00  0.00    -0.058 SA
ATOM     10  N   UNL d   1     -41.279-123.279 -53.788  0.00  0.00    -0.303 N 
ATOM     11  O   UNL d   1     -41.154-121.423 -53.291  0.00  0.00    -0.267 OA
ATOM     12  C   UNL d   1     -41.220-122.482 -53.613  0.00  0.00     0.080 A 
ATOM     13  C   UNL d   1     -41.423-123.812 -53.187  0.00  0.00     0.080 A 
ENDROOT
BRANCH   6  14
ATOM     14  C   UNL d   1     -41.227-120.560 -52.155  0.00  0.00     0.056 A 
ATOM     15  C   UNL d   1     -41.158-120.466 -51.346  0.00  0.00     0.005 A 
ATOM     16  C   UNL d   1     -41.123-119.709 -51.021  0.00  0.00     0.000 A 
ATOM     17  C   UNL d   1     -41.159-119.045 -51.511  0.00  0.00     0.000 A 
ATOM     18  C   UNL d   1     -41.228-119.143 -52.332  0.00  0.00     0.000 A 
ATOM     19  C   UNL d   1     -41.124-118.287 -51.183  0.00  0.00     0.000 C 
ATOM     20  C   UNL d   1     -41.262-119.899 -52.652  0.00  0.00     0.005 A 
ENDBRANCH   6  14
BRANCH   5  21
ATOM     21  C   UNL d   1     -41.772-122.947 -50.136  0.00  0.00     0.020 A 
ATOM     22  C   UNL d   1     -42.508-122.790 -49.781  0.00  0.00     0.004 A 
ATOM     23  C   UNL d   1     -42.646-123.031 -48.989  0.00  0.00     0.030 A 
ATOM     24  C   UNL d   1     -42.046-123.423 -48.570  0.00  0.00     0.140 A 
ATOM     25  C   UNL d   1     -41.327-123.574 -48.925  0.00  0.00     0.030 A 
ATOM     26  F   UNL d   1     -42.186-123.658 -47.792  0.00  0.00    -0.204 F 
ATOM     27  C   UNL d   1     -41.173-123.345 -49.701  0.00  0.00     0.004 A 
ENDBRANCH   5  21
BRANCH  10  28
ATOM     28  C   UNL d   1     -41.194-123.545 -54.571  0.00  0.00     0.080 C 
ATOM     29  C   UNL d   1     -41.866-123.727 -55.018  0.00  0.00     0.021 C 
ENDBRANCH  10  28
TORSDOF 3
ENDMDL
MODEL 2
REMARK VINA RESULT:       9.6      1.818      4.115
REMARK  3 active torsions:
REMARK  status: ('A' for Active; 'I' for Inactive)
REMARK       I    between atoms: C_6  and  N_1 
REMARK    1  A    between atoms: C_11  and  C_5 
REMARK    2  A    between atoms: C_12  and  C_6 
REMARK    3  A    between atoms: C_27  and  N_10 
ROOT
ATOM      1  N   UNL d   1     -41.491-121.935 -52.450  0.00  0.00    -0.264 N 
ATOM      2  C   UNL d   1     -41.332-121.879 -51.636  0.00  0.00     0.198 A 
ATOM      3  C   UNL d   1     -41.490-121.166 -52.758  0.00  0.00     0.138 A 
ATOM      4  N   UNL d   1     -41.236-121.084 -51.455  0.00  0.00    -0.243 NA
ATOM      5  C   UNL d   1     -41.332-120.640 -52.143  0.00  0.00     0.105 A 
ATOM      6  C   UNL d   1     -41.623-122.621 -52.868  0.00  0.00     0.263 C 
ATOM      7  C   UNL d   1     -41.170-121.747 -50.837  0.00  0.00     0.041 A 
ATOM      8  C   UNL d   1     -41.443-122.638 -51.911  0.00  0.00     0.041 A 
ATOM      9  S   UNL d   1     -41.625-120.960 -53.552  0.00  0.00    -0.058 SA
ATOM     10  N   UNL d   1     -41.234-123.157 -50.602  0.00  0.00    -0.303 N 
ATOM     11  O   UNL d   1     -41.606-123.354 -52.480  0.00  0.00    -0.267 OA
ATOM     12  C   UNL d   1     -41.394-123.278 -51.394  0.00  0.00     0.080 A 
ATOM     13  C   UNL d   1     -41.123-122.397 -50.326  0.00  0.00     0.080 A 
ENDROOT
BRANCH   6  14
ATOM     14  C   UNL d   1     -41.774-122.590 -53.675  0.00  0.00     0.056 A 
ATOM     15  C   UNL d   1     -41.163-122.704 -54.205  0.00  0.00     0.005 A 
ATOM     16  C   UNL d   1     -41.311-122.674 -55.016  0.00  0.00     0.000 A 
ATOM     17  C   UNL d   1     -42.075-122.528 -55.294  0.00  0.00     0.000 A 
ATOM     18  C   UNL d   1     -42.693-122.413 -54.753  0.00  0.00     0.000 A 
ATOM     19  C   UNL d   1     -42.220-122.499 -56.108  0.00  0.00     0.000 C 
ATOM     20  C   UNL d   1     -42.542-122.444 -53.947  0.00  0.00     0.005 A 
ENDBRANCH   6  14
BRANCH   5  21
ATOM     21  C   UNL d   1     -41.280-119.822 -52.203  0.00  0.00     0.020 A 
ATOM     22  C   UNL d   1     -41.276-119.462 -52.954  0.00  0.00     0.004 A 
ATOM     23  C   UNL d   1     -41.222-118.628 -53.012  0.00  0.00     0.030 A 
ATOM     24  C   UNL d   1     -41.175-118.170 -52.321  0.00  0.00     0.140 A 
ATOM     25  C   UNL d   1     -41.180-118.529 -51.588  0.00  0.00     0.030 A 
ATOM     26  F   UNL d   1     -41.123-117.349 -52.384  0.00  0.00    -0.204 F 
ATOM     27  C   UNL d   1     -41.232-119.348 -51.511  0.00  0.00     0.004 A 
ENDBRANCH   5  21
BRANCH  10  28
ATOM     28  C   UNL d   1     -41.185-123.802 -50.079  0.00  0.00     0.080 C 
ATOM     29  C   UNL d   1     -41.220-123.672 -49.262  0.00  0.00     0.021 C 
ENDBRANCH  10  28
TORSDOF 3
ENDMDL
MODEL 3
REMARK VINA RESULT:       9.8      1.529      3.502
REMARK  3 active torsions:
REMARK  status: ('A' for Active; 'I' for Inactive)
REMARK       I    between atoms: C_6  and  N_1 
REMARK    1  A    between atoms: C_11  and  C_5 
REMARK    2  A    between atoms: C_12  and  C_6 
REMARK    3  A    between atoms: C_27  and  N_10 
ROOT
ATOM      1  N   UNL d   1     -41.512-122.269 -52.450  0.00  0.00    -0.264 N 
ATOM      2  C   UNL d   1     -41.406-122.032 -53.240  0.00  0.00     0.198 A 
ATOM      3  C   UNL d   1     -41.487-121.586 -51.981  0.00  0.00     0.138 A 
ATOM      4  N   UNL d   1     -41.318-121.216 -53.247  0.00  0.00    -0.243 NA
ATOM      5  C   UNL d   1     -41.367-120.936 -52.473  0.00  0.00     0.105 A 
ATOM      6  C   UNL d   1     -41.621-123.030 -52.186  0.00  0.00     0.263 C 
ATOM      7  C   UNL d   1     -41.296-121.726 -53.998  0.00  0.00     0.041 A 
ATOM      8  C   UNL d   1     -41.504-122.834 -53.132  0.00  0.00     0.041 A 
ATOM      9  S   UNL d   1     -41.568-121.562 -51.154  0.00  0.00    -0.058 SA
ATOM     10  N   UNL d   1     -41.384-123.049 -54.535  0.00  0.00    -0.303 N 
ATOM     11  O   UNL d   1     -41.634-123.659 -52.727  0.00  0.00    -0.267 OA
ATOM     12  C   UNL d   1     -41.492-123.343 -53.780  0.00  0.00     0.080 A 
ATOM     13  C   UNL d   1     -41.286-122.246 -54.643  0.00  0.00     0.080 A 
ENDROOT
BRANCH   6  14
ATOM     14  C   UNL d   1     -41.719-123.180 -51.384  0.00  0.00     0.056 A 
ATOM     15  C   UNL d   1     -41.124-123.555 -50.967  0.00  0.00     0.005 A 
ATOM     16  C   UNL d   1     -41.219-123.707 -50.162  0.00  0.00     0.000 A 
ATOM     17  C   UNL d   1     -41.913-123.480 -49.776  0.00  0.00     0.000 A 
ATOM     18  C   UNL d   1     -42.515-123.099 -50.201  0.00  0.00     0.000 A 
ATOM     19  C   UNL d   1     -42.005-123.634 -48.968  0.00  0.00     0.000 C 
ATOM     20  C   UNL d   1     -42.417-122.950 -51.003  0.00  0.00     0.005 A 
ENDBRANCH   6  14
BRANCH   5  21
ATOM     21  C   UNL d   1     -41.306-120.151 -52.237  0.00  0.00     0.020 A 
ATOM     22  C   UNL d   1     -41.303-119.962 -51.427  0.00  0.00     0.004 A 
ATOM     23  C   UNL d   1     -41.241-119.160 -51.188  0.00  0.00     0.030 A 
ATOM     24  C   UNL d   1     -41.184-118.565 -51.764  0.00  0.00     0.140 A 
ATOM     25  C   UNL d   1     -41.188-118.757 -52.557  0.00  0.00     0.030 A 
ATOM     26  F   UNL d   1     -41.124-117.778 -51.525  0.00  0.00    -0.204 F 
ATOM     27  C   UNL d   1     -41.248-119.539 -52.810  0.00  0.00     0.004 A 
ENDBRANCH   5  21
BRANCH  10  28
ATOM     28  C   UNL d   1     -41.372-123.562 -55.190  0.00  0.00     0.080 C 
ATOM     29  C   UNL d   1     -41.933-123.473 -55.791  0.00  0.00     0.021 C 
ENDBRANCH  10  28
TORSDOF 3
ENDMDL
MODEL 4
REMARK VINA RESULT:      10.5      1.815      3.576
REMARK  3 active torsions:
REMARK  status: ('A' for Active; 'I' for Inactive)
REMARK       I    between atoms: C_6  and  N_1 
REMARK    1  A    between atoms: C_11  and  C_5 
REMARK    2  A    between atoms: C_12  and  C_6 
REMARK    3  A    between atoms: C_27  and  N_10 
ROOT
ATOM      1  N   UNL d   1     -41.318-121.884 -51.745  0.00  0.00    -0.264 N 
ATOM      2  C   UNL d   1     -41.353-122.694 -51.560  0.00  0.00     0.198 A 
ATOM      3  C   UNL d   1     -41.404-121.813 -52.566  0.00  0.00     0.138 A 
ATOM      4  N   UNL d   1     -41.458-123.107 -52.262  0.00  0.00    -0.243 NA
ATOM      5  C   UNL d   1     -41.490-122.568 -52.885  0.00  0.00     0.105 A 
ATOM      6  C   UNL d   1     -41.219-121.274 -51.216  0.00  0.00     0.263 C 
ATOM      7  C   UNL d   1     -41.397-123.511 -51.451  0.00  0.00     0.041 A 
ATOM      8  C   UNL d   1     -41.249-122.201 -50.919  0.00  0.00     0.041 A 
ATOM      9  S   UNL d   1     -41.403-121.100 -52.994  0.00  0.00    -0.058 SA
ATOM     10  N   UNL d   1     -41.229-123.323 -50.043  0.00  0.00    -0.303 N 
ATOM     11  O   UNL d   1     -41.140-121.435 -50.406  0.00  0.00    -0.267 OA
ATOM     12  C   UNL d   1     -41.187-122.515 -50.160  0.00  0.00     0.080 A 
ATOM     13  C   UNL d   1     -41.333-123.817 -50.684  0.00  0.00     0.080 A 
ENDROOT
BRANCH   6  14
ATOM     14  C   UNL d   1     -41.195-120.497 -51.482  0.00  0.00     0.056 A 
ATOM     15  C   UNL d   1     -41.220-120.343 -52.285  0.00  0.00     0.005 A 
ATOM     16  C   UNL d   1     -41.196-119.565 -52.555  0.00  0.00     0.000 A 
ATOM     17  C   UNL d   1     -41.148-118.940 -52.018  0.00  0.00     0.000 A 
ATOM     18  C   UNL d   1     -41.123-119.098 -51.204  0.00  0.00     0.000 A 
ATOM     19  C   UNL d   1     -41.124-118.159 -52.292  0.00  0.00     0.000 C 
ATOM     20  C   UNL d   1     -41.146-119.875 -50.938  0.00  0.00     0.005 A 
ENDBRANCH   6  14
BRANCH   5  21
ATOM     21  C   UNL d   1     -41.590-122.752 -53.680  0.00  0.00     0.020 A 
ATOM     22  C   UNL d   1     -42.085-122.280 -54.154  0.00  0.00     0.004 A 
ATOM     23  C   UNL d   1     -42.186-122.470 -54.965  0.00  0.00     0.030 A 
ATOM     24  C   UNL d   1     -41.790-123.126 -55.284  0.00  0.00     0.140 A 
ATOM     25  C   UNL d   1     -41.306-123.585 -54.813  0.00  0.00     0.030 A 
ATOM     26  F   UNL d   1     -41.892-123.310 -56.082  0.00  0.00    -0.204 F 
ATOM     27  C   UNL d   1     -41.195-123.414 -54.015  0.00  0.00     0.004 A 
ENDBRANCH   5  21
BRANCH  10  28
ATOM     28  C   UNL d   1     -41.166-123.641 -49.276  0.00  0.00     0.080 C 
ATOM     29  C   UNL d   1     -41.849-123.765 -48.826  0.00  0.00     0.021 C 
ENDBRANCH  10  28
TORSDOF 3
ENDMDL
