MODEL 1
REMARK VINA RESULT:      23.6      0.000      0.000
REMARK  3 active torsions:
REMARK  status: ('A' for Active; 'I' for Inactive)
REMARK    1  A    between atoms: N_2  and  C_1 
REMARK    2  A    between atoms: C_4  and  C_8 
REMARK    3  A    between atoms: N_14  and  C_5 
ROOT
ATOM      1  C   UNL d   1      45.122 -14.464  44.260  0.00  0.00     0.143 A 
ATOM      2  C   UNL d   1      45.804 -14.003  44.276  0.00  0.00     0.086 A 
ATOM      3  C   UNL d   1      45.179 -15.291  44.250  0.00  0.00     0.027 A 
ATOM      4  C   UNL d   1      45.928 -15.655  44.256  0.00  0.00     0.021 A 
ATOM      5  C   UNL d   1      46.545 -14.362  44.282  0.00  0.00     0.019 A 
ATOM      6  C   UNL d   1      46.613 -15.187  44.272  0.00  0.00     0.003 A 
ENDROOT
BRANCH   4   7
ATOM      7  C   UNL d   1      45.989 -16.475  44.246  0.00  0.00     0.103 A 
ATOM      8  N   UNL d   1      45.976 -16.899  44.955  0.00  0.00    -0.145 NA
ATOM      9  N   UNL d   1      46.036 -17.718  44.944  0.00  0.00    -0.106 NA
ATOM     10  C   UNL d   1      46.109 -18.118  44.227  0.00  0.00     0.297 A 
ATOM     11  C   UNL d   1      46.121 -17.694  43.519  0.00  0.00     0.066 A 
ATOM     12  O   UNL d   1      46.169 -18.939  44.217  0.00  0.00    -0.264 OA
ATOM     13  C   UNL d   1      46.061 -16.867  43.525  0.00  0.00     0.024 A 
ATOM     14  C   UNL d   1      46.074 -16.447  42.818  0.00  0.00     0.002 C 
ENDBRANCH   4   7
BRANCH   1  15
ATOM     15  N   UNL d   1      44.374 -14.109  44.254  0.00  0.00    -0.112 N 
ATOM     16  O   UNL d   1      43.932 -14.085  44.955  0.00  0.00    -0.532 OA
ATOM     17  O   UNL d   1      44.070 -13.785  43.562  0.00  0.00    -0.532 OA
ENDBRANCH   1  15
BRANCH   2  18
ATOM     18  N   UNL d   1      45.743 -13.183  44.286  0.00  0.00    -0.300 N 
ATOM     19  C   UNL d   1      45.434 -12.788  43.634  0.00  0.00     0.100 C 
ATOM     20  C   UNL d   1      45.991 -12.759  44.947  0.00  0.00     0.100 C 
ENDBRANCH   2  18
TORSDOF 3
ENDMDL
MODEL 2
REMARK VINA RESULT:      24.4      6.888      7.954
REMARK  3 active torsions:
REMARK  status: ('A' for Active; 'I' for Inactive)
REMARK    1  A    between atoms: N_2  and  C_1 
REMARK    2  A    between atoms: C_4  and  C_8 
REMARK    3  A    between atoms: N_14  and  C_5 
ROOT
ATOM      1  C   UNL d   1      44.855 -14.644  37.259  0.00  0.00     0.143 A 
ATOM      2  C   UNL d   1      45.438 -15.092  36.890  0.00  0.00     0.086 A 
ATOM      3  C   UNL d   1      44.056 -14.845  37.168  0.00  0.00     0.027 A 
ATOM      4  C   UNL d   1      43.844 -15.502  36.701  0.00  0.00     0.021 A 
ATOM      5  C   UNL d   1      45.230 -15.742  36.428  0.00  0.00     0.019 A 
ATOM      6  C   UNL d   1      44.435 -15.951  36.331  0.00  0.00     0.003 A 
ENDROOT
BRANCH   4   7
ATOM      7  C   UNL d   1      43.052 -15.704  36.609  0.00  0.00     0.103 A 
ATOM      8  N   UNL d   1      42.473 -15.115  36.604  0.00  0.00    -0.145 NA
ATOM      9  N   UNL d   1      41.682 -15.317  36.512  0.00  0.00    -0.106 NA
ATOM     10  C   UNL d   1      41.465 -16.107  36.423  0.00  0.00     0.297 A 
ATOM     11  C   UNL d   1      42.045 -16.696  36.428  0.00  0.00     0.066 A 
ATOM     12  O   UNL d   1      40.673 -16.309  36.331  0.00  0.00    -0.264 OA
ATOM     13  C   UNL d   1      42.844 -16.496  36.521  0.00  0.00     0.024 A 
ATOM     14  C   UNL d   1      43.419 -17.084  36.525  0.00  0.00     0.002 C 
ENDBRANCH   4   7
BRANCH   1  15
ATOM     15  N   UNL d   1      45.058 -13.990  37.725  0.00  0.00    -0.112 N 
ATOM     16  O   UNL d   1      45.458 -13.353  37.376  0.00  0.00    -0.532 OA
ATOM     17  O   UNL d   1      44.865 -13.970  38.524  0.00  0.00    -0.532 OA
ENDBRANCH   1  15
BRANCH   2  18
ATOM     18  N   UNL d   1      46.230 -14.890  36.983  0.00  0.00    -0.300 N 
ATOM     19  C   UNL d   1      46.647 -15.159  37.639  0.00  0.00     0.100 C 
ATOM     20  C   UNL d   1      46.604 -14.419  36.420  0.00  0.00     0.100 C 
ENDBRANCH   2  18
TORSDOF 3
ENDMDL
MODEL 3
REMARK VINA RESULT:      25.0      1.884      4.508
REMARK  3 active torsions:
REMARK  status: ('A' for Active; 'I' for Inactive)
REMARK    1  A    between atoms: N_2  and  C_1 
REMARK    2  A    between atoms: C_4  and  C_8 
REMARK    3  A    between atoms: N_14  and  C_5 
ROOT
ATOM      1  C   UNL d   1      46.005 -18.384  42.511  0.00  0.00     0.143 A 
ATOM      2  C   UNL d   1      45.980 -19.000  43.056  0.00  0.00     0.086 A 
ATOM      3  C   UNL d   1      45.963 -17.597  42.770  0.00  0.00     0.027 A 
ATOM      4  C   UNL d   1      45.896 -17.432  43.584  0.00  0.00     0.021 A 
ATOM      5  C   UNL d   1      45.914 -18.837  43.861  0.00  0.00     0.019 A 
ATOM      6  C   UNL d   1      45.871 -18.056  44.130  0.00  0.00     0.003 A 
ENDROOT
BRANCH   4   7
ATOM      7  C   UNL d   1      45.854 -16.653  43.844  0.00  0.00     0.103 A 
ATOM      8  N   UNL d   1      46.279 -16.063  43.452  0.00  0.00    -0.145 NA
ATOM      9  N   UNL d   1      46.237 -15.284  43.712  0.00  0.00    -0.106 NA
ATOM     10  C   UNL d   1      45.771 -15.092  44.364  0.00  0.00     0.297 A 
ATOM     11  C   UNL d   1      45.347 -15.682  44.757  0.00  0.00     0.066 A 
ATOM     12  O   UNL d   1      45.729 -14.312  44.625  0.00  0.00    -0.264 OA
ATOM     13  C   UNL d   1      45.386 -16.469  44.497  0.00  0.00     0.024 A 
ATOM     14  C   UNL d   1      44.963 -17.054  44.889  0.00  0.00     0.002 C 
ENDBRANCH   4   7
BRANCH   1  15
ATOM     15  N   UNL d   1      46.072 -18.540  41.701  0.00  0.00    -0.112 N 
ATOM     16  O   UNL d   1      46.646 -18.138  41.257  0.00  0.00    -0.532 OA
ATOM     17  O   UNL d   1      45.577 -19.088  41.338  0.00  0.00    -0.532 OA
ENDBRANCH   1  15
BRANCH   2  18
ATOM     18  N   UNL d   1      46.022 -19.778  42.796  0.00  0.00    -0.300 N 
ATOM     19  C   UNL d   1      46.632 -20.011  42.295  0.00  0.00     0.100 C 
ATOM     20  C   UNL d   1      45.454 -20.325  43.035  0.00  0.00     0.100 C 
ENDBRANCH   2  18
TORSDOF 3
ENDMDL
MODEL 4
REMARK VINA RESULT:      25.9      0.945      1.290
REMARK  3 active torsions:
REMARK  status: ('A' for Active; 'I' for Inactive)
REMARK    1  A    between atoms: N_2  and  C_1 
REMARK    2  A    between atoms: C_4  and  C_8 
REMARK    3  A    between atoms: N_14  and  C_5 
ROOT
ATOM      1  C   UNL d   1      45.357 -13.706  43.910  0.00  0.00     0.143 A 
ATOM      2  C   UNL d   1      45.836 -13.320  44.456  0.00  0.00     0.086 A 
ATOM      3  C   UNL d   1      45.365 -14.534  43.861  0.00  0.00     0.027 A 
ATOM      4  C   UNL d   1      45.861 -14.974  44.365  0.00  0.00     0.021 A 
ATOM      5  C   UNL d   1      46.327 -13.755  44.955  0.00  0.00     0.019 A 
ATOM      6  C   UNL d   1      46.343 -14.581  44.914  0.00  0.00     0.003 A 
ENDROOT
BRANCH   4   7
ATOM      7  C   UNL d   1      45.871 -15.795  44.319  0.00  0.00     0.103 A 
ATOM      8  N   UNL d   1      46.517 -16.182  43.978  0.00  0.00    -0.145 NA
ATOM      9  N   UNL d   1      46.527 -17.002  43.931  0.00  0.00    -0.106 NA
ATOM     10  C   UNL d   1      45.894 -17.440  44.225  0.00  0.00     0.297 A 
ATOM     11  C   UNL d   1      45.249 -17.054  44.567  0.00  0.00     0.066 A 
ATOM     12  O   UNL d   1      45.905 -18.261  44.179  0.00  0.00    -0.264 OA
ATOM     13  C   UNL d   1      45.234 -16.226  44.615  0.00  0.00     0.024 A 
ATOM     14  C   UNL d   1      44.591 -15.844  44.955  0.00  0.00     0.002 C 
ENDBRANCH   4   7
BRANCH   1  15
ATOM     15  N   UNL d   1      44.861 -13.276  43.405  0.00  0.00    -0.112 N 
ATOM     16  O   UNL d   1      45.199 -12.781  42.831  0.00  0.00    -0.532 OA
ATOM     17  O   UNL d   1      44.044 -13.336  43.470  0.00  0.00    -0.532 OA
ENDBRANCH   1  15
BRANCH   2  18
ATOM     18  N   UNL d   1      45.825 -12.500  44.502  0.00  0.00    -0.300 N 
ATOM     19  C   UNL d   1      45.110 -12.096  44.451  0.00  0.00     0.100 C 
ATOM     20  C   UNL d   1      46.529 -12.082  44.598  0.00  0.00     0.100 C 
ENDBRANCH   2  18
TORSDOF 3
ENDMDL
