MODEL 1
REMARK VINA RESULT:      -4.2      0.000      0.000
REMARK  7 active torsions:
REMARK  status: ('A' for Active; 'I' for Inactive)
REMARK    1  A    between atoms: S_2  and  C_1 
REMARK    2  A    between atoms: C_7  and  S_2 
REMARK    3  A    between atoms: C_9  and  N_3 
REMARK    4  A    between atoms: C_11  and  C_7 
REMARK    5  A    between atoms: C_8  and  C_9 
REMARK       I    between atoms: N_10  and  C_8 
REMARK       I    between atoms: N_15  and  C_11 
REMARK    6  A    between atoms: C_12  and  C_16 
REMARK    7  A    between atoms: C_23  and  N_15 
ROOT
ATOM      1  C   UNL d   1     -45.484  12.790  22.433  0.00  0.00     0.107 A 
ATOM      2  N   UNL d   1     -46.497  13.440  23.003  0.00  0.00    -0.299 N 
ATOM      3  C   UNL d   1     -45.822  13.539  22.541  0.00  0.00     0.092 A 
ATOM      4  C   UNL d   1     -45.952  12.237  22.827  0.00  0.00     0.028 A 
ATOM      5  C   UNL d   1     -46.581  12.642  23.180  0.00  0.00     0.065 A 
ATOM      6  C   UNL d   1     -45.887  11.422  22.909  0.00  0.00     0.002 A 
ATOM      7  C   UNL d   1     -47.141  12.223  23.615  0.00  0.00     0.018 A 
ATOM      8  C   UNL d   1     -46.450  10.999  23.347  0.00  0.00     0.000 A 
ATOM      9  C   UNL d   1     -47.076  11.407  23.698  0.00  0.00     0.002 A 
ENDROOT
BRANCH   1  10
ATOM     10  S   UNL d   1     -44.795  12.626  22.002  0.00  0.00     0.217 S 
ATOM     11  O   UNL d   1     -44.386  12.382  22.668  0.00  0.00    -0.217 OA
ATOM     12  O   UNL d   1     -45.214  12.876  21.328  0.00  0.00    -0.217 OA
BRANCH  10  13
ATOM     13  C   UNL d   1     -44.108  12.464  21.567  0.00  0.00     0.161 C 
BRANCH  13  14
ATOM     14  C   UNL d   1     -43.517  13.022  21.517  0.00  0.00     0.291 C 
ATOM     15  N   UNL d   1     -42.804  12.844  21.144  0.00  0.00    -0.207 NA
ATOM     16  O   UNL d   1     -43.632  13.775  21.842  0.00  0.00    -0.264 OA
BRANCH  15  17
ATOM     17  C   UNL d   1     -42.208  13.412  21.095  0.00  0.00     0.085 A 
ATOM     18  C   UNL d   1     -41.593  13.422  21.649  0.00  0.00     0.019 A 
ATOM     19  C   UNL d   1     -40.996  13.985  21.606  0.00  0.00     0.006 A 
ATOM     20  C   UNL d   1     -41.006  14.555  20.999  0.00  0.00     0.059 A 
ATOM     21  C   UNL d   1     -41.614  14.555  20.441  0.00  0.00     0.006 A 
ATOM     22  C   UNL d   1     -42.221  13.981  20.486  0.00  0.00     0.019 A 
BRANCH  20  23
ATOM     23  C   UNL d   1     -40.416  15.120  20.948  0.00  0.00     0.297 C 
ATOM     24  O   UNL d   1     -40.579  15.921  21.084  0.00  0.00    -0.264 OA
ATOM     25  N   UNL d   1     -39.636  14.885  20.753  0.00  0.00    -0.102 N 
ENDBRANCH  20  23
ENDBRANCH  15  17
ENDBRANCH  13  14
ENDBRANCH  10  13
ENDBRANCH   1  10
BRANCH   2  26
ATOM     26  C   UNL d   1     -47.004  14.042  23.245  0.00  0.00     0.142 C 
BRANCH  26  27
ATOM     27  C   UNL d   1     -47.234  14.626  22.715  0.00  0.00     0.282 C 
ATOM     28  N   UNL d   1     -48.017  14.881  22.695  0.00  0.00    -0.271 N 
ATOM     29  C   UNL d   1     -48.631  14.608  23.168  0.00  0.00     0.083 A 
ATOM     30  C   UNL d   1     -48.329  15.463  22.192  0.00  0.00     0.083 A 
ATOM     31  C   UNL d   1     -49.318  15.011  22.968  0.00  0.00     0.021 A 
ATOM     32  C   UNL d   1     -49.134  15.541  22.363  0.00  0.00     0.021 A 
ATOM     33  O   UNL d   1     -46.681  14.955  22.202  0.00  0.00    -0.265 OA
ENDBRANCH  26  27
ENDBRANCH   2  26
TORSDOF 7
ENDMDL
MODEL 2
REMARK VINA RESULT:      -4.1      1.033      1.422
REMARK  7 active torsions:
REMARK  status: ('A' for Active; 'I' for Inactive)
REMARK    1  A    between atoms: S_2  and  C_1 
REMARK    2  A    between atoms: C_7  and  S_2 
REMARK    3  A    between atoms: C_9  and  N_3 
REMARK    4  A    between atoms: C_11  and  C_7 
REMARK    5  A    between atoms: C_8  and  C_9 
REMARK       I    between atoms: N_10  and  C_8 
REMARK       I    between atoms: N_15  and  C_11 
REMARK    6  A    between atoms: C_12  and  C_16 
REMARK    7  A    between atoms: C_23  and  N_15 
ROOT
ATOM      1  C   UNL d   1     -46.573  12.532  22.968  0.00  0.00     0.107 A 
ATOM      2  N   UNL d   1     -47.565  13.367  23.272  0.00  0.00    -0.299 N 
ATOM      3  C   UNL d   1     -46.784  13.332  23.014  0.00  0.00     0.092 A 
ATOM      4  C   UNL d   1     -47.225  12.082  23.197  0.00  0.00     0.028 A 
ATOM      5  C   UNL d   1     -47.840  12.602  23.386  0.00  0.00     0.065 A 
ATOM      6  C   UNL d   1     -47.337  11.269  23.259  0.00  0.00     0.002 A 
ATOM      7  C   UNL d   1     -48.565  12.300  23.635  0.00  0.00     0.018 A 
ATOM      8  C   UNL d   1     -48.066  10.965  23.510  0.00  0.00     0.000 A 
ATOM      9  C   UNL d   1     -48.677  11.487  23.697  0.00  0.00     0.002 A 
ENDROOT
BRANCH   1  10
ATOM     10  S   UNL d   1     -45.836  12.236  22.732  0.00  0.00     0.217 S 
ATOM     11  O   UNL d   1     -45.487  12.413  23.452  0.00  0.00    -0.217 OA
ATOM     12  O   UNL d   1     -46.194  12.059  22.002  0.00  0.00    -0.217 OA
BRANCH  10  13
ATOM     13  C   UNL d   1     -45.100  11.940  22.491  0.00  0.00     0.161 C 
BRANCH  13  14
ATOM     14  C   UNL d   1     -44.526  12.448  22.218  0.00  0.00     0.291 C 
ATOM     15  N   UNL d   1     -43.833  12.155  21.880  0.00  0.00    -0.207 NA
ATOM     16  O   UNL d   1     -44.637  13.268  22.278  0.00  0.00    -0.264 OA
BRANCH  15  17
ATOM     17  C   UNL d   1     -43.255  12.674  21.604  0.00  0.00     0.085 A 
ATOM     18  C   UNL d   1     -43.420  13.191  20.979  0.00  0.00     0.019 A 
ATOM     19  C   UNL d   1     -42.849  13.710  20.699  0.00  0.00     0.006 A 
ATOM     20  C   UNL d   1     -42.092  13.720  21.045  0.00  0.00     0.059 A 
ATOM     21  C   UNL d   1     -41.915  13.209  21.669  0.00  0.00     0.006 A 
ATOM     22  C   UNL d   1     -42.499  12.681  21.953  0.00  0.00     0.019 A 
BRANCH  20  23
ATOM     23  C   UNL d   1     -41.515  14.234  20.773  0.00  0.00     0.297 C 
ATOM     24  O   UNL d   1     -40.871  13.957  20.332  0.00  0.00    -0.264 OA
ATOM     25  N   UNL d   1     -41.577  15.052  20.945  0.00  0.00    -0.102 N 
ENDBRANCH  20  23
ENDBRANCH  15  17
ENDBRANCH  13  14
ENDBRANCH  10  13
ENDBRANCH   1  10
BRANCH   2  26
ATOM     26  C   UNL d   1     -47.998  14.057  23.395  0.00  0.00     0.142 C 
BRANCH  26  27
ATOM     27  C   UNL d   1     -48.206  14.532  22.758  0.00  0.00     0.282 C 
ATOM     28  N   UNL d   1     -48.872  15.015  22.802  0.00  0.00    -0.271 N 
ATOM     29  C   UNL d   1     -49.384  15.083  23.442  0.00  0.00     0.083 A 
ATOM     30  C   UNL d   1     -49.148  15.522  22.206  0.00  0.00     0.083 A 
ATOM     31  C   UNL d   1     -49.972  15.623  23.253  0.00  0.00     0.021 A 
ATOM     32  C   UNL d   1     -49.829  15.898  22.488  0.00  0.00     0.021 A 
ATOM     33  O   UNL d   1     -47.747  14.526  22.075  0.00  0.00    -0.265 OA
ENDBRANCH  26  27
ENDBRANCH   2  26
TORSDOF 7
ENDMDL
MODEL 3
REMARK VINA RESULT:      -3.9      1.086      1.552
REMARK  7 active torsions:
REMARK  status: ('A' for Active; 'I' for Inactive)
REMARK    1  A    between atoms: S_2  and  C_1 
REMARK    2  A    between atoms: C_7  and  S_2 
REMARK    3  A    between atoms: C_9  and  N_3 
REMARK    4  A    between atoms: C_11  and  C_7 
REMARK    5  A    between atoms: C_8  and  C_9 
REMARK       I    between atoms: N_10  and  C_8 
REMARK       I    between atoms: N_15  and  C_11 
REMARK    6  A    between atoms: C_12  and  C_16 
REMARK    7  A    between atoms: C_23  and  N_15 
ROOT
ATOM      1  C   UNL d   1     -44.315  12.437  22.004  0.00  0.00     0.107 A 
ATOM      2  N   UNL d   1     -45.473  12.551  22.652  0.00  0.00    -0.299 N 
ATOM      3  C   UNL d   1     -44.996  12.902  22.080  0.00  0.00     0.092 A 
ATOM      4  C   UNL d   1     -44.377  11.804  22.530  0.00  0.00     0.028 A 
ATOM      5  C   UNL d   1     -45.096  11.876  22.931  0.00  0.00     0.065 A 
ATOM      6  C   UNL d   1     -43.874  11.175  22.693  0.00  0.00     0.002 A 
ATOM      7  C   UNL d   1     -45.305  11.313  23.495  0.00  0.00     0.018 A 
ATOM      8  C   UNL d   1     -44.082  10.608  23.260  0.00  0.00     0.000 A 
ATOM      9  C   UNL d   1     -44.802  10.683  23.659  0.00  0.00     0.002 A 
ENDROOT
BRANCH   1  10
ATOM     10  S   UNL d   1     -43.681  12.583  21.490  0.00  0.00     0.217 S 
ATOM     11  O   UNL d   1     -43.130  12.564  22.096  0.00  0.00    -0.217 OA
ATOM     12  O   UNL d   1     -44.244  12.601  20.878  0.00  0.00    -0.217 OA
BRANCH  10  13
ATOM     13  C   UNL d   1     -43.050  12.729  20.972  0.00  0.00     0.161 C 
BRANCH  13  14
ATOM     14  C   UNL d   1     -42.505  13.307  21.149  0.00  0.00     0.291 C 
ATOM     15  N   UNL d   1     -41.739  13.266  20.846  0.00  0.00    -0.207 NA
ATOM     16  O   UNL d   1     -42.718  13.941  21.638  0.00  0.00    -0.264 OA
BRANCH  15  17
ATOM     17  C   UNL d   1     -41.189  13.853  21.028  0.00  0.00     0.085 A 
ATOM     18  C   UNL d   1     -41.199  14.575  20.623  0.00  0.00     0.019 A 
ATOM     19  C   UNL d   1     -40.654  15.164  20.799  0.00  0.00     0.006 A 
ATOM     20  C   UNL d   1     -40.083  15.038  21.391  0.00  0.00     0.059 A 
ATOM     21  C   UNL d   1     -40.063  14.321  21.801  0.00  0.00     0.006 A 
ATOM     22  C   UNL d   1     -40.618  13.723  21.620  0.00  0.00     0.019 A 
BRANCH  20  23
ATOM     23  C   UNL d   1     -39.535  15.618  21.574  0.00  0.00     0.297 C 
ATOM     24  O   UNL d   1     -39.024  15.921  20.996  0.00  0.00    -0.264 OA
ATOM     25  N   UNL d   1     -39.491  15.911  22.358  0.00  0.00    -0.102 N 
ENDBRANCH  20  23
ENDBRANCH  15  17
ENDBRANCH  13  14
ENDBRANCH  10  13
ENDBRANCH   1  10
BRANCH   2  26
ATOM     26  C   UNL d   1     -46.206  12.831  22.903  0.00  0.00     0.142 C 
BRANCH  26  27
ATOM     27  C   UNL d   1     -46.347  13.639  22.943  0.00  0.00     0.282 C 
ATOM     28  N   UNL d   1     -47.090  13.939  22.751  0.00  0.00    -0.271 N 
ATOM     29  C   UNL d   1     -47.744  13.505  22.510  0.00  0.00     0.083 A 
ATOM     30  C   UNL d   1     -47.312  14.739  22.765  0.00  0.00     0.083 A 
ATOM     31  C   UNL d   1     -48.369  14.020  22.376  0.00  0.00     0.021 A 
ATOM     32  C   UNL d   1     -48.104  14.786  22.532  0.00  0.00     0.021 A 
ATOM     33  O   UNL d   1     -45.744  14.149  23.175  0.00  0.00    -0.265 OA
ENDBRANCH  26  27
ENDBRANCH   2  26
TORSDOF 7
ENDMDL
MODEL 4
REMARK VINA RESULT:      -3.3      1.852      6.456
REMARK  7 active torsions:
REMARK  status: ('A' for Active; 'I' for Inactive)
REMARK    1  A    between atoms: S_2  and  C_1 
REMARK    2  A    between atoms: C_7  and  S_2 
REMARK    3  A    between atoms: C_9  and  N_3 
REMARK    4  A    between atoms: C_11  and  C_7 
REMARK    5  A    between atoms: C_8  and  C_9 
REMARK       I    between atoms: N_10  and  C_8 
REMARK       I    between atoms: N_15  and  C_11 
REMARK    6  A    between atoms: C_12  and  C_16 
REMARK    7  A    between atoms: C_23  and  N_15 
ROOT
ATOM      1  C   UNL d   1     -41.637  13.685  20.778  0.00  0.00     0.107 A 
ATOM      2  N   UNL d   1     -41.013  14.517  19.947  0.00  0.00    -0.299 N 
ATOM      3  C   UNL d   1     -41.698  14.072  20.048  0.00  0.00     0.092 A 
ATOM      4  C   UNL d   1     -40.916  13.894  21.120  0.00  0.00     0.028 A 
ATOM      5  C   UNL d   1     -40.530  14.411  20.603  0.00  0.00     0.065 A 
ATOM      6  C   UNL d   1     -40.564  13.682  21.832  0.00  0.00     0.002 A 
ATOM      7  C   UNL d   1     -39.790  14.712  20.807  0.00  0.00     0.018 A 
ATOM      8  C   UNL d   1     -39.820  13.984  22.038  0.00  0.00     0.000 A 
ATOM      9  C   UNL d   1     -39.437  14.500  21.519  0.00  0.00     0.002 A 
ENDROOT
BRANCH   1  10
ATOM     10  S   UNL d   1     -42.202  13.175  21.107  0.00  0.00     0.217 S 
ATOM     11  O   UNL d   1     -42.193  12.676  20.458  0.00  0.00    -0.217 OA
ATOM     12  O   UNL d   1     -42.208  13.684  21.765  0.00  0.00    -0.217 OA
BRANCH  10  13
ATOM     13  C   UNL d   1     -42.768  12.669  21.440  0.00  0.00     0.161 C 
BRANCH  13  14
ATOM     14  C   UNL d   1     -43.495  12.961  21.661  0.00  0.00     0.291 C 
ATOM     15  N   UNL d   1     -44.109  12.447  21.859  0.00  0.00    -0.207 NA
ATOM     16  O   UNL d   1     -43.621  13.780  21.687  0.00  0.00    -0.264 OA
BRANCH  15  17
ATOM     17  C   UNL d   1     -44.844  12.747  22.081  0.00  0.00     0.085 A 
ATOM     18  C   UNL d   1     -45.122  12.643  22.855  0.00  0.00     0.019 A 
ATOM     19  C   UNL d   1     -45.853  12.939  23.083  0.00  0.00     0.006 A 
ATOM     20  C   UNL d   1     -46.325  13.349  22.534  0.00  0.00     0.059 A 
ATOM     21  C   UNL d   1     -46.059  13.459  21.760  0.00  0.00     0.006 A 
ATOM     22  C   UNL d   1     -45.314  13.157  21.529  0.00  0.00     0.019 A 
BRANCH  20  23
ATOM     23  C   UNL d   1     -47.056  13.648  22.752  0.00  0.00     0.297 C 
ATOM     24  O   UNL d   1     -47.197  14.465  22.764  0.00  0.00    -0.264 OA
ATOM     25  N   UNL d   1     -47.670  13.120  22.965  0.00  0.00    -0.102 N 
ENDBRANCH  20  23
ENDBRANCH  15  17
ENDBRANCH  13  14
ENDBRANCH  10  13
ENDBRANCH   1  10
BRANCH   2  26
ATOM     26  C   UNL d   1     -40.841  14.991  19.295  0.00  0.00     0.142 C 
BRANCH  26  27
ATOM     27  C   UNL d   1     -40.875  14.676  18.537  0.00  0.00     0.282 C 
ATOM     28  N   UNL d   1     -40.484  15.051  17.916  0.00  0.00    -0.271 N 
ATOM     29  C   UNL d   1     -40.040  15.741  17.965  0.00  0.00     0.083 A 
ATOM     30  C   UNL d   1     -40.469  14.799  17.126  0.00  0.00     0.083 A 
ATOM     31  C   UNL d   1     -39.750  15.921  17.218  0.00  0.00     0.021 A 
ATOM     32  C   UNL d   1     -40.014  15.340  16.696  0.00  0.00     0.021 A 
ATOM     33  O   UNL d   1     -41.299  13.985  18.399  0.00  0.00    -0.265 OA
ENDBRANCH  26  27
ENDBRANCH   2  26
TORSDOF 7
ENDMDL
MODEL 5
REMARK VINA RESULT:      -3.2      1.718      2.428
REMARK  7 active torsions:
REMARK  status: ('A' for Active; 'I' for Inactive)
REMARK    1  A    between atoms: S_2  and  C_1 
REMARK    2  A    between atoms: C_7  and  S_2 
REMARK    3  A    between atoms: C_9  and  N_3 
REMARK    4  A    between atoms: C_11  and  C_7 
REMARK    5  A    between atoms: C_8  and  C_9 
REMARK       I    between atoms: N_10  and  C_8 
REMARK       I    between atoms: N_15  and  C_11 
REMARK    6  A    between atoms: C_12  and  C_16 
REMARK    7  A    between atoms: C_23  and  N_15 
ROOT
ATOM      1  C   UNL d   1     -46.534  12.935  22.504  0.00  0.00     0.107 A 
ATOM      2  N   UNL d   1     -47.862  13.019  22.445  0.00  0.00    -0.299 N 
ATOM      3  C   UNL d   1     -47.230  12.491  22.436  0.00  0.00     0.092 A 
ATOM      4  C   UNL d   1     -46.742  13.732  22.554  0.00  0.00     0.028 A 
ATOM      5  C   UNL d   1     -47.567  13.782  22.517  0.00  0.00     0.065 A 
ATOM      6  C   UNL d   1     -46.289  14.414  22.628  0.00  0.00     0.002 A 
ATOM      7  C   UNL d   1     -47.931  14.520  22.555  0.00  0.00     0.018 A 
ATOM      8  C   UNL d   1     -46.654  15.157  22.666  0.00  0.00     0.000 A 
ATOM      9  C   UNL d   1     -47.478  15.203  22.629  0.00  0.00     0.002 A 
ENDROOT
BRANCH   1  10
ATOM     10  S   UNL d   1     -45.763  12.631  22.519  0.00  0.00     0.217 S 
ATOM     11  O   UNL d   1     -45.711  12.688  23.334  0.00  0.00    -0.217 OA
ATOM     12  O   UNL d   1     -45.821  12.574  21.691  0.00  0.00    -0.217 OA
BRANCH  10  13
ATOM     13  C   UNL d   1     -44.992  12.326  22.529  0.00  0.00     0.161 C 
BRANCH  13  14
ATOM     14  C   UNL d   1     -44.387  12.742  22.178  0.00  0.00     0.291 C 
ATOM     15  N   UNL d   1     -43.752  12.345  21.832  0.00  0.00    -0.207 NA
ATOM     16  O   UNL d   1     -44.406  13.571  22.168  0.00  0.00    -0.264 OA
BRANCH  15  17
ATOM     17  C   UNL d   1     -43.141  12.770  21.478  0.00  0.00     0.085 A 
ATOM     18  C   UNL d   1     -43.192  12.991  20.681  0.00  0.00     0.019 A 
ATOM     19  C   UNL d   1     -42.586  13.414  20.322  0.00  0.00     0.006 A 
ATOM     20  C   UNL d   1     -41.911  13.626  20.760  0.00  0.00     0.059 A 
ATOM     21  C   UNL d   1     -41.849  13.411  21.555  0.00  0.00     0.006 A 
ATOM     22  C   UNL d   1     -42.466  12.980  21.919  0.00  0.00     0.019 A 
BRANCH  20  23
ATOM     23  C   UNL d   1     -41.302  14.048  20.411  0.00  0.00     0.297 C 
ATOM     24  O   UNL d   1     -41.021  13.849  19.657  0.00  0.00    -0.264 OA
ATOM     25  N   UNL d   1     -40.957  14.690  20.823  0.00  0.00    -0.102 N 
ENDBRANCH  20  23
ENDBRANCH  15  17
ENDBRANCH  13  14
ENDBRANCH  10  13
ENDBRANCH   1  10
BRANCH   2  26
ATOM     26  C   UNL d   1     -48.658  12.815  22.390  0.00  0.00     0.142 C 
BRANCH  26  27
ATOM     27  C   UNL d   1     -48.935  12.132  22.755  0.00  0.00     0.282 C 
ATOM     28  N   UNL d   1     -49.692  12.115  23.079  0.00  0.00    -0.271 N 
ATOM     29  C   UNL d   1     -50.236  12.731  23.081  0.00  0.00     0.083 A 
ATOM     30  C   UNL d   1     -50.044  11.469  23.462  0.00  0.00     0.083 A 
ATOM     31  C   UNL d   1     -50.919  12.478  23.459  0.00  0.00     0.021 A 
ATOM     32  C   UNL d   1     -50.804  11.697  23.697  0.00  0.00     0.021 A 
ATOM     33  O   UNL d   1     -48.453  11.467  22.797  0.00  0.00    -0.265 OA
ENDBRANCH  26  27
ENDBRANCH   2  26
TORSDOF 7
ENDMDL
MODEL 6
REMARK VINA RESULT:      -2.2      3.727      6.535
REMARK  7 active torsions:
REMARK  status: ('A' for Active; 'I' for Inactive)
REMARK    1  A    between atoms: S_2  and  C_1 
REMARK    2  A    between atoms: C_7  and  S_2 
REMARK    3  A    between atoms: C_9  and  N_3 
REMARK    4  A    between atoms: C_11  and  C_7 
REMARK    5  A    between atoms: C_8  and  C_9 
REMARK       I    between atoms: N_10  and  C_8 
REMARK       I    between atoms: N_15  and  C_11 
REMARK    6  A    between atoms: C_12  and  C_16 
REMARK    7  A    between atoms: C_23  and  N_15 
ROOT
ATOM      1  C   UNL d   1     -39.443  14.766  20.734  0.00  0.00     0.107 A 
ATOM      2  N   UNL d   1     -40.414  14.113  21.370  0.00  0.00    -0.299 N 
ATOM      3  C   UNL d   1     -40.252  14.592  20.719  0.00  0.00     0.092 A 
ATOM      4  C   UNL d   1     -39.112  14.394  21.392  0.00  0.00     0.028 A 
ATOM      5  C   UNL d   1     -39.716  13.989  21.785  0.00  0.00     0.065 A 
ATOM      6  C   UNL d   1     -38.343  14.372  21.681  0.00  0.00     0.002 A 
ATOM      7  C   UNL d   1     -39.542  13.563  22.469  0.00  0.00     0.018 A 
ATOM      8  C   UNL d   1     -38.166  13.944  22.369  0.00  0.00     0.000 A 
ATOM      9  C   UNL d   1     -38.772  13.541  22.759  0.00  0.00     0.002 A 
ENDROOT
BRANCH   1  10
ATOM     10  S   UNL d   1     -39.036  15.233  20.183  0.00  0.00     0.217 S 
ATOM     11  O   UNL d   1     -39.543  15.868  20.284  0.00  0.00    -0.217 OA
ATOM     12  O   UNL d   1     -38.524  14.585  20.084  0.00  0.00    -0.217 OA
BRANCH  10  13
ATOM     13  C   UNL d   1     -38.626  15.696  19.631  0.00  0.00     0.161 C 
BRANCH  13  14
ATOM     14  C   UNL d   1     -38.489  15.409  18.882  0.00  0.00     0.291 C 
ATOM     15  N   UNL d   1     -38.826  15.776  18.225  0.00  0.00    -0.207 NA
ATOM     16  O   UNL d   1     -38.006  14.744  18.776  0.00  0.00    -0.264 OA
BRANCH  15  17
ATOM     17  C   UNL d   1     -38.685  15.482  17.468  0.00  0.00     0.085 A 
ATOM     18  C   UNL d   1     -38.097  15.818  16.992  0.00  0.00     0.019 A 
ATOM     19  C   UNL d   1     -37.951  15.531  16.236  0.00  0.00     0.006 A 
ATOM     20  C   UNL d   1     -38.397  14.893  15.941  0.00  0.00     0.059 A 
ATOM     21  C   UNL d   1     -38.987  14.550  16.407  0.00  0.00     0.006 A 
ATOM     22  C   UNL d   1     -39.134  14.845  17.176  0.00  0.00     0.019 A 
BRANCH  20  23
ATOM     23  C   UNL d   1     -38.260  14.599  15.189  0.00  0.00     0.297 C 
ATOM     24  O   UNL d   1     -38.405  13.804  15.009  0.00  0.00    -0.264 OA
ATOM     25  N   UNL d   1     -37.968  15.111  14.593  0.00  0.00    -0.102 N 
ENDBRANCH  20  23
ENDBRANCH  15  17
ENDBRANCH  13  14
ENDBRANCH  10  13
ENDBRANCH   1  10
BRANCH   2  26
ATOM     26  C   UNL d   1     -41.153  13.809  21.570  0.00  0.00     0.142 C 
BRANCH  26  27
ATOM     27  C   UNL d   1     -41.685  13.598  20.980  0.00  0.00     0.282 C 
ATOM     28  N   UNL d   1     -42.383  13.205  21.174  0.00  0.00    -0.271 N 
ATOM     29  C   UNL d   1     -42.626  12.986  21.927  0.00  0.00     0.083 A 
ATOM     30  C   UNL d   1     -42.968  12.958  20.641  0.00  0.00     0.083 A 
ATOM     31  C   UNL d   1     -43.352  12.608  21.871  0.00  0.00     0.021 A 
ATOM     32  C   UNL d   1     -43.568  12.589  21.075  0.00  0.00     0.021 A 
ATOM     33  O   UNL d   1     -41.519  13.780  20.195  0.00  0.00    -0.265 OA
ENDBRANCH  26  27
ENDBRANCH   2  26
TORSDOF 7
ENDMDL
MODEL 7
REMARK VINA RESULT:      -2.1      2.256      6.753
REMARK  7 active torsions:
REMARK  status: ('A' for Active; 'I' for Inactive)
REMARK    1  A    between atoms: S_2  and  C_1 
REMARK    2  A    between atoms: C_7  and  S_2 
REMARK    3  A    between atoms: C_9  and  N_3 
REMARK    4  A    between atoms: C_11  and  C_7 
REMARK    5  A    between atoms: C_8  and  C_9 
REMARK       I    between atoms: N_10  and  C_8 
REMARK       I    between atoms: N_15  and  C_11 
REMARK    6  A    between atoms: C_12  and  C_16 
REMARK    7  A    between atoms: C_23  and  N_15 
ROOT
ATOM      1  C   UNL d   1     -40.569  14.506  20.256  0.00  0.00     0.107 A 
ATOM      2  N   UNL d   1     -40.342  15.433  19.328  0.00  0.00    -0.299 N 
ATOM      3  C   UNL d   1     -40.881  14.863  19.577  0.00  0.00     0.092 A 
ATOM      4  C   UNL d   1     -39.841  14.858  20.420  0.00  0.00     0.028 A 
ATOM      5  C   UNL d   1     -39.702  15.433  19.843  0.00  0.00     0.065 A 
ATOM      6  C   UNL d   1     -39.291  14.729  21.017  0.00  0.00     0.002 A 
ATOM      7  C   UNL d   1     -39.008  15.876  19.870  0.00  0.00     0.018 A 
ATOM      8  C   UNL d   1     -38.592  15.174  21.046  0.00  0.00     0.000 A 
ATOM      9  C   UNL d   1     -38.456  15.748  20.468  0.00  0.00     0.002 A 
ENDROOT
BRANCH   1  10
ATOM     10  S   UNL d   1     -40.926  13.900  20.695  0.00  0.00     0.217 S 
ATOM     11  O   UNL d   1     -40.764  13.334  20.126  0.00  0.00    -0.217 OA
ATOM     12  O   UNL d   1     -41.089  14.478  21.270  0.00  0.00    -0.217 OA
BRANCH  10  13
ATOM     13  C   UNL d   1     -41.285  13.297  21.137  0.00  0.00     0.161 C 
BRANCH  13  14
ATOM     14  C   UNL d   1     -42.066  13.364  21.356  0.00  0.00     0.291 C 
ATOM     15  N   UNL d   1     -42.555  12.699  21.370  0.00  0.00    -0.207 NA
ATOM     16  O   UNL d   1     -42.376  14.103  21.565  0.00  0.00    -0.264 OA
BRANCH  15  17
ATOM     17  C   UNL d   1     -43.346  12.770  21.592  0.00  0.00     0.085 A 
ATOM     18  C   UNL d   1     -43.849  13.286  21.185  0.00  0.00     0.019 A 
ATOM     19  C   UNL d   1     -44.638  13.362  21.401  0.00  0.00     0.006 A 
ATOM     20  C   UNL d   1     -44.940  12.917  22.036  0.00  0.00     0.059 A 
ATOM     21  C   UNL d   1     -44.447  12.399  22.449  0.00  0.00     0.006 A 
ATOM     22  C   UNL d   1     -43.644  12.323  22.228  0.00  0.00     0.019 A 
BRANCH  20  23
ATOM     23  C   UNL d   1     -45.725  12.985  22.259  0.00  0.00     0.297 C 
ATOM     24  O   UNL d   1     -46.123  13.710  22.204  0.00  0.00    -0.264 OA
ATOM     25  N   UNL d   1     -46.132  12.311  22.546  0.00  0.00    -0.102 N 
ENDBRANCH  20  23
ENDBRANCH  15  17
ENDBRANCH  13  14
ENDBRANCH  10  13
ENDBRANCH   1  10
BRANCH   2  26
ATOM     26  C   UNL d   1     -40.431  15.922  18.671  0.00  0.00     0.142 C 
BRANCH  26  27
ATOM     27  C   UNL d   1     -41.054  15.802  18.149  0.00  0.00     0.282 C 
ATOM     28  N   UNL d   1     -40.919  15.805  17.336  0.00  0.00    -0.271 N 
ATOM     29  C   UNL d   1     -40.197  15.921  16.962  0.00  0.00     0.083 A 
ATOM     30  C   UNL d   1     -41.491  15.692  16.746  0.00  0.00     0.083 A 
ATOM     31  C   UNL d   1     -40.310  15.882  16.150  0.00  0.00     0.021 A 
ATOM     32  C   UNL d   1     -41.111  15.740  16.013  0.00  0.00     0.021 A 
ATOM     33  O   UNL d   1     -41.813  15.678  18.440  0.00  0.00    -0.265 OA
ENDBRANCH  26  27
ENDBRANCH   2  26
TORSDOF 7
ENDMDL
MODEL 8
REMARK VINA RESULT:      -1.5      2.897      7.377
REMARK  7 active torsions:
REMARK  status: ('A' for Active; 'I' for Inactive)
REMARK    1  A    between atoms: S_2  and  C_1 
REMARK    2  A    between atoms: C_7  and  S_2 
REMARK    3  A    between atoms: C_9  and  N_3 
REMARK    4  A    between atoms: C_11  and  C_7 
REMARK    5  A    between atoms: C_8  and  C_9 
REMARK       I    between atoms: N_10  and  C_8 
REMARK       I    between atoms: N_15  and  C_11 
REMARK    6  A    between atoms: C_12  and  C_16 
REMARK    7  A    between atoms: C_23  and  N_15 
ROOT
ATOM      1  C   UNL d   1     -40.252  14.252  20.133  0.00  0.00     0.107 A 
ATOM      2  N   UNL d   1     -39.133  14.106  19.427  0.00  0.00    -0.299 N 
ATOM      3  C   UNL d   1     -39.948  14.213  19.364  0.00  0.00     0.092 A 
ATOM      4  C   UNL d   1     -39.625  14.170  20.663  0.00  0.00     0.028 A 
ATOM      5  C   UNL d   1     -38.931  14.079  20.222  0.00  0.00     0.065 A 
ATOM      6  C   UNL d   1     -39.596  14.165  21.484  0.00  0.00     0.002 A 
ATOM      7  C   UNL d   1     -38.211  13.985  20.612  0.00  0.00     0.018 A 
ATOM      8  C   UNL d   1     -38.873  14.071  21.878  0.00  0.00     0.000 A 
ATOM      9  C   UNL d   1     -38.182  13.981  21.435  0.00  0.00     0.002 A 
ENDROOT
BRANCH   1  10
ATOM     10  S   UNL d   1     -41.050  14.356  20.336  0.00  0.00     0.217 S 
ATOM     11  O   UNL d   1     -40.899  15.048  20.746  0.00  0.00    -0.217 OA
ATOM     12  O   UNL d   1     -41.198  13.652  19.918  0.00  0.00    -0.217 OA
BRANCH  10  13
ATOM     13  C   UNL d   1     -41.848  14.455  20.536  0.00  0.00     0.161 C 
BRANCH  13  14
ATOM     14  C   UNL d   1     -42.203  13.942  21.059  0.00  0.00     0.291 C 
ATOM     15  N   UNL d   1     -42.839  13.475  20.820  0.00  0.00    -0.207 NA
ATOM     16  O   UNL d   1     -41.924  13.888  21.837  0.00  0.00    -0.264 OA
BRANCH  15  17
ATOM     17  C   UNL d   1     -43.196  12.956  21.353  0.00  0.00     0.085 A 
ATOM     18  C   UNL d   1     -43.985  13.066  21.579  0.00  0.00     0.019 A 
ATOM     19  C   UNL d   1     -44.346  12.553  22.109  0.00  0.00     0.006 A 
ATOM     20  C   UNL d   1     -43.918  11.914  22.426  0.00  0.00     0.059 A 
ATOM     21  C   UNL d   1     -43.131  11.795  22.208  0.00  0.00     0.006 A 
ATOM     22  C   UNL d   1     -42.764  12.318  21.668  0.00  0.00     0.019 A 
BRANCH  20  23
ATOM     23  C   UNL d   1     -44.269  11.397  22.955  0.00  0.00     0.297 C 
ATOM     24  O   UNL d   1     -45.035  11.534  23.242  0.00  0.00    -0.264 OA
ATOM     25  N   UNL d   1     -43.848  10.719  23.211  0.00  0.00    -0.102 N 
ENDBRANCH  20  23
ENDBRANCH  15  17
ENDBRANCH  13  14
ENDBRANCH  10  13
ENDBRANCH   1  10
BRANCH   2  26
ATOM     26  C   UNL d   1     -38.609  14.038  18.794  0.00  0.00     0.142 C 
BRANCH  26  27
ATOM     27  C   UNL d   1     -38.745  14.457  18.100  0.00  0.00     0.282 C 
ATOM     28  N   UNL d   1     -38.532  14.131  17.374  0.00  0.00    -0.271 N 
ATOM     29  C   UNL d   1     -38.182  13.398  17.251  0.00  0.00     0.083 A 
ATOM     30  C   UNL d   1     -38.635  14.486  16.631  0.00  0.00     0.083 A 
ATOM     31  C   UNL d   1     -38.066  13.292  16.446  0.00  0.00     0.021 A 
ATOM     32  C   UNL d   1     -38.345  13.965  16.058  0.00  0.00     0.021 A 
ATOM     33  O   UNL d   1     -39.092  15.201  18.132  0.00  0.00    -0.265 OA
ENDBRANCH  26  27
ENDBRANCH   2  26
TORSDOF 7
ENDMDL
