MODEL 1
REMARK VINA RESULT:      59.3      0.000      0.000
REMARK  8 active torsions:
REMARK  status: ('A' for Active; 'I' for Inactive)
REMARK    1  A    between atoms: N_3  and  C_1 
REMARK    2  A    between atoms: S_2  and  C_9 
REMARK    3  A    between atoms: N_10  and  S_2 
REMARK       I    between atoms: C_8  and  N_3 
REMARK    4  A    between atoms: C_15  and  C_8 
REMARK    5  A    between atoms: C_27  and  N_10 
REMARK       I    between atoms: C_16  and  N_17 
REMARK    6  A    between atoms: N_17  and  C_18 
REMARK    7  A    between atoms: C_30  and  C_27 
REMARK    8  A    between atoms: C_31  and  C_30 
ROOT
ATOM      1  N   UNL d   1     -54.737-100.758 -41.033  0.00  0.00    -0.184 NA
ATOM      2  C   UNL d   1     -54.959-101.312 -41.604  0.00  0.00     0.281 C 
ATOM      3  O   UNL d   1     -55.180-102.083 -41.377  0.00  0.00    -0.265 OA
ENDROOT
BRANCH   2   4
ATOM      4  C   UNL d   1     -54.963-101.106 -42.402  0.00  0.00     0.058 A 
ATOM      5  C   UNL d   1     -55.209-100.353 -42.634  0.00  0.00     0.005 A 
ATOM      6  C   UNL d   1     -55.212-100.148 -43.434  0.00  0.00     0.013 A 
ATOM      7  C   UNL d   1     -54.972-100.688 -44.011  0.00  0.00     0.104 A 
ATOM      8  C   UNL d   1     -54.726-101.440 -43.779  0.00  0.00     0.013 A 
ATOM      9  C   UNL d   1     -54.722-101.649 -42.976  0.00  0.00     0.005 A 
BRANCH   7  10
ATOM     10  S   UNL d   1     -54.977-100.476 -44.821  0.00  0.00     0.271 S 
ATOM     11  O   UNL d   1     -54.985-100.256 -45.621  0.00  0.00    -0.200 OA
ATOM     12  O   UNL d   1     -54.735-101.232 -45.023  0.00  0.00    -0.200 OA
BRANCH  10  13
ATOM     13  N   UNL d   1     -55.223 -99.710 -44.606  0.00  0.00    -0.228 N 
ATOM     14  C   UNL d   1     -54.751 -99.241 -44.108  0.00  0.00     0.111 C 
BRANCH  13  15
ATOM     15  C   UNL d   1     -55.938 -99.415 -44.888  0.00  0.00     0.092 C 
BRANCH  15  16
ATOM     16  C   UNL d   1     -56.346 -98.853 -44.455  0.00  0.00     0.020 C 
BRANCH  16  17
ATOM     17  C   UNL d   1     -57.138 -98.958 -44.295  0.00  0.00     0.002 C 
ATOM     18  C   UNL d   1     -57.432 -98.778 -43.530  0.00  0.00     0.000 C 
ENDBRANCH  16  17
ENDBRANCH  15  16
ENDBRANCH  13  15
ENDBRANCH  10  13
ENDBRANCH   7  10
ENDBRANCH   2   4
BRANCH   1  19
ATOM     19  C   UNL d   1     -54.734-100.968 -40.227  0.00  0.00     0.182 A 
ATOM     20  N   UNL d   1     -54.729-100.442 -39.595  0.00  0.00    -0.283 N 
ATOM     21  C   UNL d   1     -54.727-100.869 -38.891  0.00  0.00     0.072 A 
ATOM     22  C   UNL d   1     -54.728 -99.610 -39.663  0.00  0.00     0.101 C 
ATOM     23  C   UNL d   1     -54.723-100.631 -38.097  0.00  0.00     0.020 A 
ATOM     24  C   UNL d   1     -54.730-101.673 -39.071  0.00  0.00     0.050 A 
ATOM     25  C   UNL d   1     -54.721-101.197 -37.502  0.00  0.00     0.021 A 
ATOM     26  C   UNL d   1     -54.724-101.999 -37.686  0.00  0.00     0.085 A 
ATOM     27  C   UNL d   1     -54.728-102.240 -38.475  0.00  0.00     0.027 A 
ATOM     28  S   UNL d   1     -54.734-101.737 -39.901  0.00  0.00    -0.048 SA
BRANCH  26  29
ATOM     29  N   UNL d   1     -54.723-102.571 -37.073  0.00  0.00    -0.208 NA
ATOM     30  C   UNL d   1     -54.809-102.322 -36.284  0.00  0.00     0.279 C 
ATOM     31  O   UNL d   1     -54.808-102.880 -35.678  0.00  0.00    -0.265 OA
ATOM     32  C   UNL d   1     -54.895-101.518 -36.120  0.00  0.00     0.068 C 
ENDBRANCH  26  29
ENDBRANCH   1  19
TORSDOF 8
ENDMDL
