MODEL 1
REMARK VINA RESULT:      31.9      0.000      0.000
REMARK  3 active torsions:
REMARK  status: ('A' for Active; 'I' for Inactive)
REMARK    1  A    between atoms: N_2  and  S_1 
REMARK    2  A    between atoms: C_4  and  S_1 
REMARK    3  A    between atoms: C_3  and  N_2 
ROOT
ATOM      1  N   UNL d   1      12.969  11.876  -3.312  0.00  0.00    -0.157 NA
ENDROOT
BRANCH   1   2
ATOM      2  S   UNL d   1      13.466  11.938  -2.657  0.00  0.00     0.285 S 
ATOM      3  O   UNL d   1      14.118  11.783  -3.137  0.00  0.00    -0.198 OA
ATOM      4  O   UNL d   1      12.814  12.096  -2.167  0.00  0.00    -0.198 OA
BRANCH   2   5
ATOM      5  C   UNL d   1      13.963  12.001  -2.001  0.00  0.00     0.105 A 
ATOM      6  C   UNL d   1      13.638  12.054  -1.236  0.00  0.00     0.013 A 
ATOM      7  C   UNL d   1      14.135  12.116  -0.579  0.00  0.00     0.001 A 
ATOM      8  C   UNL d   1      14.952  12.127  -0.677  0.00  0.00     0.000 A 
ATOM      9  C   UNL d   1      15.278  12.075  -1.434  0.00  0.00     0.001 A 
ATOM     10  C   UNL d   1      15.445  12.190  -0.014  0.00  0.00     0.000 C 
ATOM     11  C   UNL d   1      14.783  12.012  -2.093  0.00  0.00     0.013 A 
ENDBRANCH   2   5
ENDBRANCH   1   2
BRANCH   1  12
ATOM     12  C   UNL d   1      13.177  12.238  -4.024  0.00  0.00     0.111 A 
ATOM     13  C   UNL d   1      13.114  13.058  -4.108  0.00  0.00     0.100 A 
ATOM     14  N   UNL d   1      12.837  13.521  -3.470  0.00  0.00    -0.242 NA
ATOM     15  C   UNL d   1      13.322  13.420  -4.819  0.00  0.00     0.019 A 
ATOM     16  C   UNL d   1      12.773  14.345  -3.552  0.00  0.00     0.099 A 
ATOM     17  C   UNL d   1      12.981  14.707  -4.263  0.00  0.00     0.021 A 
ATOM     18  C   UNL d   1      13.255  14.247  -4.895  0.00  0.00     0.003 A 
ATOM     19  C   UNL d   1      13.595  12.964  -5.449  0.00  0.00     0.002 A 
ATOM     20  C   UNL d   1      13.660  12.145  -5.369  0.00  0.00     0.002 A 
ATOM     21  C   UNL d   1      13.451  11.783  -4.658  0.00  0.00     0.021 A 
ENDBRANCH   1  12
TORSDOF 3
ENDMDL
