MODEL 1
REMARK VINA RESULT:      48.7      0.000      0.000
REMARK  5 active torsions:
REMARK  status: ('A' for Active; 'I' for Inactive)
REMARK    1  A    between atoms: C_6  and  N_1 
REMARK    2  A    between atoms: O_9  and  C_6 
REMARK    3  A    between atoms: C_8  and  O_9 
REMARK    4  A    between atoms: C_12  and  C_8 
REMARK    5  A    between atoms: C_14  and  C_12 
ROOT
ATOM      1  N   UNL d   1      59.246  49.706  50.424  0.00  0.00    -0.150 N 
ATOM      2  N   UNL d   1      58.911  49.707  51.178  0.00  0.00    -0.055 NA
ATOM      3  C   UNL d   1      58.768  49.705  49.746  0.00  0.00     0.285 A 
ATOM      4  N   UNL d   1      58.095  49.708  51.262  0.00  0.00    -0.130 NA
ATOM      5  C   UNL d   1      57.948  49.706  49.847  0.00  0.00     0.077 A 
ATOM      6  C   UNL d   1      57.613  49.707  50.601  0.00  0.00     0.109 A 
ATOM      7  O   UNL d   1      59.099  49.704  49.000  0.00  0.00    -0.265 OA
ATOM      8  C   UNL d   1      57.464  49.705  49.180  0.00  0.00     0.006 A 
ATOM      9  C   UNL d   1      56.796  49.708  50.685  0.00  0.00     0.021 A 
ATOM     10  C   UNL d   1      56.647  49.706  49.265  0.00  0.00     0.000 A 
ATOM     11  C   UNL d   1      56.311  49.707  50.023  0.00  0.00     0.002 A 
ENDROOT
BRANCH   1  12
ATOM     12  C   UNL d   1      60.069  49.705  50.337  0.00  0.00     0.233 C 
BRANCH  12  13
ATOM     13  O   UNL d   1      60.535  49.250  50.841  0.00  0.00    -0.251 OA
BRANCH  13  14
ATOM     14  C   UNL d   1      61.185  48.844  50.542  0.00  0.00     0.302 C 
ATOM     15  O   UNL d   1      61.492  49.042  49.802  0.00  0.00    -0.259 OA
BRANCH  14  16
ATOM     16  C   UNL d   1      61.529  48.238  50.983  0.00  0.00     0.069 C 
BRANCH  16  17
ATOM     17  C   UNL d   1      61.294  47.515  50.880  0.00  0.00     0.005 A 
ATOM     18  C   UNL d   1      61.263  47.181  50.127  0.00  0.00     0.000 A 
ATOM     19  C   UNL d   1      61.008  46.398  50.015  0.00  0.00     0.000 A 
ATOM     20  C   UNL d   1      60.780  45.943  50.674  0.00  0.00     0.000 A 
ATOM     21  C   UNL d   1      60.808  46.271  51.435  0.00  0.00     0.000 A 
ATOM     22  C   UNL d   1      61.065  47.060  51.548  0.00  0.00     0.000 A 
ENDBRANCH  16  17
ENDBRANCH  14  16
ENDBRANCH  13  14
ENDBRANCH  12  13
ENDBRANCH   1  12
TORSDOF 5
ENDMDL
MODEL 2
REMARK VINA RESULT:      50.3      1.352      4.250
REMARK  5 active torsions:
REMARK  status: ('A' for Active; 'I' for Inactive)
REMARK    1  A    between atoms: C_6  and  N_1 
REMARK    2  A    between atoms: O_9  and  C_6 
REMARK    3  A    between atoms: C_8  and  O_9 
REMARK    4  A    between atoms: C_12  and  C_8 
REMARK    5  A    between atoms: C_14  and  C_12 
ROOT
ATOM      1  N   UNL d   1      59.394  49.368  51.113  0.00  0.00    -0.150 N 
ATOM      2  N   UNL d   1      59.595  49.060  51.852  0.00  0.00    -0.055 NA
ATOM      3  C   UNL d   1      59.933  49.349  50.484  0.00  0.00     0.285 A 
ATOM      4  N   UNL d   1      60.337  48.729  51.968  0.00  0.00    -0.130 NA
ATOM      5  C   UNL d   1      60.676  49.013  50.617  0.00  0.00     0.077 A 
ATOM      6  C   UNL d   1      60.877  48.704  51.355  0.00  0.00     0.109 A 
ATOM      7  O   UNL d   1      59.735  49.654  49.753  0.00  0.00    -0.265 OA
ATOM      8  C   UNL d   1      61.219  48.989  49.997  0.00  0.00     0.006 A 
ATOM      9  C   UNL d   1      61.619  48.373  51.471  0.00  0.00     0.021 A 
ATOM     10  C   UNL d   1      61.961  48.657  50.114  0.00  0.00     0.000 A 
ATOM     11  C   UNL d   1      62.163  48.348  50.856  0.00  0.00     0.002 A 
ENDROOT
BRANCH   1  12
ATOM     12  C   UNL d   1      58.646  49.702  50.995  0.00  0.00     0.233 C 
BRANCH  12  13
ATOM     13  O   UNL d   1      57.983  49.217  50.937  0.00  0.00    -0.251 OA
BRANCH  13  14
ATOM     14  C   UNL d   1      57.284  49.433  51.313  0.00  0.00     0.302 C 
ATOM     15  O   UNL d   1      57.231  49.409  52.136  0.00  0.00    -0.259 OA
BRANCH  14  16
ATOM     16  C   UNL d   1      56.635  49.673  50.864  0.00  0.00     0.069 C 
BRANCH  16  17
ATOM     17  C   UNL d   1      56.448  49.284  50.230  0.00  0.00     0.005 A 
ATOM     18  C   UNL d   1      56.445  48.459  50.223  0.00  0.00     0.000 A 
ATOM     19  C   UNL d   1      56.243  48.037  49.537  0.00  0.00     0.000 A 
ATOM     20  C   UNL d   1      56.040  48.452  48.845  0.00  0.00     0.000 A 
ATOM     21  C   UNL d   1      56.041  49.281  48.843  0.00  0.00     0.000 A 
ATOM     22  C   UNL d   1      56.245  49.708  49.534  0.00  0.00     0.000 A 
ENDBRANCH  16  17
ENDBRANCH  14  16
ENDBRANCH  13  14
ENDBRANCH  12  13
ENDBRANCH   1  12
TORSDOF 5
ENDMDL
