MODEL 1
REMARK VINA RESULT:      -9.3      0.000      0.000
REMARK  3 active torsions:
REMARK  status: ('A' for Active; 'I' for Inactive)
REMARK    1  A    between atoms: C_5  and  C_4 
REMARK    2  A    between atoms: C_6  and  C_5 
REMARK       I    between atoms: N_9  and  C_6 
REMARK    3  A    between atoms: C_12  and  N_9 
ROOT
ATOM      1  N   UNL d   1      54.130  34.418  55.005  0.00  0.00    -0.205 NA
ATOM      2  C   UNL d   1      54.457  33.683  54.822  0.00  0.00     0.297 A 
ATOM      3  N   UNL d   1      53.500  33.483  53.766  0.00  0.00    -0.239 NA
ATOM      4  C   UNL d   1      54.148  33.223  54.213  0.00  0.00     0.144 A 
ATOM      5  C   UNL d   1      53.481  34.685  54.562  0.00  0.00     0.102 A 
ATOM      6  C   UNL d   1      53.171  34.225  53.953  0.00  0.00     0.099 A 
ATOM      7  O   UNL d   1      55.103  33.420  55.264  0.00  0.00    -0.264 OA
ATOM      8  C   UNL d   1      53.145  35.428  54.744  0.00  0.00     0.021 A 
ATOM      9  C   UNL d   1      52.516  34.492  53.504  0.00  0.00     0.021 A 
ATOM     10  C   UNL d   1      52.500  35.691  54.301  0.00  0.00     0.002 A 
ATOM     11  C   UNL d   1      52.190  35.231  53.692  0.00  0.00     0.002 A 
ENDROOT
BRANCH   4  12
ATOM     12  C   UNL d   1      54.473  32.484  54.025  0.00  0.00     0.086 C 
BRANCH  12  13
ATOM     13  C   UNL d   1      53.998  31.809  54.071  0.00  0.00     0.281 C 
ATOM     14  N   UNL d   1      54.006  31.290  53.459  0.00  0.00    -0.208 NA
ATOM     15  O   UNL d   1      53.531  31.668  54.722  0.00  0.00    -0.265 OA
BRANCH  14  16
ATOM     16  C   UNL d   1      53.530  30.597  53.486  0.00  0.00     0.085 A 
ATOM     17  C   UNL d   1      53.726  29.984  53.968  0.00  0.00     0.019 A 
ATOM     18  C   UNL d   1      53.253  29.302  53.992  0.00  0.00     0.002 A 
ATOM     19  C   UNL d   1      52.592  29.272  53.518  0.00  0.00     0.000 A 
ATOM     20  C   UNL d   1      52.390  29.880  53.035  0.00  0.00     0.002 A 
ATOM     21  C   UNL d   1      52.860  30.543  53.019  0.00  0.00     0.019 A 
ENDBRANCH  14  16
ENDBRANCH  12  13
ENDBRANCH   4  12
TORSDOF 3
ENDMDL
MODEL 2
REMARK VINA RESULT:      -8.7      1.723      4.204
REMARK  3 active torsions:
REMARK  status: ('A' for Active; 'I' for Inactive)
REMARK    1  A    between atoms: C_5  and  C_4 
REMARK    2  A    between atoms: C_6  and  C_5 
REMARK       I    between atoms: N_9  and  C_6 
REMARK    3  A    between atoms: C_12  and  N_9 
ROOT
ATOM      1  N   UNL d   1      53.877  31.651  54.154  0.00  0.00    -0.205 NA
ATOM      2  C   UNL d   1      53.669  32.420  53.936  0.00  0.00     0.297 A 
ATOM      3  N   UNL d   1      52.757  31.926  52.938  0.00  0.00    -0.239 NA
ATOM      4  C   UNL d   1      53.118  32.555  53.338  0.00  0.00     0.144 A 
ATOM      5  C   UNL d   1      53.519  31.016  53.758  0.00  0.00     0.102 A 
ATOM      6  C   UNL d   1      52.968  31.151  53.160  0.00  0.00     0.099 A 
ATOM      7  O   UNL d   1      54.026  33.050  54.332  0.00  0.00    -0.264 OA
ATOM      8  C   UNL d   1      53.725  30.237  53.974  0.00  0.00     0.021 A 
ATOM      9  C   UNL d   1      52.606  30.511  52.758  0.00  0.00     0.021 A 
ATOM     10  C   UNL d   1      53.368  29.607  53.579  0.00  0.00     0.002 A 
ATOM     11  C   UNL d   1      52.817  29.741  52.981  0.00  0.00     0.002 A 
ENDROOT
BRANCH   4  12
ATOM     12  C   UNL d   1      52.906  33.325  53.116  0.00  0.00     0.086 C 
BRANCH  12  13
ATOM     13  C   UNL d   1      52.106  33.534  53.091  0.00  0.00     0.281 C 
ATOM     14  N   UNL d   1      51.853  34.020  52.505  0.00  0.00    -0.208 NA
ATOM     15  O   UNL d   1      51.583  33.255  53.648  0.00  0.00    -0.265 OA
BRANCH  14  16
ATOM     16  C   UNL d   1      51.044  34.244  52.463  0.00  0.00     0.085 A 
ATOM     17  C   UNL d   1      50.681  34.592  53.091  0.00  0.00     0.019 A 
ATOM     18  C   UNL d   1      49.881  34.812  53.044  0.00  0.00     0.002 A 
ATOM     19  C   UNL d   1      49.479  34.666  52.352  0.00  0.00     0.000 A 
ATOM     20  C   UNL d   1      49.835  34.319  51.721  0.00  0.00     0.002 A 
ATOM     21  C   UNL d   1      50.617  34.108  51.777  0.00  0.00     0.019 A 
ENDBRANCH  14  16
ENDBRANCH  12  13
ENDBRANCH   4  12
TORSDOF 3
ENDMDL
MODEL 3
REMARK VINA RESULT:      -8.3      2.112      4.036
REMARK  3 active torsions:
REMARK  status: ('A' for Active; 'I' for Inactive)
REMARK    1  A    between atoms: C_5  and  C_4 
REMARK    2  A    between atoms: C_6  and  C_5 
REMARK       I    between atoms: N_9  and  C_6 
REMARK    3  A    between atoms: C_12  and  N_9 
ROOT
ATOM      1  N   UNL d   1      53.492  32.087  53.753  0.00  0.00    -0.205 NA
ATOM      2  C   UNL d   1      52.949  32.236  53.149  0.00  0.00     0.297 A 
ATOM      3  N   UNL d   1      52.850  33.620  53.534  0.00  0.00    -0.239 NA
ATOM      4  C   UNL d   1      52.633  32.989  53.041  0.00  0.00     0.144 A 
ATOM      5  C   UNL d   1      53.714  32.714  54.249  0.00  0.00     0.102 A 
ATOM      6  C   UNL d   1      53.398  33.467  54.142  0.00  0.00     0.099 A 
ATOM      7  O   UNL d   1      52.729  31.611  52.656  0.00  0.00    -0.264 OA
ATOM      8  C   UNL d   1      54.264  32.569  54.861  0.00  0.00     0.021 A 
ATOM      9  C   UNL d   1      53.621  34.101  54.642  0.00  0.00     0.021 A 
ATOM     10  C   UNL d   1      54.483  33.194  55.354  0.00  0.00     0.002 A 
ATOM     11  C   UNL d   1      54.167  33.947  55.246  0.00  0.00     0.002 A 
ENDROOT
BRANCH   4  12
ATOM     12  C   UNL d   1      52.087  33.143  52.437  0.00  0.00     0.086 C 
BRANCH  12  13
ATOM     13  C   UNL d   1      51.350  33.467  52.629  0.00  0.00     0.281 C 
ATOM     14  N   UNL d   1      51.082  34.093  52.206  0.00  0.00    -0.208 NA
ATOM     15  O   UNL d   1      50.903  33.159  53.235  0.00  0.00    -0.265 OA
BRANCH  14  16
ATOM     16  C   UNL d   1      50.336  34.436  52.385  0.00  0.00     0.085 A 
ATOM     17  C   UNL d   1      50.205  34.785  53.097  0.00  0.00     0.019 A 
ATOM     18  C   UNL d   1      49.466  35.122  53.270  0.00  0.00     0.002 A 
ATOM     19  C   UNL d   1      48.883  35.089  52.703  0.00  0.00     0.000 A 
ATOM     20  C   UNL d   1      49.006  34.743  51.989  0.00  0.00     0.002 A 
ATOM     21  C   UNL d   1      49.733  34.416  51.831  0.00  0.00     0.019 A 
ENDBRANCH  14  16
ENDBRANCH  12  13
ENDBRANCH   4  12
TORSDOF 3
ENDMDL
