MODEL 1
REMARK VINA RESULT:      14.2      0.000      0.000
REMARK  0 active torsions:
REMARK  status: ('A' for Active; 'I' for Inactive)
ROOT
ATOM      1  N   UNL d   1      58.804  49.691  51.334  0.00  0.00    -0.183 NA
ATOM      2  C   UNL d   1      59.555  49.694  50.989  0.00  0.00     0.339 A 
ATOM      3  N   UNL d   1      58.951  49.706  49.699  0.00  0.00    -0.201 NA
ATOM      4  C   UNL d   1      59.627  49.702  50.178  0.00  0.00     0.337 A 
ATOM      5  C   UNL d   1      58.129  49.695  50.861  0.00  0.00     0.184 A 
ATOM      6  C   UNL d   1      58.202  49.703  50.050  0.00  0.00     0.121 A 
ATOM      7  N   UNL d   1      57.379  49.692  51.206  0.00  0.00    -0.223 NA
ATOM      8  C   UNL d   1      57.526  49.707  49.571  0.00  0.00     0.031 A 
ATOM      9  O   UNL d   1      60.237  49.690  51.463  0.00  0.00    -0.260 OA
ATOM     10  O   UNL d   1      60.384  49.705  49.827  0.00  0.00    -0.260 OA
ATOM     11  C   UNL d   1      56.776  49.704  49.922  0.00  0.00     0.055 A 
ATOM     12  C   UNL d   1      56.703  49.696  50.733  0.00  0.00     0.107 A 
ATOM     13 BR   UNL d   1      56.097  49.708  49.455  0.00  0.00    -0.048 Br
ENDROOT
TORSDOF 0
ENDMDL
MODEL 2
REMARK VINA RESULT:      15.7      2.115      3.013
REMARK  0 active torsions:
REMARK  status: ('A' for Active; 'I' for Inactive)
ROOT
ATOM      1  N   UNL d   1      57.896  49.688  49.630  0.00  0.00    -0.183 NA
ATOM      2  C   UNL d   1      57.137  49.674  49.956  0.00  0.00     0.339 A 
ATOM      3  N   UNL d   1      57.709  49.663  51.261  0.00  0.00    -0.201 NA
ATOM      4  C   UNL d   1      57.044  49.662  50.765  0.00  0.00     0.337 A 
ATOM      5  C   UNL d   1      58.559  49.688  50.119  0.00  0.00     0.184 A 
ATOM      6  C   UNL d   1      58.466  49.676  50.928  0.00  0.00     0.121 A 
ATOM      7  N   UNL d   1      59.317  49.701  49.793  0.00  0.00    -0.223 NA
ATOM      8  C   UNL d   1      59.130  49.676  51.424  0.00  0.00     0.031 A 
ATOM      9  O   UNL d   1      56.467  49.674  49.465  0.00  0.00    -0.260 OA
ATOM     10  O   UNL d   1      56.279  49.649  51.096  0.00  0.00    -0.260 OA
ATOM     11  C   UNL d   1      59.888  49.689  51.091  0.00  0.00     0.055 A 
ATOM     12  C   UNL d   1      59.981  49.702  50.283  0.00  0.00     0.107 A 
ATOM     13 BR   UNL d   1      60.556  49.690  51.576  0.00  0.00    -0.048 Br
ENDROOT
TORSDOF 0
ENDMDL
