MODEL 1
REMARK VINA RESULT:      -3.2      0.000      0.000
REMARK  3 active torsions:
REMARK  status: ('A' for Active; 'I' for Inactive)
REMARK    1  A    between atoms: N_3  and  S_1 
REMARK    2  A    between atoms: C_9  and  S_1 
REMARK    3  A    between atoms: C_2  and  N_3 
ROOT
ATOM      1  C   UNL d   1      58.382  -1.050  30.188  0.00  0.00     0.157 A 
ATOM      2  C   UNL d   1      58.302  -1.779  29.819  0.00  0.00     0.102 A 
ATOM      3  C   UNL d   1      58.850  -2.006  29.246  0.00  0.00     0.110 A 
ATOM      4  C   UNL d   1      59.479  -1.503  29.042  0.00  0.00     0.207 A 
ATOM      5  C   UNL d   1      58.991  -0.555  29.995  0.00  0.00     0.035 A 
ATOM      6  C   UNL d   1      59.539  -0.781  29.422  0.00  0.00     0.042 A 
ATOM      7 CL   UNL d   1      57.686  -2.287  30.010  0.00  0.00    -0.079 Cl
ATOM      8 CL   UNL d   1      58.783  -2.740  28.865  0.00  0.00    -0.078 Cl
ATOM      9  O   UNL d   1      60.027  -1.730  28.469  0.00  0.00    -0.286 OA
ATOM     10  C   UNL d   1      59.071   0.174  30.364  0.00  0.00     0.003 A 
ATOM     11  C   UNL d   1      60.168  -0.279  29.218  0.00  0.00     0.003 A 
ATOM     12  C   UNL d   1      60.235   0.455  29.600  0.00  0.00     0.000 A 
ATOM     13  C   UNL d   1      59.687   0.682  30.173  0.00  0.00     0.000 A 
ENDROOT
BRANCH   1  14
ATOM     14  N   UNL d   1      57.833  -0.824  30.761  0.00  0.00    -0.316 NA
BRANCH  14  15
ATOM     15  S   UNL d   1      57.284  -0.597  31.334  0.00  0.00     0.327 S 
ATOM     16  O   UNL d   1      57.032   0.006  30.854  0.00  0.00    -0.186 OA
ATOM     17  O   UNL d   1      57.545  -1.212  31.819  0.00  0.00    -0.186 OA
BRANCH  15  18
ATOM     18  C   UNL d   1      56.739  -0.372  31.904  0.00  0.00     0.116 A 
ATOM     19  C   UNL d   1      56.694   0.402  32.149  0.00  0.00     0.014 A 
ATOM     20  C   UNL d   1      56.145   0.629  32.722  0.00  0.00     0.001 A 
ATOM     21  C   UNL d   1      55.637   0.068  33.050  0.00  0.00     0.000 A 
ATOM     22  C   UNL d   1      55.677  -0.719  32.807  0.00  0.00     0.001 A 
ATOM     23  C   UNL d   1      55.091   0.314  33.626  0.00  0.00     0.000 C 
ATOM     24  C   UNL d   1      56.231  -0.948  32.227  0.00  0.00     0.014 A 
ENDBRANCH  15  18
ENDBRANCH  14  15
ENDBRANCH   1  14
TORSDOF 3
ENDMDL
MODEL 2
REMARK VINA RESULT:      -2.8      1.303      1.830
REMARK  3 active torsions:
REMARK  status: ('A' for Active; 'I' for Inactive)
REMARK    1  A    between atoms: N_3  and  S_1 
REMARK    2  A    between atoms: C_9  and  S_1 
REMARK    3  A    between atoms: C_2  and  N_3 
ROOT
ATOM      1  C   UNL d   1      58.701  -0.180  30.550  0.00  0.00     0.157 A 
ATOM      2  C   UNL d   1      59.376   0.239  30.754  0.00  0.00     0.102 A 
ATOM      3  C   UNL d   1      60.029   0.227  30.249  0.00  0.00     0.110 A 
ATOM      4  C   UNL d   1      60.006  -0.204  29.540  0.00  0.00     0.207 A 
ATOM      5  C   UNL d   1      58.670  -0.603  29.862  0.00  0.00     0.035 A 
ATOM      6  C   UNL d   1      59.322  -0.615  29.357  0.00  0.00     0.042 A 
ATOM      7 CL   UNL d   1      59.414   0.671  31.451  0.00  0.00    -0.079 Cl
ATOM      8 CL   UNL d   1      60.719   0.646  30.442  0.00  0.00    -0.078 Cl
ATOM      9  O   UNL d   1      60.658  -0.216  29.036  0.00  0.00    -0.286 OA
ATOM     10  C   UNL d   1      57.995  -1.022  29.657  0.00  0.00     0.003 A 
ATOM     11  C   UNL d   1      59.299  -1.047  28.648  0.00  0.00     0.003 A 
ATOM     12  C   UNL d   1      58.609  -1.466  28.455  0.00  0.00     0.000 A 
ATOM     13  C   UNL d   1      57.957  -1.454  28.960  0.00  0.00     0.000 A 
ENDROOT
BRANCH   1  14
ATOM     14  N   UNL d   1      58.048  -0.168  31.055  0.00  0.00    -0.316 NA
BRANCH  14  15
ATOM     15  S   UNL d   1      57.396  -0.156  31.560  0.00  0.00     0.327 S 
ATOM     16  O   UNL d   1      57.660  -0.835  31.917  0.00  0.00    -0.186 OA
ATOM     17  O   UNL d   1      57.132   0.535  31.194  0.00  0.00    -0.186 OA
BRANCH  15  18
ATOM     18  C   UNL d   1      56.747  -0.144  32.061  0.00  0.00     0.116 A 
ATOM     19  C   UNL d   1      56.382   0.559  32.247  0.00  0.00     0.014 A 
ATOM     20  C   UNL d   1      55.730   0.571  32.752  0.00  0.00     0.001 A 
ATOM     21  C   UNL d   1      55.443  -0.133  33.072  0.00  0.00     0.000 A 
ATOM     22  C   UNL d   1      55.809  -0.850  32.888  0.00  0.00     0.001 A 
ATOM     23  C   UNL d   1      54.786  -0.102  33.578  0.00  0.00     0.000 C 
ATOM     24  C   UNL d   1      56.468  -0.862  32.378  0.00  0.00     0.014 A 
ENDBRANCH  15  18
ENDBRANCH  14  15
ENDBRANCH   1  14
TORSDOF 3
ENDMDL
MODEL 3
REMARK VINA RESULT:      -1.8      2.089      4.718
REMARK  3 active torsions:
REMARK  status: ('A' for Active; 'I' for Inactive)
REMARK    1  A    between atoms: N_3  and  S_1 
REMARK    2  A    between atoms: C_9  and  S_1 
REMARK    3  A    between atoms: C_2  and  N_3 
ROOT
ATOM      1  C   UNL d   1      56.455   0.213  32.944  0.00  0.00     0.157 A 
ATOM      2  C   UNL d   1      55.634   0.207  32.934  0.00  0.00     0.102 A 
ATOM      3  C   UNL d   1      55.219   0.361  33.631  0.00  0.00     0.110 A 
ATOM      4  C   UNL d   1      55.625   0.520  34.337  0.00  0.00     0.207 A 
ATOM      5  C   UNL d   1      56.858   0.367  33.627  0.00  0.00     0.035 A 
ATOM      6  C   UNL d   1      56.444   0.520  34.324  0.00  0.00     0.042 A 
ATOM      7 CL   UNL d   1      55.218   0.051  32.244  0.00  0.00    -0.079 Cl
ATOM      8 CL   UNL d   1      54.389   0.358  33.637  0.00  0.00    -0.078 Cl
ATOM      9  O   UNL d   1      55.211   0.673  35.034  0.00  0.00    -0.286 OA
ATOM     10  C   UNL d   1      57.679   0.373  33.637  0.00  0.00     0.003 A 
ATOM     11  C   UNL d   1      56.850   0.680  35.030  0.00  0.00     0.003 A 
ATOM     12  C   UNL d   1      57.680   0.682  35.024  0.00  0.00     0.000 A 
ATOM     13  C   UNL d   1      58.094   0.529  34.327  0.00  0.00     0.000 A 
ENDROOT
BRANCH   1  14
ATOM     14  N   UNL d   1      56.869   0.059  32.247  0.00  0.00    -0.316 NA
BRANCH  14  15
ATOM     15  S   UNL d   1      57.284  -0.094  31.551  0.00  0.00     0.327 S 
ATOM     16  O   UNL d   1      57.182   0.677  31.320  0.00  0.00    -0.186 OA
ATOM     17  O   UNL d   1      57.384  -0.877  31.789  0.00  0.00    -0.186 OA
BRANCH  15  18
ATOM     18  C   UNL d   1      57.696  -0.247  30.858  0.00  0.00     0.116 A 
ATOM     19  C   UNL d   1      58.052   0.359  30.448  0.00  0.00     0.014 A 
ATOM     20  C   UNL d   1      58.467   0.205  29.751  0.00  0.00     0.001 A 
ATOM     21  C   UNL d   1      58.522  -0.567  29.466  0.00  0.00     0.000 A 
ATOM     22  C   UNL d   1      58.163  -1.186  29.877  0.00  0.00     0.001 A 
ATOM     23  C   UNL d   1      58.943  -0.703  28.764  0.00  0.00     0.000 C 
ATOM     24  C   UNL d   1      57.744  -1.031  30.581  0.00  0.00     0.014 A 
ENDBRANCH  15  18
ENDBRANCH  14  15
ENDBRANCH   1  14
TORSDOF 3
ENDMDL
