MODEL 1
REMARK VINA RESULT:      -4.8      0.000      0.000
REMARK  4 active torsions:
REMARK  status: ('A' for Active; 'I' for Inactive)
REMARK    1  A    between atoms: C_9  and  C_3 
REMARK    2  A    between atoms: C_6  and  C_10 
REMARK    3  A    between atoms: S_7  and  C_9 
REMARK    4  A    between atoms: C_10  and  S_7 
ROOT
ATOM      1  N   UNL d   1      57.001  -0.806  31.562  0.00  0.00    -0.218 NA
ATOM      2  N   UNL d   1      56.855   0.484  31.807  0.00  0.00    -0.218 NA
ATOM      3  C   UNL d   1      57.249  -0.059  31.324  0.00  0.00     0.206 A 
ATOM      4  C   UNL d   1      56.474  -0.729  32.169  0.00  0.00     0.101 A 
ATOM      5  C   UNL d   1      56.384   0.077  32.322  0.00  0.00     0.101 A 
ATOM      6  C   UNL d   1      56.053  -1.254  32.620  0.00  0.00     0.021 A 
ATOM      7  C   UNL d   1      55.874   0.328  32.920  0.00  0.00     0.021 A 
ATOM      8  C   UNL d   1      55.546  -1.031  33.213  0.00  0.00     0.002 A 
ATOM      9  C   UNL d   1      55.455  -0.226  33.366  0.00  0.00     0.002 A 
ENDROOT
BRANCH   3  10
ATOM     10  C   UNL d   1      57.784   0.116  30.721  0.00  0.00    -0.027 C 
BRANCH  10  11
ATOM     11  S   UNL d   1      58.320   0.290  30.119  0.00  0.00    -0.041 SA
BRANCH  11  12
ATOM     12  C   UNL d   1      58.525  -0.289  29.567  0.00  0.00     0.043 C 
BRANCH  12  13
ATOM     13  C   UNL d   1      59.103  -0.133  29.000  0.00  0.00     0.007 C 
ATOM     14  C   UNL d   1      58.990   0.481  28.455  0.00  0.00     0.001 C 
ATOM     15  C   UNL d   1      59.791  -0.588  28.977  0.00  0.00     0.001 C 
ENDBRANCH  12  13
ENDBRANCH  11  12
ENDBRANCH  10  11
ENDBRANCH   3  10
TORSDOF 4
ENDMDL
MODEL 2
REMARK VINA RESULT:      -4.1      1.160      4.262
REMARK  4 active torsions:
REMARK  status: ('A' for Active; 'I' for Inactive)
REMARK    1  A    between atoms: C_9  and  C_3 
REMARK    2  A    between atoms: C_6  and  C_10 
REMARK    3  A    between atoms: S_7  and  C_9 
REMARK    4  A    between atoms: C_10  and  S_7 
ROOT
ATOM      1  N   UNL d   1      58.672   0.403  30.796  0.00  0.00    -0.218 NA
ATOM      2  N   UNL d   1      57.696   0.361  29.906  0.00  0.00    -0.218 NA
ATOM      3  C   UNL d   1      57.858   0.319  30.715  0.00  0.00     0.206 A 
ATOM      4  C   UNL d   1      59.002   0.493  30.064  0.00  0.00     0.101 A 
ATOM      5  C   UNL d   1      58.392   0.467  29.509  0.00  0.00     0.101 A 
ATOM      6  C   UNL d   1      59.759   0.596  29.797  0.00  0.00     0.021 A 
ATOM      7  C   UNL d   1      58.563   0.545  28.706  0.00  0.00     0.021 A 
ATOM      8  C   UNL d   1      59.952   0.675  29.013  0.00  0.00     0.002 A 
ATOM      9  C   UNL d   1      59.343   0.649  28.457  0.00  0.00     0.002 A 
ENDROOT
BRANCH   3  10
ATOM     10  C   UNL d   1      57.309   0.214  31.322  0.00  0.00    -0.027 C 
BRANCH  10  11
ATOM     11  S   UNL d   1      56.760   0.109  31.929  0.00  0.00    -0.041 SA
BRANCH  11  12
ATOM     12  C   UNL d   1      56.584  -0.651  32.200  0.00  0.00     0.043 C 
BRANCH  12  13
ATOM     13  C   UNL d   1      56.010  -0.759  32.782  0.00  0.00     0.007 C 
ATOM     14  C   UNL d   1      55.631  -0.101  33.114  0.00  0.00     0.001 C 
ATOM     15  C   UNL d   1      55.816  -1.520  33.033  0.00  0.00     0.001 C 
ENDBRANCH  12  13
ENDBRANCH  11  12
ENDBRANCH  10  11
ENDBRANCH   3  10
TORSDOF 4
ENDMDL
MODEL 3
REMARK VINA RESULT:      -4.0      1.086      4.255
REMARK  4 active torsions:
REMARK  status: ('A' for Active; 'I' for Inactive)
REMARK    1  A    between atoms: C_9  and  C_3 
REMARK    2  A    between atoms: C_6  and  C_10 
REMARK    3  A    between atoms: S_7  and  C_9 
REMARK    4  A    between atoms: C_10  and  S_7 
ROOT
ATOM      1  N   UNL d   1      57.909  -0.455  29.986  0.00  0.00    -0.218 NA
ATOM      2  N   UNL d   1      58.546   0.564  30.534  0.00  0.00    -0.218 NA
ATOM      3  C   UNL d   1      57.896   0.061  30.625  0.00  0.00     0.206 A 
ATOM      4  C   UNL d   1      58.542  -0.280  29.517  0.00  0.00     0.101 A 
ATOM      5  C   UNL d   1      58.940   0.357  29.859  0.00  0.00     0.101 A 
ATOM      6  C   UNL d   1      58.836  -0.589  28.828  0.00  0.00     0.021 A 
ATOM      7  C   UNL d   1      59.617   0.661  29.501  0.00  0.00     0.021 A 
ATOM      8  C   UNL d   1      59.499  -0.306  28.456  0.00  0.00     0.002 A 
ATOM      9  C   UNL d   1      59.897   0.330  28.799  0.00  0.00     0.002 A 
ENDROOT
BRANCH   3  10
ATOM     10  C   UNL d   1      57.343   0.077  31.237  0.00  0.00    -0.027 C 
BRANCH  10  11
ATOM     11  S   UNL d   1      56.791   0.092  31.850  0.00  0.00    -0.041 SA
BRANCH  11  12
ATOM     12  C   UNL d   1      56.689  -0.571  32.331  0.00  0.00     0.043 C 
BRANCH  12  13
ATOM     13  C   UNL d   1      56.022  -0.633  32.812  0.00  0.00     0.007 C 
ATOM     14  C   UNL d   1      55.716  -1.381  32.998  0.00  0.00     0.001 C 
ATOM     15  C   UNL d   1      55.662   0.048  33.107  0.00  0.00     0.001 C 
ENDBRANCH  12  13
ENDBRANCH  11  12
ENDBRANCH  10  11
ENDBRANCH   3  10
TORSDOF 4
ENDMDL
MODEL 4
REMARK VINA RESULT:      -2.9      1.490      4.328
REMARK  4 active torsions:
REMARK  status: ('A' for Active; 'I' for Inactive)
REMARK    1  A    between atoms: C_9  and  C_3 
REMARK    2  A    between atoms: C_6  and  C_10 
REMARK    3  A    between atoms: S_7  and  C_9 
REMARK    4  A    between atoms: C_10  and  S_7 
ROOT
ATOM      1  N   UNL d   1      56.709  -0.637  31.858  0.00  0.00    -0.218 NA
ATOM      2  N   UNL d   1      57.271   0.553  31.744  0.00  0.00    -0.218 NA
ATOM      3  C   UNL d   1      56.718   0.120  32.179  0.00  0.00     0.206 A 
ATOM      4  C   UNL d   1      57.237  -0.671  31.248  0.00  0.00     0.101 A 
ATOM      5  C   UNL d   1      57.587   0.072  31.177  0.00  0.00     0.101 A 
ATOM      6  C   UNL d   1      57.467  -1.254  30.734  0.00  0.00     0.021 A 
ATOM      7  C   UNL d   1      58.155   0.206  30.594  0.00  0.00     0.021 A 
ATOM      8  C   UNL d   1      58.022  -1.147  30.153  0.00  0.00     0.002 A 
ATOM      9  C   UNL d   1      58.373  -0.403  30.082  0.00  0.00     0.002 A 
ENDROOT
BRANCH   3  10
ATOM     10  C   UNL d   1      56.264   0.394  32.811  0.00  0.00    -0.027 C 
BRANCH  10  11
ATOM     11  S   UNL d   1      55.811   0.668  33.443  0.00  0.00    -0.041 SA
BRANCH  11  12
ATOM     12  C   UNL d   1      55.172   0.222  33.718  0.00  0.00     0.043 C 
BRANCH  12  13
ATOM     13  C   UNL d   1      54.742   0.478  34.374  0.00  0.00     0.007 C 
ATOM     14  C   UNL d   1      55.138   0.682  35.073  0.00  0.00     0.001 C 
ATOM     15  C   UNL d   1      53.919   0.530  34.332  0.00  0.00     0.001 C 
ENDBRANCH  12  13
ENDBRANCH  11  12
ENDBRANCH  10  11
ENDBRANCH   3  10
TORSDOF 4
ENDMDL
MODEL 5
REMARK VINA RESULT:      -2.0      2.251      4.725
REMARK  4 active torsions:
REMARK  status: ('A' for Active; 'I' for Inactive)
REMARK    1  A    between atoms: C_9  and  C_3 
REMARK    2  A    between atoms: C_6  and  C_10 
REMARK    3  A    between atoms: S_7  and  C_9 
REMARK    4  A    between atoms: C_10  and  S_7 
ROOT
ATOM      1  N   UNL d   1      58.842  -2.549  29.531  0.00  0.00    -0.218 NA
ATOM      2  N   UNL d   1      59.775  -1.677  29.193  0.00  0.00    -0.218 NA
ATOM      3  C   UNL d   1      59.029  -1.748  29.541  0.00  0.00     0.206 A 
ATOM      4  C   UNL d   1      59.449  -2.958  29.190  0.00  0.00     0.101 A 
ATOM      5  C   UNL d   1      60.032  -2.413  28.979  0.00  0.00     0.101 A 
ATOM      6  C   UNL d   1      59.581  -3.741  29.030  0.00  0.00     0.021 A 
ATOM      7  C   UNL d   1      60.725  -2.672  28.616  0.00  0.00     0.021 A 
ATOM      8  C   UNL d   1      60.254  -4.019  28.674  0.00  0.00     0.002 A 
ATOM      9  C   UNL d   1      60.837  -3.475  28.463  0.00  0.00     0.002 A 
ENDROOT
BRANCH   3  10
ATOM     10  C   UNL d   1      58.564  -1.135  29.839  0.00  0.00    -0.027 C 
BRANCH  10  11
ATOM     11  S   UNL d   1      58.099  -0.522  30.137  0.00  0.00    -0.041 SA
BRANCH  11  12
ATOM     12  C   UNL d   1      58.016  -0.426  30.953  0.00  0.00     0.043 C 
BRANCH  12  13
ATOM     13  C   UNL d   1      57.329  -0.089  31.260  0.00  0.00     0.007 C 
ATOM     14  C   UNL d   1      56.858  -0.521  31.787  0.00  0.00     0.001 C 
ATOM     15  C   UNL d   1      57.113   0.677  31.043  0.00  0.00     0.001 C 
ENDBRANCH  12  13
ENDBRANCH  11  12
ENDBRANCH  10  11
ENDBRANCH   3  10
TORSDOF 4
ENDMDL
