MODEL 1
REMARK VINA RESULT:      -8.9      0.000      0.000
REMARK  7 active torsions:
REMARK  status: ('A' for Active; 'I' for Inactive)
REMARK    1  A    between atoms: C_11  and  C_3 
REMARK    2  A    between atoms: C_10  and  C_4 
REMARK    3  A    between atoms: O_15  and  C_10 
REMARK    4  A    between atoms: N_14  and  C_11 
REMARK    5  A    between atoms: C_20  and  N_14 
REMARK    6  A    between atoms: C_22  and  O_15 
REMARK    7  A    between atoms: C_21  and  C_20 
ROOT
ATOM      1  C   UNL d   1      53.376  32.753  53.695  0.00  0.00     0.035 A 
ATOM      2  C   UNL d   1      53.773  32.066  53.922  0.00  0.00     0.100 A 
ATOM      3  C   UNL d   1      52.709  32.700  53.215  0.00  0.00     0.060 A 
ATOM      4  C   UNL d   1      53.758  33.416  54.021  0.00  0.00     0.088 A 
ATOM      5  O   UNL d   1      54.419  32.315  54.402  0.00  0.00    -0.307 OA
ATOM      6  C   UNL d   1      54.400  33.140  54.456  0.00  0.00     0.105 A 
ATOM      7  C   UNL d   1      52.438  31.961  52.961  0.00  0.00     0.197 A 
ATOM      8  C   UNL d   1      53.505  31.336  53.671  0.00  0.00     0.026 A 
ATOM      9  C   UNL d   1      52.837  31.283  53.191  0.00  0.00     0.041 A 
ATOM     10  O   UNL d   1      51.759  31.908  52.473  0.00  0.00    -0.286 OA
ATOM     11  C   UNL d   1      54.953  33.636  54.891  0.00  0.00     0.027 C 
ATOM     12  C   UNL d   1      53.902  30.640  53.898  0.00  0.00     0.002 A 
ATOM     13  C   UNL d   1      52.567  30.535  52.938  0.00  0.00     0.003 A 
ATOM     14  C   UNL d   1      52.966  29.862  53.167  0.00  0.00     0.000 A 
ATOM     15  C   UNL d   1      53.634  29.915  53.647  0.00  0.00     0.000 A 
ENDROOT
BRANCH   3  16
ATOM     16  C   UNL d   1      52.329  33.412  53.001  0.00  0.00     0.102 C 
BRANCH  16  17
ATOM     17  N   UNL d   1      51.515  33.389  52.784  0.00  0.00    -0.239 NA
BRANCH  17  18
ATOM     18  C   UNL d   1      51.170  34.060  52.426  0.00  0.00     0.144 C 
BRANCH  18  19
ATOM     19  C   UNL d   1      50.393  34.253  52.602  0.00  0.00     0.255 C 
ATOM     20  O   UNL d   1      49.865  34.480  52.010  0.00  0.00    -0.281 OA
ENDBRANCH  18  19
ENDBRANCH  17  18
ENDBRANCH  16  17
ENDBRANCH   3  16
BRANCH   4  21
ATOM     21  C   UNL d   1      53.554  34.244  53.942  0.00  0.00     0.302 C 
ATOM     22  O   UNL d   1      53.717  34.650  53.244  0.00  0.00    -0.259 OA
BRANCH  21  23
ATOM     23  O   UNL d   1      53.198  34.617  54.571  0.00  0.00    -0.271 OA
BRANCH  23  24
ATOM     24  C   UNL d   1      53.205  35.436  54.642  0.00  0.00     0.126 C 
ATOM     25  C   UNL d   1      52.695  35.809  55.180  0.00  0.00     0.029 C 
ENDBRANCH  23  24
ENDBRANCH  21  23
ENDBRANCH   4  21
TORSDOF 7
ENDMDL
MODEL 2
REMARK VINA RESULT:      -7.6      1.073      2.749
REMARK  7 active torsions:
REMARK  status: ('A' for Active; 'I' for Inactive)
REMARK    1  A    between atoms: C_11  and  C_3 
REMARK    2  A    between atoms: C_10  and  C_4 
REMARK    3  A    between atoms: O_15  and  C_10 
REMARK    4  A    between atoms: N_14  and  C_11 
REMARK    5  A    between atoms: C_20  and  N_14 
REMARK    6  A    between atoms: C_22  and  O_15 
REMARK    7  A    between atoms: C_21  and  C_20 
ROOT
ATOM      1  C   UNL d   1      52.786  32.672  53.317  0.00  0.00     0.035 A 
ATOM      2  C   UNL d   1      52.279  32.047  53.132  0.00  0.00     0.100 A 
ATOM      3  C   UNL d   1      53.558  32.515  53.559  0.00  0.00     0.060 A 
ATOM      4  C   UNL d   1      52.386  33.393  53.216  0.00  0.00     0.088 A 
ATOM      5  O   UNL d   1      51.546  32.396  52.911  0.00  0.00    -0.307 OA
ATOM      6  C   UNL d   1      51.622  33.218  52.965  0.00  0.00     0.105 A 
ATOM      7  C   UNL d   1      53.824  31.734  53.615  0.00  0.00     0.197 A 
ATOM      8  C   UNL d   1      52.543  31.275  53.189  0.00  0.00     0.026 A 
ATOM      9  C   UNL d   1      53.315  31.119  53.430  0.00  0.00     0.041 A 
ATOM     10  O   UNL d   1      54.609  31.575  53.860  0.00  0.00    -0.286 OA
ATOM     11  C   UNL d   1      51.011  33.800  52.791  0.00  0.00     0.027 C 
ATOM     12  C   UNL d   1      52.035  30.642  53.003  0.00  0.00     0.002 A 
ATOM     13  C   UNL d   1      53.580  30.329  53.485  0.00  0.00     0.003 A 
ATOM     14  C   UNL d   1      53.072  29.719  53.301  0.00  0.00     0.000 A 
ATOM     15  C   UNL d   1      52.300  29.875  53.059  0.00  0.00     0.000 A 
ENDROOT
BRANCH   3  16
ATOM     16  C   UNL d   1      54.046  33.167  53.739  0.00  0.00     0.102 C 
BRANCH  16  17
ATOM     17  N   UNL d   1      54.735  33.042  54.207  0.00  0.00    -0.239 NA
BRANCH  17  18
ATOM     18  C   UNL d   1      55.231  33.690  54.384  0.00  0.00     0.144 C 
BRANCH  18  19
ATOM     19  C   UNL d   1      55.631  33.705  55.100  0.00  0.00     0.255 C 
ATOM     20  O   UNL d   1      55.649  34.388  55.564  0.00  0.00    -0.281 OA
ENDBRANCH  18  19
ENDBRANCH  17  18
ENDBRANCH  16  17
ENDBRANCH   3  16
BRANCH   4  21
ATOM     21  C   UNL d   1      52.678  34.190  53.338  0.00  0.00     0.302 C 
ATOM     22  O   UNL d   1      53.125  34.564  52.757  0.00  0.00    -0.259 OA
BRANCH  21  23
ATOM     23  O   UNL d   1      52.502  34.564  54.038  0.00  0.00    -0.271 OA
BRANCH  23  24
ATOM     24  C   UNL d   1      52.540  35.382  54.107  0.00  0.00     0.126 C 
ATOM     25  C   UNL d   1      52.505  35.736  54.856  0.00  0.00     0.029 C 
ENDBRANCH  23  24
ENDBRANCH  21  23
ENDBRANCH   4  21
TORSDOF 7
ENDMDL
MODEL 3
REMARK VINA RESULT:      -7.3      1.105      3.320
REMARK  7 active torsions:
REMARK  status: ('A' for Active; 'I' for Inactive)
REMARK    1  A    between atoms: C_11  and  C_3 
REMARK    2  A    between atoms: C_10  and  C_4 
REMARK    3  A    between atoms: O_15  and  C_10 
REMARK    4  A    between atoms: N_14  and  C_11 
REMARK    5  A    between atoms: C_20  and  N_14 
REMARK    6  A    between atoms: C_22  and  O_15 
REMARK    7  A    between atoms: C_21  and  C_20 
ROOT
ATOM      1  C   UNL d   1      52.580  33.732  53.828  0.00  0.00     0.035 A 
ATOM      2  C   UNL d   1      52.019  34.317  53.673  0.00  0.00     0.100 A 
ATOM      3  C   UNL d   1      52.553  33.019  53.416  0.00  0.00     0.060 A 
ATOM      4  C   UNL d   1      53.104  33.998  54.416  0.00  0.00     0.088 A 
ATOM      5  O   UNL d   1      52.205  34.962  54.182  0.00  0.00    -0.307 OA
ATOM      6  C   UNL d   1      52.868  34.756  54.631  0.00  0.00     0.105 A 
ATOM      7  C   UNL d   1      51.965  32.891  52.849  0.00  0.00     0.197 A 
ATOM      8  C   UNL d   1      51.438  34.189  53.113  0.00  0.00     0.026 A 
ATOM      9  C   UNL d   1      51.411  33.476  52.701  0.00  0.00     0.041 A 
ATOM     10  O   UNL d   1      51.937  32.166  52.430  0.00  0.00    -0.286 OA
ATOM     11  C   UNL d   1      53.254  35.246  55.224  0.00  0.00     0.027 C 
ATOM     12  C   UNL d   1      50.869  34.776  52.953  0.00  0.00     0.002 A 
ATOM     13  C   UNL d   1      50.815  33.350  52.129  0.00  0.00     0.003 A 
ATOM     14  C   UNL d   1      50.265  33.934  51.983  0.00  0.00     0.000 A 
ATOM     15  C   UNL d   1      50.292  34.647  52.395  0.00  0.00     0.000 A 
ENDROOT
BRANCH   3  16
ATOM     16  C   UNL d   1      53.133  32.447  53.594  0.00  0.00     0.102 C 
BRANCH  16  17
ATOM     17  N   UNL d   1      53.027  31.660  53.314  0.00  0.00    -0.239 NA
BRANCH  17  18
ATOM     18  C   UNL d   1      53.562  31.065  53.558  0.00  0.00     0.144 C 
BRANCH  18  19
ATOM     19  C   UNL d   1      53.404  30.283  53.369  0.00  0.00     0.255 C 
ATOM     20  O   UNL d   1      53.559  29.676  53.906  0.00  0.00    -0.281 OA
ENDBRANCH  18  19
ENDBRANCH  17  18
ENDBRANCH  16  17
ENDBRANCH   3  16
BRANCH   4  21
ATOM     21  C   UNL d   1      53.775  33.591  54.760  0.00  0.00     0.302 C 
ATOM     22  O   UNL d   1      53.664  33.040  55.363  0.00  0.00    -0.259 OA
BRANCH  21  23
ATOM     23  O   UNL d   1      54.518  33.760  54.478  0.00  0.00    -0.271 OA
BRANCH  23  24
ATOM     24  C   UNL d   1      55.187  33.651  54.943  0.00  0.00     0.126 C 
ATOM     25  C   UNL d   1      55.937  33.837  54.640  0.00  0.00     0.029 C 
ENDBRANCH  23  24
ENDBRANCH  21  23
ENDBRANCH   4  21
TORSDOF 7
ENDMDL
MODEL 4
REMARK VINA RESULT:      -7.0      1.155      3.393
REMARK  7 active torsions:
REMARK  status: ('A' for Active; 'I' for Inactive)
REMARK    1  A    between atoms: C_11  and  C_3 
REMARK    2  A    between atoms: C_10  and  C_4 
REMARK    3  A    between atoms: O_15  and  C_10 
REMARK    4  A    between atoms: N_14  and  C_11 
REMARK    5  A    between atoms: C_20  and  N_14 
REMARK    6  A    between atoms: C_22  and  O_15 
REMARK    7  A    between atoms: C_21  and  C_20 
ROOT
ATOM      1  C   UNL d   1      52.820  33.652  53.861  0.00  0.00     0.035 A 
ATOM      2  C   UNL d   1      53.231  34.200  54.321  0.00  0.00     0.100 A 
ATOM      3  C   UNL d   1      53.161  32.921  53.693  0.00  0.00     0.060 A 
ATOM      4  C   UNL d   1      52.085  33.970  53.640  0.00  0.00     0.088 A 
ATOM      5  O   UNL d   1      52.732  34.876  54.384  0.00  0.00    -0.307 OA
ATOM      6  C   UNL d   1      52.036  34.725  53.965  0.00  0.00     0.105 A 
ATOM      7  C   UNL d   1      53.913  32.738  53.985  0.00  0.00     0.197 A 
ATOM      8  C   UNL d   1      53.974  34.018  54.609  0.00  0.00     0.026 A 
ATOM      9  C   UNL d   1      54.315  33.287  54.441  0.00  0.00     0.041 A 
ATOM     10  O   UNL d   1      54.260  31.994  53.814  0.00  0.00    -0.286 OA
ATOM     11  C   UNL d   1      51.367  35.260  53.877  0.00  0.00     0.027 C 
ATOM     12  C   UNL d   1      54.392  34.568  55.074  0.00  0.00     0.002 A 
ATOM     13  C   UNL d   1      55.074  33.106  54.738  0.00  0.00     0.003 A 
ATOM     14  C   UNL d   1      55.472  33.654  55.192  0.00  0.00     0.000 A 
ATOM     15  C   UNL d   1      55.131  34.385  55.360  0.00  0.00     0.000 A 
ENDROOT
BRANCH   3  16
ATOM     16  C   UNL d   1      52.722  32.388  53.226  0.00  0.00     0.102 C 
BRANCH  16  17
ATOM     17  N   UNL d   1      52.987  31.591  53.160  0.00  0.00    -0.239 NA
BRANCH  17  18
ATOM     18  C   UNL d   1      52.471  31.014  52.845  0.00  0.00     0.144 C 
BRANCH  18  19
ATOM     19  C   UNL d   1      52.702  30.227  52.845  0.00  0.00     0.255 C 
ATOM     20  O   UNL d   1      52.227  29.644  53.186  0.00  0.00    -0.281 OA
ENDBRANCH  18  19
ENDBRANCH  17  18
ENDBRANCH  16  17
ENDBRANCH   3  16
BRANCH   4  21
ATOM     21  C   UNL d   1      51.468  33.614  53.165  0.00  0.00     0.302 C 
ATOM     22  O   UNL d   1      50.947  33.070  53.498  0.00  0.00    -0.259 OA
BRANCH  21  23
ATOM     23  O   UNL d   1      51.410  33.824  52.382  0.00  0.00    -0.271 OA
BRANCH  23  24
ATOM     24  C   UNL d   1      50.685  33.833  51.994  0.00  0.00     0.126 C 
ATOM     25  C   UNL d   1      50.629  34.152  51.230  0.00  0.00     0.029 C 
ENDBRANCH  23  24
ENDBRANCH  21  23
ENDBRANCH   4  21
TORSDOF 7
ENDMDL
MODEL 5
REMARK VINA RESULT:      -6.9      1.337      3.988
REMARK  7 active torsions:
REMARK  status: ('A' for Active; 'I' for Inactive)
REMARK    1  A    between atoms: C_11  and  C_3 
REMARK    2  A    between atoms: C_10  and  C_4 
REMARK    3  A    between atoms: O_15  and  C_10 
REMARK    4  A    between atoms: N_14  and  C_11 
REMARK    5  A    between atoms: C_20  and  N_14 
REMARK    6  A    between atoms: C_22  and  O_15 
REMARK    7  A    between atoms: C_21  and  C_20 
ROOT
ATOM      1  C   UNL d   1      52.751  32.338  53.375  0.00  0.00     0.035 A 
ATOM      2  C   UNL d   1      52.157  32.513  52.830  0.00  0.00     0.100 A 
ATOM      3  C   UNL d   1      52.999  32.913  53.910  0.00  0.00     0.060 A 
ATOM      4  C   UNL d   1      53.002  31.552  53.270  0.00  0.00     0.088 A 
ATOM      5  O   UNL d   1      52.040  31.813  52.376  0.00  0.00    -0.307 OA
ATOM      6  C   UNL d   1      52.561  31.234  52.653  0.00  0.00     0.105 A 
ATOM      7  C   UNL d   1      52.653  33.665  53.899  0.00  0.00     0.197 A 
ATOM      8  C   UNL d   1      51.816  33.256  52.821  0.00  0.00     0.026 A 
ATOM      9  C   UNL d   1      52.064  33.832  53.355  0.00  0.00     0.041 A 
ATOM     10  O   UNL d   1      52.906  34.250  54.443  0.00  0.00    -0.286 OA
ATOM     11  C   UNL d   1      52.636  30.430  52.352  0.00  0.00     0.027 C 
ATOM     12  C   UNL d   1      51.216  33.437  52.272  0.00  0.00     0.002 A 
ATOM     13  C   UNL d   1      51.713  34.589  53.341  0.00  0.00     0.003 A 
ATOM     14  C   UNL d   1      51.127  34.753  52.799  0.00  0.00     0.000 A 
ATOM     15  C   UNL d   1      50.878  34.177  52.264  0.00  0.00     0.000 A 
ENDROOT
BRANCH   3  16
ATOM     16  C   UNL d   1      53.601  32.707  54.449  0.00  0.00     0.102 C 
BRANCH  16  17
ATOM     17  N   UNL d   1      53.966  33.315  54.904  0.00  0.00    -0.239 NA
BRANCH  17  18
ATOM     18  C   UNL d   1      54.707  33.168  55.260  0.00  0.00     0.144 C 
BRANCH  18  19
ATOM     19  C   UNL d   1      55.054  33.753  55.719  0.00  0.00     0.255 C 
ATOM     20  O   UNL d   1      55.741  34.137  55.471  0.00  0.00    -0.281 OA
ENDBRANCH  18  19
ENDBRANCH  17  18
ENDBRANCH  16  17
ENDBRANCH   3  16
BRANCH   4  21
ATOM     21  C   UNL d   1      53.603  31.119  53.701  0.00  0.00     0.302 C 
ATOM     22  O   UNL d   1      54.400  31.222  53.521  0.00  0.00    -0.259 OA
BRANCH  21  23
ATOM     23  O   UNL d   1      53.368  30.608  54.287  0.00  0.00    -0.271 OA
BRANCH  23  24
ATOM     24  C   UNL d   1      53.721  29.872  54.380  0.00  0.00     0.126 C 
ATOM     25  C   UNL d   1      53.429  29.341  54.947  0.00  0.00     0.029 C 
ENDBRANCH  23  24
ENDBRANCH  21  23
ENDBRANCH   4  21
TORSDOF 7
ENDMDL
MODEL 6
REMARK VINA RESULT:      -6.8      0.822      3.147
REMARK  7 active torsions:
REMARK  status: ('A' for Active; 'I' for Inactive)
REMARK    1  A    between atoms: C_11  and  C_3 
REMARK    2  A    between atoms: C_10  and  C_4 
REMARK    3  A    between atoms: O_15  and  C_10 
REMARK    4  A    between atoms: N_14  and  C_11 
REMARK    5  A    between atoms: C_20  and  N_14 
REMARK    6  A    between atoms: C_22  and  O_15 
REMARK    7  A    between atoms: C_21  and  C_20 
ROOT
ATOM      1  C   UNL d   1      53.371  32.494  53.798  0.00  0.00     0.035 A 
ATOM      2  C   UNL d   1      54.109  32.560  54.163  0.00  0.00     0.100 A 
ATOM      3  C   UNL d   1      52.849  33.131  53.814  0.00  0.00     0.060 A 
ATOM      4  C   UNL d   1      53.294  31.739  53.460  0.00  0.00     0.088 A 
ATOM      5  O   UNL d   1      54.496  31.821  54.044  0.00  0.00    -0.307 OA
ATOM      6  C   UNL d   1      53.990  31.328  53.614  0.00  0.00     0.105 A 
ATOM      7  C   UNL d   1      53.063  33.833  54.194  0.00  0.00     0.197 A 
ATOM      8  C   UNL d   1      54.320  33.254  54.538  0.00  0.00     0.026 A 
ATOM      9  C   UNL d   1      53.797  33.891  54.554  0.00  0.00     0.041 A 
ATOM     10  O   UNL d   1      52.532  34.481  54.210  0.00  0.00    -0.286 OA
ATOM     11  C   UNL d   1      54.155  30.520  53.366  0.00  0.00     0.027 C 
ATOM     12  C   UNL d   1      55.063  33.325  54.907  0.00  0.00     0.002 A 
ATOM     13  C   UNL d   1      54.018  34.598  54.939  0.00  0.00     0.003 A 
ATOM     14  C   UNL d   1      54.748  34.653  55.296  0.00  0.00     0.000 A 
ATOM     15  C   UNL d   1      55.271  34.017  55.280  0.00  0.00     0.000 A 
ENDROOT
BRANCH   3  16
ATOM     16  C   UNL d   1      52.111  33.035  53.437  0.00  0.00     0.102 C 
BRANCH  16  17
ATOM     17  N   UNL d   1      51.662  33.720  53.241  0.00  0.00    -0.239 NA
BRANCH  17  18
ATOM     18  C   UNL d   1      50.845  33.642  53.085  0.00  0.00     0.144 C 
BRANCH  18  19
ATOM     19  C   UNL d   1      50.488  34.154  52.553  0.00  0.00     0.255 C 
ATOM     20  O   UNL d   1      49.742  34.473  52.704  0.00  0.00    -0.281 OA
ENDBRANCH  18  19
ENDBRANCH  17  18
ENDBRANCH  16  17
ENDBRANCH   3  16
BRANCH   4  21
ATOM     21  C   UNL d   1      52.633  31.411  53.025  0.00  0.00     0.302 C 
ATOM     22  O   UNL d   1      52.567  31.530  52.213  0.00  0.00    -0.259 OA
BRANCH  21  23
ATOM     23  O   UNL d   1      52.075  30.982  53.432  0.00  0.00    -0.271 OA
BRANCH  23  24
ATOM     24  C   UNL d   1      51.757  30.290  53.122  0.00  0.00     0.126 C 
ATOM     25  C   UNL d   1      51.203  29.856  53.562  0.00  0.00     0.029 C 
ENDBRANCH  23  24
ENDBRANCH  21  23
ENDBRANCH   4  21
TORSDOF 7
ENDMDL
