MODEL 1
REMARK VINA RESULT:      -1.4      0.000      0.000
REMARK  5 active torsions:
REMARK  status: ('A' for Active; 'I' for Inactive)
REMARK    1  A    between atoms: C_12  and  N_3 
REMARK    2  A    between atoms: C_11  and  C_5 
REMARK    3  A    between atoms: C_10  and  C_8 
REMARK    4  A    between atoms: O_27  and  C_14 
REMARK    5  A    between atoms: O_28  and  C_21 
ROOT
ATOM      1  C   UNL d   1      31.692  16.574 -23.947  0.00  0.00     0.143 A 
ATOM      2  C   UNL d   1      31.194  17.225 -24.063  0.00  0.00     0.172 A 
ATOM      3  N   UNL d   1      30.427  16.948 -24.218  0.00  0.00    -0.242 N 
ATOM      4  C   UNL d   1      30.455  16.120 -24.197  0.00  0.00     0.355 A 
ATOM      5  C   UNL d   1      32.481  16.684 -23.784  0.00  0.00     0.163 A 
ATOM      6  N   UNL d   1      31.500  17.994 -24.013  0.00  0.00    -0.207 NA
ATOM      7  N   UNL d   1      31.233  15.895 -24.031  0.00  0.00    -0.187 NA
ATOM      8  C   UNL d   1      32.305  18.095 -23.847  0.00  0.00     0.166 A 
ATOM      9  N   UNL d   1      32.796  17.440 -23.732  0.00  0.00    -0.220 NA
ATOM     10  O   UNL d   1      29.812  15.615 -24.322  0.00  0.00    -0.244 OA
ENDROOT
BRANCH   8  11
ATOM     11  C   UNL d   1      32.617  18.854 -23.796  0.00  0.00     0.060 A 
ATOM     12  C   UNL d   1      32.855  19.152 -23.068  0.00  0.00     0.097 A 
ATOM     13  C   UNL d   1      33.169  19.917 -23.017  0.00  0.00     0.026 A 
ATOM     14  C   UNL d   1      33.241  20.374 -23.692  0.00  0.00     0.026 A 
ATOM     15  C   UNL d   1      33.001  20.068 -24.415  0.00  0.00     0.094 A 
ATOM     16  C   UNL d   1      32.690  19.316 -24.477  0.00  0.00     0.029 A 
BRANCH  12  17
ATOM     17  O   UNL d   1      32.779  18.684 -22.390  0.00  0.00    -0.328 OA
ATOM     18  C   UNL d   1      33.126  18.952 -21.686  0.00  0.00     0.181 C 
ENDBRANCH  12  17
BRANCH  15  19
ATOM     19  O   UNL d   1      33.074  20.530 -25.097  0.00  0.00    -0.328 OA
ATOM     20  C   UNL d   1      33.201  21.343 -25.035  0.00  0.00     0.181 C 
ENDBRANCH  15  19
ENDBRANCH   8  11
BRANCH   5  21
ATOM     21  C   UNL d   1      32.978  16.034 -23.668  0.00  0.00     0.316 C 
ATOM     22  O   UNL d   1      33.227  15.826 -22.910  0.00  0.00    -0.262 OA
ATOM     23  N   UNL d   1      33.227  15.591 -24.326  0.00  0.00    -0.101 N 
ENDBRANCH   5  21
BRANCH   3  24
ATOM     24  C   UNL d   1      29.767  17.408 -24.365  0.00  0.00     0.070 A 
ATOM     25  C   UNL d   1      29.801  17.973 -24.947  0.00  0.00     0.020 A 
ATOM     26  C   UNL d   1      29.131  18.441 -25.097  0.00  0.00     0.031 A 
ATOM     27  C   UNL d   1      28.442  18.322 -24.649  0.00  0.00     0.140 A 
ATOM     28  C   UNL d   1      28.414  17.751 -24.063  0.00  0.00     0.031 A 
ATOM     29  F   UNL d   1      27.778  18.791 -24.803  0.00  0.00    -0.204 F 
ATOM     30  C   UNL d   1      29.082  17.291 -23.920  0.00  0.00     0.020 A 
ENDBRANCH   3  24
TORSDOF 5
ENDMDL
