MODEL 1
REMARK VINA RESULT:      61.8      0.000      0.000
REMARK  6 active torsions:
REMARK  status: ('A' for Active; 'I' for Inactive)
REMARK    1  A    between atoms: C_9  and  N_1 
REMARK    2  A    between atoms: C_3  and  C_2 
REMARK    3  A    between atoms: C_12  and  C_9 
REMARK    4  A    between atoms: C_15  and  C_9 
REMARK    5  A    between atoms: C_20  and  C_15 
REMARK    6  A    between atoms: C_17  and  C_20 
ROOT
ATOM      1  N   UNL d   1     -56.607 -99.692 -44.668  0.00  0.00    -0.254 N 
ATOM      2  C   UNL d   1     -57.769 -99.259 -44.958  0.00  0.00     0.093 A 
ATOM      3  C   UNL d   1     -56.797 -99.256 -44.072  0.00  0.00     0.153 A 
ATOM      4  C   UNL d   1     -57.179 -99.720 -45.235  0.00  0.00     0.272 A 
ATOM      5  S   UNL d   1     -57.533 -98.974 -44.242  0.00  0.00    -0.053 SA
ATOM      6  S   UNL d   1     -56.315 -99.128 -43.408  0.00  0.00    -0.052 SA
ATOM      7  O   UNL d   1     -57.176-100.121 -45.940  0.00  0.00    -0.266 OA
ENDROOT
BRANCH   2   8
ATOM      8  C   UNL d   1     -58.484 -99.108 -45.341  0.00  0.00     0.070 A 
ATOM      9  C   UNL d   1     -59.137 -99.012 -44.868  0.00  0.00     0.280 A 
ATOM     10  N   UNL d   1     -59.806 -98.864 -45.347  0.00  0.00    -0.208 NA
ATOM     11  O   UNL d   1     -59.144 -99.054 -44.042  0.00  0.00    -0.265 OA
ATOM     12  C   UNL d   1     -59.550 -98.871 -46.128  0.00  0.00     0.085 A 
ATOM     13  C   UNL d   1     -58.736 -99.020 -46.138  0.00  0.00     0.023 A 
ATOM     14  C   UNL d   1     -59.956 -98.759 -46.852  0.00  0.00     0.019 A 
ATOM     15  C   UNL d   1     -58.341 -99.057 -46.823  0.00  0.00     0.002 A 
ATOM     16  C   UNL d   1     -58.715 -98.952 -47.520  0.00  0.00     0.000 A 
ATOM     17  C   UNL d   1     -59.554 -98.796 -47.560  0.00  0.00     0.002 A 
ENDBRANCH   2   8
BRANCH   1  18
ATOM     18  C   UNL d   1     -55.841-100.093 -44.679  0.00  0.00     0.133 C 
BRANCH  18  19
ATOM     19  C   UNL d   1     -55.164 -99.610 -44.599  0.00  0.00     0.228 C 
ATOM     20  O   UNL d   1     -54.841 -99.444 -43.889  0.00  0.00    -0.643 OA
ATOM     21  O   UNL d   1     -54.837 -99.304 -45.314  0.00  0.00    -0.643 OA
ENDBRANCH  18  19
BRANCH  18  22
ATOM     22  C   UNL d   1     -55.790-100.890 -44.763  0.00  0.00     0.030 C 
BRANCH  22  23
ATOM     23  C   UNL d   1     -55.039-101.224 -44.695  0.00  0.00     0.072 C 
BRANCH  23  24
ATOM     24  C   UNL d   1     -54.884-101.618 -43.950  0.00  0.00     0.211 C 
ATOM     25  O   UNL d   1     -54.797-102.430 -43.912  0.00  0.00    -0.644 OA
ATOM     26  O   UNL d   1     -54.828-101.143 -43.296  0.00  0.00    -0.644 OA
ENDBRANCH  23  24
ENDBRANCH  22  23
ENDBRANCH  18  22
ENDBRANCH   1  18
TORSDOF 6
ENDMDL
