MODEL 1
REMARK VINA RESULT:      -8.6      0.000      0.000
REMARK  7 active torsions:
REMARK  status: ('A' for Active; 'I' for Inactive)
REMARK    1  A    between atoms: C_2  and  S_1 
REMARK    2  A    between atoms: N_3  and  S_1 
REMARK    3  A    between atoms: C_15  and  N_3 
REMARK    4  A    between atoms: C_6  and  C_16 
REMARK       I    between atoms: N_7  and  C_6 
REMARK    5  A    between atoms: C_8  and  N_7 
REMARK    6  A    between atoms: C_17  and  C_15 
REMARK    7  A    between atoms: C_16  and  C_17 
ROOT
ATOM      1  N   UNL d   1      52.018  33.848  52.976  0.00  0.00    -0.228 N 
ATOM      2  C   UNL d   1      52.403  34.434  52.533  0.00  0.00     0.111 C 
ENDROOT
BRANCH   1   3
ATOM      3  S   UNL d   1      52.439  33.186  53.236  0.00  0.00     0.271 S 
ATOM      4  O   UNL d   1      52.193  32.434  53.011  0.00  0.00    -0.200 OA
ATOM      5  O   UNL d   1      52.692  33.940  53.466  0.00  0.00    -0.200 OA
BRANCH   3   6
ATOM      6  C   UNL d   1      53.108  33.286  53.722  0.00  0.00     0.104 A 
ATOM      7  C   UNL d   1      53.844  33.037  53.441  0.00  0.00     0.013 A 
ATOM      8  C   UNL d   1      54.507  33.136  53.924  0.00  0.00     0.001 A 
ATOM      9  C   UNL d   1      54.433  33.478  54.673  0.00  0.00     0.000 A 
ATOM     10  C   UNL d   1      53.692  33.722  54.940  0.00  0.00     0.001 A 
ATOM     11  C   UNL d   1      55.100  33.574  55.149  0.00  0.00     0.000 C 
ATOM     12  C   UNL d   1      53.027  33.624  54.462  0.00  0.00     0.013 A 
ENDBRANCH   3   6
ENDBRANCH   1   3
BRANCH   1  13
ATOM     13  C   UNL d   1      51.217  33.929  53.156  0.00  0.00     0.092 C 
BRANCH  13  14
ATOM     14  C   UNL d   1      50.712  34.301  52.625  0.00  0.00     0.025 C 
BRANCH  14  15
ATOM     15  C   UNL d   1      49.946  34.505  52.857  0.00  0.00     0.064 C 
BRANCH  15  16
ATOM     16  C   UNL d   1      49.395  34.746  52.294  0.00  0.00     0.275 C 
ATOM     17  N   UNL d   1      48.717  35.154  52.528  0.00  0.00    -0.238 NA
ATOM     18  O   UNL d   1      49.515  34.583  51.501  0.00  0.00    -0.266 OA
BRANCH  17  19
ATOM     19  C   UNL d   1      48.160  35.398  51.968  0.00  0.00     0.088 C 
ATOM     20  C   UNL d   1      47.673  36.047  52.122  0.00  0.00     0.025 C 
ATOM     21  C   UNL d   1      48.095  34.989  51.257  0.00  0.00     0.025 C 
ATOM     22  C   UNL d   1      48.385  35.655  52.720  0.00  0.00     0.025 C 
ENDBRANCH  17  19
ENDBRANCH  15  16
ENDBRANCH  14  15
ENDBRANCH  13  14
ENDBRANCH   1  13
TORSDOF 7
ENDMDL
MODEL 2
REMARK VINA RESULT:      -8.4      0.694      1.025
REMARK  7 active torsions:
REMARK  status: ('A' for Active; 'I' for Inactive)
REMARK    1  A    between atoms: C_2  and  S_1 
REMARK    2  A    between atoms: N_3  and  S_1 
REMARK    3  A    between atoms: C_15  and  N_3 
REMARK    4  A    between atoms: C_6  and  C_16 
REMARK       I    between atoms: N_7  and  C_6 
REMARK    5  A    between atoms: C_8  and  N_7 
REMARK    6  A    between atoms: C_17  and  C_15 
REMARK    7  A    between atoms: C_16  and  C_17 
ROOT
ATOM      1  N   UNL d   1      51.578  33.951  53.115  0.00  0.00    -0.228 N 
ATOM      2  C   UNL d   1      51.414  33.148  52.985  0.00  0.00     0.111 C 
ENDROOT
BRANCH   1   3
ATOM      3  S   UNL d   1      52.359  34.221  53.086  0.00  0.00     0.271 S 
ATOM      4  O   UNL d   1      52.584  34.754  52.501  0.00  0.00    -0.200 OA
ATOM      5  O   UNL d   1      52.139  33.685  53.677  0.00  0.00    -0.200 OA
BRANCH   3   6
ATOM      6  C   UNL d   1      52.910  33.951  53.649  0.00  0.00     0.104 A 
ATOM      7  C   UNL d   1      53.036  34.401  54.329  0.00  0.00     0.013 A 
ATOM      8  C   UNL d   1      53.583  34.134  54.887  0.00  0.00     0.001 A 
ATOM      9  C   UNL d   1      53.996  33.428  54.764  0.00  0.00     0.000 A 
ATOM     10  C   UNL d   1      53.860  32.988  54.080  0.00  0.00     0.001 A 
ATOM     11  C   UNL d   1      54.541  33.167  55.326  0.00  0.00     0.000 C 
ATOM     12  C   UNL d   1      53.314  33.252  53.520  0.00  0.00     0.013 A 
ENDBRANCH   3   6
ENDBRANCH   1   3
BRANCH   1  13
ATOM     13  C   UNL d   1      50.962  34.477  53.272  0.00  0.00     0.092 C 
BRANCH  13  14
ATOM     14  C   UNL d   1      50.275  34.454  52.820  0.00  0.00     0.025 C 
BRANCH  14  15
ATOM     15  C   UNL d   1      49.605  34.868  53.065  0.00  0.00     0.064 C 
BRANCH  15  16
ATOM     16  C   UNL d   1      49.031  35.086  52.515  0.00  0.00     0.275 C 
ATOM     17  N   UNL d   1      48.370  35.517  52.757  0.00  0.00    -0.238 NA
ATOM     18  O   UNL d   1      49.111  34.877  51.728  0.00  0.00    -0.266 OA
BRANCH  17  19
ATOM     19  C   UNL d   1      47.790  35.738  52.211  0.00  0.00     0.088 C 
ATOM     20  C   UNL d   1      47.345  36.423  52.331  0.00  0.00     0.025 C 
ATOM     21  C   UNL d   1      47.661  35.270  51.546  0.00  0.00     0.025 C 
ATOM     22  C   UNL d   1      48.075  36.050  52.920  0.00  0.00     0.025 C 
ENDBRANCH  17  19
ENDBRANCH  15  16
ENDBRANCH  14  15
ENDBRANCH  13  14
ENDBRANCH   1  13
TORSDOF 7
ENDMDL
MODEL 3
REMARK VINA RESULT:      -7.9      1.140      5.160
REMARK  7 active torsions:
REMARK  status: ('A' for Active; 'I' for Inactive)
REMARK    1  A    between atoms: C_2  and  S_1 
REMARK    2  A    between atoms: N_3  and  S_1 
REMARK    3  A    between atoms: C_15  and  N_3 
REMARK    4  A    between atoms: C_6  and  C_16 
REMARK       I    between atoms: N_7  and  C_6 
REMARK    5  A    between atoms: C_8  and  N_7 
REMARK    6  A    between atoms: C_17  and  C_15 
REMARK    7  A    between atoms: C_16  and  C_17 
ROOT
ATOM      1  N   UNL d   1      51.129  34.267  52.578  0.00  0.00    -0.228 N 
ATOM      2  C   UNL d   1      51.349  34.231  51.779  0.00  0.00     0.111 C 
ENDROOT
BRANCH   1   3
ATOM      3  S   UNL d   1      50.368  34.038  52.805  0.00  0.00     0.271 S 
ATOM      4  O   UNL d   1      50.268  33.371  53.276  0.00  0.00    -0.200 OA
ATOM      5  O   UNL d   1      50.462  34.711  52.331  0.00  0.00    -0.200 OA
BRANCH   3   6
ATOM      6  C   UNL d   1      49.710  34.484  52.556  0.00  0.00     0.104 A 
ATOM      7  C   UNL d   1      49.384  35.036  53.076  0.00  0.00     0.013 A 
ATOM      8  C   UNL d   1      48.732  35.478  52.829  0.00  0.00     0.001 A 
ATOM      9  C   UNL d   1      48.413  35.368  52.074  0.00  0.00     0.000 A 
ATOM     10  C   UNL d   1      48.749  34.813  51.564  0.00  0.00     0.001 A 
ATOM     11  C   UNL d   1      47.761  35.814  51.834  0.00  0.00     0.000 C 
ATOM     12  C   UNL d   1      49.401  34.370  51.808  0.00  0.00     0.013 A 
ENDBRANCH   3   6
ENDBRANCH   1   3
BRANCH   1  13
ATOM     13  C   UNL d   1      51.670  34.532  53.142  0.00  0.00     0.092 C 
BRANCH  13  14
ATOM     14  C   UNL d   1      52.426  34.210  53.169  0.00  0.00     0.025 C 
BRANCH  14  15
ATOM     15  C   UNL d   1      52.952  34.440  53.762  0.00  0.00     0.064 C 
BRANCH  15  16
ATOM     16  C   UNL d   1      53.539  33.922  54.017  0.00  0.00     0.275 C 
ATOM     17  N   UNL d   1      53.746  33.892  54.816  0.00  0.00    -0.238 NA
ATOM     18  O   UNL d   1      53.921  33.434  53.483  0.00  0.00    -0.266 OA
BRANCH  17  19
ATOM     19  C   UNL d   1      54.334  33.374  55.078  0.00  0.00     0.088 C 
ATOM     20  C   UNL d   1      55.092  33.656  55.247  0.00  0.00     0.025 C 
ATOM     21  C   UNL d   1      54.158  32.575  55.170  0.00  0.00     0.025 C 
ATOM     22  C   UNL d   1      54.295  34.184  54.922  0.00  0.00     0.025 C 
ENDBRANCH  17  19
ENDBRANCH  15  16
ENDBRANCH  14  15
ENDBRANCH  13  14
ENDBRANCH   1  13
TORSDOF 7
ENDMDL
MODEL 4
REMARK VINA RESULT:      -7.8      2.315      2.857
REMARK  7 active torsions:
REMARK  status: ('A' for Active; 'I' for Inactive)
REMARK    1  A    between atoms: C_2  and  S_1 
REMARK    2  A    between atoms: N_3  and  S_1 
REMARK    3  A    between atoms: C_15  and  N_3 
REMARK    4  A    between atoms: C_6  and  C_16 
REMARK       I    between atoms: N_7  and  C_6 
REMARK    5  A    between atoms: C_8  and  N_7 
REMARK    6  A    between atoms: C_17  and  C_15 
REMARK    7  A    between atoms: C_16  and  C_17 
ROOT
ATOM      1  N   UNL d   1      52.988  31.913  53.158  0.00  0.00    -0.228 N 
ATOM      2  C   UNL d   1      53.712  32.285  53.316  0.00  0.00     0.111 C 
ENDROOT
BRANCH   1   3
ATOM      3  S   UNL d   1      52.978  31.151  52.839  0.00  0.00     0.271 S 
ATOM      4  O   UNL d   1      52.842  31.049  52.034  0.00  0.00    -0.200 OA
ATOM      5  O   UNL d   1      53.115  31.246  53.650  0.00  0.00    -0.200 OA
BRANCH   3   6
ATOM      6  C   UNL d   1      53.106  30.493  53.334  0.00  0.00     0.104 A 
ATOM      7  C   UNL d   1      52.471  29.992  53.499  0.00  0.00     0.013 A 
ATOM      8  C   UNL d   1      52.598  29.340  53.990  0.00  0.00     0.001 A 
ATOM      9  C   UNL d   1      53.347  29.195  54.309  0.00  0.00     0.000 A 
ATOM     10  C   UNL d   1      53.972  29.704  54.135  0.00  0.00     0.001 A 
ATOM     11  C   UNL d   1      53.466  28.541  54.798  0.00  0.00     0.000 C 
ATOM     12  C   UNL d   1      53.849  30.357  53.645  0.00  0.00     0.013 A 
ENDBRANCH   3   6
ENDBRANCH   1   3
BRANCH   1  13
ATOM     13  C   UNL d   1      52.280  32.305  53.320  0.00  0.00     0.092 C 
BRANCH  13  14
ATOM     14  C   UNL d   1      52.153  33.063  53.027  0.00  0.00     0.025 C 
BRANCH  14  15
ATOM     15  C   UNL d   1      51.532  33.521  53.320  0.00  0.00     0.064 C 
BRANCH  15  16
ATOM     16  C   UNL d   1      51.100  34.005  52.813  0.00  0.00     0.275 C 
ATOM     17  N   UNL d   1      50.277  34.028  52.864  0.00  0.00    -0.238 NA
ATOM     18  O   UNL d   1      51.483  34.466  52.255  0.00  0.00    -0.266 OA
BRANCH  17  19
ATOM     19  C   UNL d   1      49.838  34.511  52.357  0.00  0.00     0.088 C 
ATOM     20  C   UNL d   1      49.453  35.180  52.651  0.00  0.00     0.025 C 
ATOM     21  C   UNL d   1      49.788  34.320  51.558  0.00  0.00     0.025 C 
ATOM     22  C   UNL d   1      50.014  34.517  53.164  0.00  0.00     0.025 C 
ENDBRANCH  17  19
ENDBRANCH  15  16
ENDBRANCH  14  15
ENDBRANCH  13  14
ENDBRANCH   1  13
TORSDOF 7
ENDMDL
MODEL 5
REMARK VINA RESULT:      -7.8      2.523      5.361
REMARK  7 active torsions:
REMARK  status: ('A' for Active; 'I' for Inactive)
REMARK    1  A    between atoms: C_2  and  S_1 
REMARK    2  A    between atoms: N_3  and  S_1 
REMARK    3  A    between atoms: C_15  and  N_3 
REMARK    4  A    between atoms: C_6  and  C_16 
REMARK       I    between atoms: N_7  and  C_6 
REMARK    5  A    between atoms: C_8  and  N_7 
REMARK    6  A    between atoms: C_17  and  C_15 
REMARK    7  A    between atoms: C_16  and  C_17 
ROOT
ATOM      1  N   UNL d   1      52.909  32.743  53.174  0.00  0.00    -0.228 N 
ATOM      2  C   UNL d   1      53.611  32.988  52.806  0.00  0.00     0.111 C 
ENDROOT
BRANCH   1   3
ATOM      3  S   UNL d   1      52.435  33.295  53.566  0.00  0.00     0.271 S 
ATOM      4  O   UNL d   1      52.617  33.512  54.338  0.00  0.00    -0.200 OA
ATOM      5  O   UNL d   1      52.247  33.082  52.788  0.00  0.00    -0.200 OA
BRANCH   3   6
ATOM      6  C   UNL d   1      51.779  33.628  53.175  0.00  0.00     0.104 A 
ATOM      7  C   UNL d   1      51.021  33.440  53.442  0.00  0.00     0.013 A 
ATOM      8  C   UNL d   1      50.370  33.770  53.055  0.00  0.00     0.001 A 
ATOM      9  C   UNL d   1      50.479  34.279  52.413  0.00  0.00     0.000 A 
ATOM     10  C   UNL d   1      51.243  34.458  52.157  0.00  0.00     0.001 A 
ATOM     11  C   UNL d   1      49.824  34.605  52.031  0.00  0.00     0.000 C 
ATOM     12  C   UNL d   1      51.895  34.131  52.541  0.00  0.00     0.013 A 
ENDBRANCH   3   6
ENDBRANCH   1   3
BRANCH   1  13
ATOM     13  C   UNL d   1      52.686  31.949  53.148  0.00  0.00     0.092 C 
BRANCH  13  14
ATOM     14  C   UNL d   1      53.240  31.361  53.303  0.00  0.00     0.025 C 
BRANCH  14  15
ATOM     15  C   UNL d   1      53.020  30.566  53.268  0.00  0.00     0.064 C 
BRANCH  15  16
ATOM     16  C   UNL d   1      53.389  30.014  53.755  0.00  0.00     0.275 C 
ATOM     17  N   UNL d   1      52.936  29.503  54.218  0.00  0.00    -0.238 NA
ATOM     18  O   UNL d   1      54.206  29.967  53.783  0.00  0.00    -0.266 OA
BRANCH  17  19
ATOM     19  C   UNL d   1      53.300  28.946  54.708  0.00  0.00     0.088 C 
ATOM     20  C   UNL d   1      53.598  28.244  54.391  0.00  0.00     0.025 C 
ATOM     21  C   UNL d   1      53.363  29.097  55.515  0.00  0.00     0.025 C 
ATOM     22  C   UNL d   1      53.136  28.995  53.900  0.00  0.00     0.025 C 
ENDBRANCH  17  19
ENDBRANCH  15  16
ENDBRANCH  14  15
ENDBRANCH  13  14
ENDBRANCH   1  13
TORSDOF 7
ENDMDL
