MODEL 1
REMARK VINA RESULT:      -7.8      0.000      0.000
REMARK  8 active torsions:
REMARK  status: ('A' for Active; 'I' for Inactive)
REMARK    1  A    between atoms: C_2  and  S_1 
REMARK    2  A    between atoms: N_6  and  S_1 
REMARK    3  A    between atoms: C_3  and  C_14 
REMARK       I    between atoms: N_7  and  C_3 
REMARK    4  A    between atoms: C_17  and  N_6 
REMARK    5  A    between atoms: C_14  and  C_19 
REMARK    6  A    between atoms: C_20  and  C_17 
REMARK    7  A    between atoms: C_19  and  C_21 
REMARK    8  A    between atoms: C_21  and  C_20 
ROOT
ATOM      1  N   UNL d   1      51.619  33.664  52.698  0.00  0.00    -0.157 NA
ENDROOT
BRANCH   1   2
ATOM      2  S   UNL d   1      52.257  33.609  53.222  0.00  0.00     0.285 S 
ATOM      3  O   UNL d   1      51.595  33.117  53.312  0.00  0.00    -0.198 OA
ATOM      4  O   UNL d   1      52.275  34.158  52.603  0.00  0.00    -0.198 OA
BRANCH   2   5
ATOM      5  C   UNL d   1      52.897  33.555  53.746  0.00  0.00     0.105 A 
ATOM      6  C   UNL d   1      53.024  34.147  54.310  0.00  0.00     0.013 A 
ATOM      7  C   UNL d   1      53.654  34.093  54.826  0.00  0.00     0.001 A 
ATOM      8  C   UNL d   1      54.158  33.454  54.785  0.00  0.00     0.000 A 
ATOM      9  C   UNL d   1      54.039  32.860  54.228  0.00  0.00     0.001 A 
ATOM     10  C   UNL d   1      54.797  33.403  55.312  0.00  0.00     0.000 C 
ATOM     11  C   UNL d   1      53.409  32.914  53.711  0.00  0.00     0.013 A 
ENDBRANCH   2   5
ENDBRANCH   1   2
BRANCH   1  12
ATOM     12  C   UNL d   1      50.958  34.121  52.896  0.00  0.00     0.112 C 
BRANCH  12  13
ATOM     13  C   UNL d   1      50.329  34.189  52.362  0.00  0.00     0.021 C 
BRANCH  13  14
ATOM     14  C   UNL d   1      49.691  34.692  52.533  0.00  0.00     0.002 C 
BRANCH  14  15
ATOM     15  C   UNL d   1      49.061  34.761  52.009  0.00  0.00     0.005 C 
BRANCH  15  16
ATOM     16  C   UNL d   1      48.466  35.316  52.133  0.00  0.00     0.061 C 
BRANCH  16  17
ATOM     17  C   UNL d   1      47.788  35.314  51.660  0.00  0.00     0.265 C 
ATOM     18  N   UNL d   1      47.160  35.822  51.836  0.00  0.00    -0.269 N 
ATOM     19  C   UNL d   1      46.481  35.815  51.357  0.00  0.00     0.102 C 
ATOM     20  C   UNL d   1      47.212  36.331  52.487  0.00  0.00     0.102 C 
ATOM     21  O   UNL d   1      47.739  34.803  51.011  0.00  0.00    -0.267 OA
ENDBRANCH  16  17
ENDBRANCH  15  16
ENDBRANCH  14  15
ENDBRANCH  13  14
ENDBRANCH  12  13
ENDBRANCH   1  12
TORSDOF 8
ENDMDL
MODEL 2
REMARK VINA RESULT:      -7.6      1.430      1.944
REMARK  8 active torsions:
REMARK  status: ('A' for Active; 'I' for Inactive)
REMARK    1  A    between atoms: C_2  and  S_1 
REMARK    2  A    between atoms: N_6  and  S_1 
REMARK    3  A    between atoms: C_3  and  C_14 
REMARK       I    between atoms: N_7  and  C_3 
REMARK    4  A    between atoms: C_17  and  N_6 
REMARK    5  A    between atoms: C_14  and  C_19 
REMARK    6  A    between atoms: C_20  and  C_17 
REMARK    7  A    between atoms: C_19  and  C_21 
REMARK    8  A    between atoms: C_21  and  C_20 
ROOT
ATOM      1  N   UNL d   1      51.965  33.619  52.936  0.00  0.00    -0.157 NA
ENDROOT
BRANCH   1   2
ATOM      2  S   UNL d   1      52.335  32.890  53.065  0.00  0.00     0.285 S 
ATOM      3  O   UNL d   1      52.252  33.191  52.296  0.00  0.00    -0.198 OA
ATOM      4  O   UNL d   1      52.045  33.325  53.705  0.00  0.00    -0.198 OA
BRANCH   2   5
ATOM      5  C   UNL d   1      52.707  32.160  53.194  0.00  0.00     0.105 A 
ATOM      6  C   UNL d   1      52.364  31.464  52.908  0.00  0.00     0.013 A 
ATOM      7  C   UNL d   1      52.729  30.745  53.035  0.00  0.00     0.001 A 
ATOM      8  C   UNL d   1      53.434  30.715  53.444  0.00  0.00     0.000 A 
ATOM      9  C   UNL d   1      53.781  31.403  53.732  0.00  0.00     0.001 A 
ATOM     10  C   UNL d   1      53.802  29.983  53.571  0.00  0.00     0.000 C 
ATOM     11  C   UNL d   1      53.416  32.122  53.605  0.00  0.00     0.013 A 
ENDBRANCH   2   5
ENDBRANCH   1   2
BRANCH   1  12
ATOM     12  C   UNL d   1      51.140  33.676  52.964  0.00  0.00     0.112 C 
BRANCH  12  13
ATOM     13  C   UNL d   1      50.775  34.415  52.888  0.00  0.00     0.021 C 
BRANCH  13  14
ATOM     14  C   UNL d   1      49.969  34.462  52.692  0.00  0.00     0.002 C 
BRANCH  14  15
ATOM     15  C   UNL d   1      49.504  35.077  52.980  0.00  0.00     0.005 C 
BRANCH  15  16
ATOM     16  C   UNL d   1      48.791  35.272  52.619  0.00  0.00     0.061 C 
BRANCH  16  17
ATOM     17  C   UNL d   1      48.313  35.869  52.934  0.00  0.00     0.265 C 
ATOM     18  N   UNL d   1      47.626  36.100  52.539  0.00  0.00    -0.269 N 
ATOM     19  C   UNL d   1      47.149  36.700  52.861  0.00  0.00     0.102 C 
ATOM     20  C   UNL d   1      47.417  35.733  51.827  0.00  0.00     0.102 C 
ATOM     21  O   UNL d   1      48.525  36.233  53.647  0.00  0.00    -0.267 OA
ENDBRANCH  16  17
ENDBRANCH  15  16
ENDBRANCH  14  15
ENDBRANCH  13  14
ENDBRANCH  12  13
ENDBRANCH   1  12
TORSDOF 8
ENDMDL
MODEL 3
REMARK VINA RESULT:      -5.9      1.464      5.973
REMARK  8 active torsions:
REMARK  status: ('A' for Active; 'I' for Inactive)
REMARK    1  A    between atoms: C_2  and  S_1 
REMARK    2  A    between atoms: N_6  and  S_1 
REMARK    3  A    between atoms: C_3  and  C_14 
REMARK       I    between atoms: N_7  and  C_3 
REMARK    4  A    between atoms: C_17  and  N_6 
REMARK    5  A    between atoms: C_14  and  C_19 
REMARK    6  A    between atoms: C_20  and  C_17 
REMARK    7  A    between atoms: C_19  and  C_21 
REMARK    8  A    between atoms: C_21  and  C_20 
ROOT
ATOM      1  N   UNL d   1      49.305  34.836  51.903  0.00  0.00    -0.157 NA
ENDROOT
BRANCH   1   2
ATOM      2  S   UNL d   1      48.584  35.213  52.054  0.00  0.00     0.285 S 
ATOM      3  O   UNL d   1      49.199  35.241  52.611  0.00  0.00    -0.198 OA
ATOM      4  O   UNL d   1      48.696  34.804  51.344  0.00  0.00    -0.198 OA
BRANCH   2   5
ATOM      5  C   UNL d   1      47.861  35.591  52.206  0.00  0.00     0.105 A 
ATOM      6  C   UNL d   1      47.259  35.577  51.639  0.00  0.00     0.013 A 
ATOM      7  C   UNL d   1      46.548  35.948  51.788  0.00  0.00     0.001 A 
ATOM      8  C   UNL d   1      46.432  36.333  52.498  0.00  0.00     0.000 A 
ATOM      9  C   UNL d   1      47.026  36.351  53.067  0.00  0.00     0.001 A 
ATOM     10  C   UNL d   1      45.708  36.709  52.646  0.00  0.00     0.000 C 
ATOM     11  C   UNL d   1      47.737  35.980  52.918  0.00  0.00     0.013 A 
ENDBRANCH   2   5
ENDBRANCH   1   2
BRANCH   1  12
ATOM     12  C   UNL d   1      49.741  34.510  52.526  0.00  0.00     0.112 C 
BRANCH  12  13
ATOM     13  C   UNL d   1      50.471  34.150  52.373  0.00  0.00     0.021 C 
BRANCH  13  14
ATOM     14  C   UNL d   1      50.951  33.901  53.004  0.00  0.00     0.002 C 
BRANCH  14  15
ATOM     15  C   UNL d   1      51.616  33.437  52.865  0.00  0.00     0.005 C 
BRANCH  15  16
ATOM     16  C   UNL d   1      52.222  33.389  53.419  0.00  0.00     0.061 C 
BRANCH  16  17
ATOM     17  C   UNL d   1      52.826  32.832  53.331  0.00  0.00     0.265 C 
ATOM     18  N   UNL d   1      53.459  32.821  53.861  0.00  0.00    -0.269 N 
ATOM     19  C   UNL d   1      54.064  32.258  53.767  0.00  0.00     0.102 C 
ATOM     20  C   UNL d   1      53.487  33.369  54.481  0.00  0.00     0.102 C 
ATOM     21  O   UNL d   1      52.795  32.285  52.710  0.00  0.00    -0.267 OA
ENDBRANCH  16  17
ENDBRANCH  15  16
ENDBRANCH  14  15
ENDBRANCH  13  14
ENDBRANCH  12  13
ENDBRANCH   1  12
TORSDOF 8
ENDMDL
