MODEL 1
REMARK VINA RESULT:      97.5      0.000      0.000
REMARK  5 active torsions:
REMARK  status: ('A' for Active; 'I' for Inactive)
REMARK    1  A    between atoms: N_2  and  S_1 
REMARK    2  A    between atoms: C_10  and  S_1 
REMARK    3  A    between atoms: C_4  and  N_12 
REMARK    4  A    between atoms: C_8  and  C_17 
REMARK       I    between atoms: N_11  and  C_8 
REMARK    5  A    between atoms: N_12  and  N_11 
ROOT
ATOM      1  C   UNL d   1     -49.388  27.273  34.632  0.00  0.00     0.104 A 
ATOM      2  C   UNL d   1     -48.120  28.189  35.143  0.00  0.00     0.059 A 
ATOM      3  C   UNL d   1     -49.435  27.673  35.353  0.00  0.00     0.013 A 
ATOM      4  C   UNL d   1     -48.707  27.332  34.170  0.00  0.00     0.013 A 
ATOM      5  C   UNL d   1     -48.801  28.125  35.598  0.00  0.00     0.006 A 
ATOM      6  C   UNL d   1     -48.074  27.792  34.429  0.00  0.00     0.006 A 
ENDROOT
BRANCH   2   7
ATOM      7  C   UNL d   1     -47.486  28.645  35.396  0.00  0.00     0.297 C 
ATOM      8  N   UNL d   1     -47.525  29.430  35.164  0.00  0.00    -0.104 NA
ATOM      9  O   UNL d   1     -46.932  28.208  35.838  0.00  0.00    -0.264 OA
BRANCH   8  10
ATOM     10  N   UNL d   1     -48.163  29.689  34.719  0.00  0.00    -0.118 NA
BRANCH  10  11
ATOM     11  C   UNL d   1     -48.194  30.475  34.450  0.00  0.00     0.215 A 
ATOM     12  N   UNL d   1     -47.550  30.955  34.282  0.00  0.00    -0.219 NA
ATOM     13  C   UNL d   1     -47.821  31.687  34.032  0.00  0.00     0.090 A 
ATOM     14  C   UNL d   1     -47.438  32.372  33.795  0.00  0.00     0.018 A 
ATOM     15  C   UNL d   1     -48.652  31.659  34.047  0.00  0.00     0.050 A 
ATOM     16  C   UNL d   1     -47.878  33.034  33.571  0.00  0.00     0.002 A 
ATOM     17  C   UNL d   1     -46.609  32.398  33.781  0.00  0.00     0.002 C 
ATOM     18  C   UNL d   1     -48.699  33.004  33.586  0.00  0.00     0.001 A 
ATOM     19  C   UNL d   1     -49.100  32.315  33.825  0.00  0.00     0.008 A 
ATOM     20  S   UNL d   1     -48.876  30.911  34.305  0.00  0.00    -0.045 SA
ENDBRANCH  10  11
ENDBRANCH   8  10
ENDBRANCH   2   7
BRANCH   1  21
ATOM     21  S   UNL d   1     -50.018  26.814  34.372  0.00  0.00     0.271 S 
ATOM     22  O   UNL d   1     -49.511  26.384  33.886  0.00  0.00    -0.200 OA
ATOM     23  O   UNL d   1     -50.528  27.243  34.857  0.00  0.00    -0.200 OA
BRANCH  21  24
ATOM     24  N   UNL d   1     -50.652  26.355  34.112  0.00  0.00    -0.229 N 
ATOM     25  C   UNL d   1     -50.582  25.533  34.087  0.00  0.00     0.092 A 
ATOM     26  C   UNL d   1     -51.216  25.074  33.827  0.00  0.00     0.018 A 
ATOM     27  C   UNL d   1     -51.146  24.253  33.802  0.00  0.00     0.002 A 
ATOM     28  C   UNL d   1     -51.925  25.430  33.591  0.00  0.00     0.003 A 
ATOM     29  C   UNL d   1     -51.780  23.794  33.542  0.00  0.00     0.000 A 
ATOM     30  C   UNL d   1     -52.485  24.157  33.307  0.00  0.00     0.000 A 
ATOM     31  C   UNL d   1     -52.552  24.976  33.334  0.00  0.00     0.000 A 
ATOM     32  C   UNL d   1     -51.992  26.258  33.617  0.00  0.00     0.020 A 
ATOM     33  C   UNL d   1     -51.358  26.717  33.877  0.00  0.00     0.092 A 
ENDBRANCH  21  24
ENDBRANCH   1  21
TORSDOF 5
ENDMDL
