MODEL 1
REMARK VINA RESULT:      25.6      0.000      0.000
REMARK  3 active torsions:
REMARK  status: ('A' for Active; 'I' for Inactive)
REMARK    1  A    between atoms: N_3  and  C_2 
REMARK       I    between atoms: C_4  and  N_3 
REMARK    2  A    between atoms: C_10  and  N_3 
REMARK    3  A    between atoms: C_12  and  C_4 
ROOT
ATOM      1  N   UNL d   1     -58.093 -98.784 -44.881  0.00  0.00    -0.274 N 
ATOM      2  C   UNL d   1     -58.609 -98.768 -46.023  0.00  0.00     0.265 C 
ATOM      3  O   UNL d   1     -58.057 -98.761 -46.604  0.00  0.00    -0.267 OA
ENDROOT
BRANCH   1   4
ATOM      4  C   UNL d   1     -58.598 -98.792 -44.277  0.00  0.00     0.079 A 
ATOM      5  C   UNL d   1     -58.406 -98.774 -43.514  0.00  0.00     0.116 A 
ATOM      6  S   UNL d   1     -59.071 -98.790 -43.098  0.00  0.00     0.213 S 
ATOM      7  C   UNL d   1     -59.670 -98.817 -43.607  0.00  0.00     0.100 A 
ATOM      8  O   UNL d   1     -59.737 -98.805 -42.682  0.00  0.00    -0.217 OA
ATOM      9  O   UNL d   1     -58.501 -98.763 -42.566  0.00  0.00    -0.217 OA
ATOM     10  C   UNL d   1     -59.378 -98.818 -44.330  0.00  0.00     0.030 A 
ENDBRANCH   1   4
BRANCH   1  11
ATOM     11  C   UNL d   1     -57.273 -98.786 -44.773  0.00  0.00     0.067 A 
ATOM     12  C   UNL d   1     -56.783 -98.755 -45.429  0.00  0.00     0.020 A 
ATOM     13  C   UNL d   1     -55.945 -98.757 -45.323  0.00  0.00     0.031 A 
ATOM     14  C   UNL d   1     -55.628 -98.791 -44.559  0.00  0.00     0.140 A 
ATOM     15  C   UNL d   1     -56.127 -98.823 -43.903  0.00  0.00     0.031 A 
ATOM     16  F   UNL d   1     -54.813 -98.794 -44.451  0.00  0.00    -0.204 F 
ATOM     17  C   UNL d   1     -56.946 -98.821 -43.990  0.00  0.00     0.020 A 
ENDBRANCH   1  11
BRANCH   2  18
ATOM     18  C   UNL d   1     -59.427 -98.765 -46.157  0.00  0.00     0.057 C 
ATOM     19  C   UNL d   1     -59.731 -98.757 -46.938  0.00  0.00     0.005 C 
ATOM     20  C   UNL d   1     -59.958 -98.770 -45.501  0.00  0.00     0.005 C 
ENDBRANCH   2  18
TORSDOF 3
ENDMDL
