MODEL 1
REMARK VINA RESULT:      -0.5      0.000      0.000
REMARK  1 active torsions:
REMARK  status: ('A' for Active; 'I' for Inactive)
REMARK    1  A    between atoms: C_11  and  C_2 
ROOT
ATOM      1  C   UNL d   1      59.522  -1.873  29.527  0.00  0.00     0.026 A 
ATOM      2  C   UNL d   1      59.374  -1.131  29.820  0.00  0.00     0.007 A 
ATOM      3  C   UNL d   1      58.971  -2.469  29.614  0.00  0.00     0.103 A 
ATOM      4  C   UNL d   1      58.670  -0.970  30.206  0.00  0.00     0.026 A 
ATOM      5  C   UNL d   1      60.235  -2.029  29.138  0.00  0.00     0.047 A 
ATOM      6  C   UNL d   1      58.116  -1.568  30.294  0.00  0.00     0.103 A 
ATOM      7  O   UNL d   1      58.266  -2.328  29.995  0.00  0.00    -0.307 OA
ATOM      8  C   UNL d   1      59.118  -3.220  29.319  0.00  0.00     0.070 A 
ATOM      9  C   UNL d   1      60.399  -2.772  28.837  0.00  0.00     0.234 A 
ATOM     10  C   UNL d   1      59.842  -3.377  28.924  0.00  0.00     0.236 A 
ATOM     11  C   UNL d   1      58.504  -0.225  30.509  0.00  0.00     0.047 A 
ATOM     12  C   UNL d   1      57.392  -1.421  30.686  0.00  0.00     0.070 A 
ATOM     13  C   UNL d   1      57.784  -0.062  30.904  0.00  0.00     0.234 A 
ATOM     14  C   UNL d   1      57.232  -0.672  30.987  0.00  0.00     0.236 A 
ATOM     15  O   UNL d   1      60.014  -4.118  28.620  0.00  0.00    -0.283 OA
ATOM     16  O   UNL d   1      61.111  -2.906  28.455  0.00  0.00    -0.283 OA
ATOM     17  O   UNL d   1      57.625   0.682  31.202  0.00  0.00    -0.283 OA
ATOM     18  O   UNL d   1      56.516  -0.534  31.372  0.00  0.00    -0.283 OA
ENDROOT
BRANCH   2  19
ATOM     19  C   UNL d   1      59.928  -0.533  29.732  0.00  0.00     0.039 A 
ATOM     20  C   UNL d   1      59.905  -0.044  29.055  0.00  0.00     0.196 A 
ATOM     21  O   UNL d   1      59.343  -0.150  28.481  0.00  0.00    -0.287 OA
ATOM     22  C   UNL d   1      60.464   0.559  28.967  0.00  0.00     0.042 A 
ATOM     23  C   UNL d   1      61.051   0.679  29.554  0.00  0.00     0.003 A 
ATOM     24  C   UNL d   1      61.063   0.188  30.219  0.00  0.00     0.000 A 
ATOM     25  C   UNL d   1      60.499  -0.412  30.298  0.00  0.00     0.003 A 
ENDBRANCH   2  19
TORSDOF 1
ENDMDL
