MODEL 1
REMARK VINA RESULT:      46.0      0.000      0.000
REMARK  4 active torsions:
REMARK  status: ('A' for Active; 'I' for Inactive)
REMARK    1  A    between atoms: C_11  and  C_3 
REMARK    2  A    between atoms: C_10  and  N_5 
REMARK    3  A    between atoms: O_17  and  C_11 
REMARK    4  A    between atoms: C_22  and  O_17 
ROOT
ATOM      1  C   UNL d   1      60.386  49.607  50.292  0.00  0.00     0.086 A 
ATOM      2  C   UNL d   1      60.493  49.600  51.110  0.00  0.00     0.038 A 
ATOM      3  C   UNL d   1      59.847  49.602  51.626  0.00  0.00     0.165 A 
ATOM      4  C   UNL d   1      59.617  49.616  49.992  0.00  0.00     0.282 A 
ATOM      5  N   UNL d   1      58.976  49.618  50.490  0.00  0.00    -0.194 N 
ATOM      6  N   UNL d   1      59.091  49.611  51.307  0.00  0.00    -0.157 NA
ATOM      7  C   UNL d   1      61.131  49.602  49.934  0.00  0.00     0.137 A 
ATOM      8  C   UNL d   1      61.310  49.591  51.259  0.00  0.00     0.039 A 
ATOM      9  S   UNL d   1      61.699  49.593  50.532  0.00  0.00    -0.066 SA
ATOM     10  O   UNL d   1      59.502  49.623  49.175  0.00  0.00    -0.265 OA
ATOM     11  N   UNL d   1      61.274  49.607  49.127  0.00  0.00    -0.141 N 
ENDROOT
BRANCH   5  12
ATOM     12  C   UNL d   1      58.204  49.628  50.182  0.00  0.00     0.087 A 
ATOM     13  C   UNL d   1      57.565  49.596  50.688  0.00  0.00     0.031 A 
ATOM     14  C   UNL d   1      56.800  49.604  50.401  0.00  0.00     0.059 A 
ATOM     15 CL   UNL d   1      56.154  49.572  50.913  0.00  0.00    -0.082 Cl
ATOM     16  C   UNL d   1      56.674  49.646  49.577  0.00  0.00     0.011 A 
ATOM     17  C   UNL d   1      57.319  49.679  49.066  0.00  0.00     0.002 A 
ATOM     18  C   UNL d   1      58.085  49.670  49.368  0.00  0.00     0.019 A 
ENDBRANCH   5  12
BRANCH   3  19
ATOM     19  C   UNL d   1      59.962  49.595  52.443  0.00  0.00     0.320 C 
ATOM     20  O   UNL d   1      60.720  49.682  52.753  0.00  0.00    -0.257 OA
BRANCH  19  21
ATOM     21  O   UNL d   1      59.312  49.500  52.950  0.00  0.00    -0.270 OA
BRANCH  21  22
ATOM     22  C   UNL d   1      59.386  49.663  53.753  0.00  0.00     0.126 C 
ATOM     23  C   UNL d   1      58.725  49.621  54.248  0.00  0.00     0.029 C 
ENDBRANCH  21  22
ENDBRANCH  19  21
ENDBRANCH   3  19
TORSDOF 4
ENDMDL
