MODEL 1
REMARK VINA RESULT:      33.3      0.000      0.000
REMARK  6 active torsions:
REMARK  status: ('A' for Active; 'I' for Inactive)
REMARK    1  A    between atoms: C_2  and  S_1 
REMARK    2  A    between atoms: N_4  and  S_1 
REMARK    3  A    between atoms: C_12  and  N_4 
REMARK    4  A    between atoms: O_14  and  C_6 
REMARK    5  A    between atoms: C_13  and  C_12 
REMARK    6  A    between atoms: C_18  and  O_14 
ROOT
ATOM      1  C   UNL d   1      14.132  13.108  -2.051  0.00  0.00     0.107 A 
ATOM      2  C   UNL d   1      14.155  13.767  -1.551  0.00  0.00     0.038 A 
ATOM      3  C   UNL d   1      14.583  12.442  -1.874  0.00  0.00     0.012 A 
ATOM      4  C   UNL d   1      14.635  13.755  -0.870  0.00  0.00     0.101 A 
ATOM      5  C   UNL d   1      15.062  12.431  -1.193  0.00  0.00     0.003 A 
ATOM      6  C   UNL d   1      15.087  13.085  -0.695  0.00  0.00     0.023 A 
ATOM      7  C   UNL d   1      14.560  11.779  -2.375  0.00  0.00     0.001 C 
ATOM      8  C   UNL d   1      15.562  13.074  -0.020  0.00  0.00     0.002 C 
ENDROOT
BRANCH   1   9
ATOM      9  S   UNL d   1      13.657  13.119  -2.725  0.00  0.00     0.285 S 
ATOM     10  O   UNL d   1      13.982  13.844  -2.942  0.00  0.00    -0.198 OA
ATOM     11  O   UNL d   1      13.329  12.388  -2.507  0.00  0.00    -0.198 OA
BRANCH   9  12
ATOM     12  N   UNL d   1      13.182  13.130  -3.400  0.00  0.00    -0.155 NA
BRANCH  12  13
ATOM     13  C   UNL d   1      13.502  13.364  -4.125  0.00  0.00     0.131 C 
BRANCH  13  14
ATOM     14  C   UNL d   1      13.399  12.890  -4.793  0.00  0.00     0.101 A 
ATOM     15  N   UNL d   1      12.873  12.256  -4.772  0.00  0.00    -0.242 NA
ATOM     16  C   UNL d   1      12.770  11.782  -5.439  0.00  0.00     0.099 A 
ATOM     17  C   UNL d   1      13.194  11.942  -6.127  0.00  0.00     0.021 A 
ATOM     18  C   UNL d   1      13.722  12.577  -6.151  0.00  0.00     0.003 A 
ATOM     19  C   UNL d   1      13.825  13.051  -5.483  0.00  0.00     0.021 A 
ENDBRANCH  13  14
ENDBRANCH  12  13
ENDBRANCH   9  12
ENDBRANCH   1   9
BRANCH   4  20
ATOM     20  O   UNL d   1      14.659  14.411  -0.372  0.00  0.00    -0.305 OA
BRANCH  20  21
ATOM     21  C   UNL d   1      15.049  15.095  -0.613  0.00  0.00     0.123 C 
ATOM     22  C   UNL d   1      15.725  15.344  -0.214  0.00  0.00     0.029 C 
ENDBRANCH  20  21
ENDBRANCH   4  20
TORSDOF 6
ENDMDL
MODEL 2
REMARK VINA RESULT:      35.2      1.524      1.977
REMARK  6 active torsions:
REMARK  status: ('A' for Active; 'I' for Inactive)
REMARK    1  A    between atoms: C_2  and  S_1 
REMARK    2  A    between atoms: N_4  and  S_1 
REMARK    3  A    between atoms: C_12  and  N_4 
REMARK    4  A    between atoms: O_14  and  C_6 
REMARK    5  A    between atoms: C_13  and  C_12 
REMARK    6  A    between atoms: C_18  and  O_14 
ROOT
ATOM      1  C   UNL d   1      13.915  12.939  -2.541  0.00  0.00     0.107 A 
ATOM      2  C   UNL d   1      14.406  13.327  -2.000  0.00  0.00     0.038 A 
ATOM      3  C   UNL d   1      13.663  12.171  -2.389  0.00  0.00     0.012 A 
ATOM      4  C   UNL d   1      14.644  12.939  -1.302  0.00  0.00     0.101 A 
ATOM      5  C   UNL d   1      13.901  11.782  -1.692  0.00  0.00     0.003 A 
ATOM      6  C   UNL d   1      14.390  12.166  -1.152  0.00  0.00     0.023 A 
ATOM      7  C   UNL d   1      13.170  11.779  -2.931  0.00  0.00     0.001 C 
ATOM      8  C   UNL d   1      14.626  11.782  -0.461  0.00  0.00     0.002 C 
ENDROOT
BRANCH   1   9
ATOM      9  S   UNL d   1      13.678  13.324  -3.231  0.00  0.00     0.285 S 
ATOM     10  O   UNL d   1      13.410  13.962  -2.784  0.00  0.00    -0.198 OA
ATOM     11  O   UNL d   1      13.948  12.681  -3.682  0.00  0.00    -0.198 OA
BRANCH   9  12
ATOM     12  N   UNL d   1      13.442  13.708  -3.922  0.00  0.00    -0.155 NA
BRANCH  12  13
ATOM     13  C   UNL d   1      13.320  14.526  -3.917  0.00  0.00     0.131 C 
BRANCH  13  14
ATOM     14  C   UNL d   1      13.593  14.986  -4.545  0.00  0.00     0.101 A 
ATOM     15  N   UNL d   1      14.194  15.537  -4.423  0.00  0.00    -0.242 NA
ATOM     16  C   UNL d   1      14.467  15.997  -5.051  0.00  0.00     0.099 A 
ATOM     17  C   UNL d   1      14.139  15.906  -5.801  0.00  0.00     0.021 A 
ATOM     18  C   UNL d   1      13.536  15.354  -5.927  0.00  0.00     0.003 A 
ATOM     19  C   UNL d   1      13.263  14.894  -5.299  0.00  0.00     0.021 A 
ENDBRANCH  13  14
ENDBRANCH  12  13
ENDBRANCH   9  12
ENDBRANCH   1   9
BRANCH   4  20
ATOM     20  O   UNL d   1      15.133  13.324  -0.762  0.00  0.00    -0.305 OA
BRANCH  20  21
ATOM     21  C   UNL d   1      14.844  13.964  -0.332  0.00  0.00     0.123 C 
ATOM     22  C   UNL d   1      15.369  14.515  -0.016  0.00  0.00     0.029 C 
ENDBRANCH  20  21
ENDBRANCH   4  20
TORSDOF 6
ENDMDL
MODEL 3
REMARK VINA RESULT:      35.5      1.754      4.317
REMARK  6 active torsions:
REMARK  status: ('A' for Active; 'I' for Inactive)
REMARK    1  A    between atoms: C_2  and  S_1 
REMARK    2  A    between atoms: N_4  and  S_1 
REMARK    3  A    between atoms: C_12  and  N_4 
REMARK    4  A    between atoms: O_14  and  C_6 
REMARK    5  A    between atoms: C_13  and  C_12 
REMARK    6  A    between atoms: C_18  and  O_14 
ROOT
ATOM      1  C   UNL d   1      13.654  13.913  -3.606  0.00  0.00     0.107 A 
ATOM      2  C   UNL d   1      13.755  13.205  -3.190  0.00  0.00     0.038 A 
ATOM      3  C   UNL d   1      13.274  13.909  -4.337  0.00  0.00     0.012 A 
ATOM      4  C   UNL d   1      13.471  12.490  -3.510  0.00  0.00     0.101 A 
ATOM      5  C   UNL d   1      12.990  13.194  -4.657  0.00  0.00     0.003 A 
ATOM      6  C   UNL d   1      13.090  12.489  -4.244  0.00  0.00     0.023 A 
ATOM      7  C   UNL d   1      13.172  14.619  -4.756  0.00  0.00     0.001 C 
ATOM      8  C   UNL d   1      12.809  11.781  -4.561  0.00  0.00     0.002 C 
ENDROOT
BRANCH   1   9
ATOM      9  S   UNL d   1      13.934  14.621  -3.289  0.00  0.00     0.285 S 
ATOM     10  O   UNL d   1      13.210  14.980  -3.450  0.00  0.00    -0.198 OA
ATOM     11  O   UNL d   1      14.664  14.260  -3.128  0.00  0.00    -0.198 OA
BRANCH   9  12
ATOM     12  N   UNL d   1      14.215  15.329  -2.972  0.00  0.00    -0.155 NA
BRANCH  12  13
ATOM     13  C   UNL d   1      14.234  15.434  -2.152  0.00  0.00     0.131 C 
BRANCH  13  14
ATOM     14  C   UNL d   1      14.703  16.029  -1.825  0.00  0.00     0.101 A 
ATOM     15  N   UNL d   1      14.871  16.026  -1.019  0.00  0.00    -0.242 NA
ATOM     16  C   UNL d   1      15.340  16.621  -0.692  0.00  0.00     0.099 A 
ATOM     17  C   UNL d   1      15.641  17.219  -1.171  0.00  0.00     0.021 A 
ATOM     18  C   UNL d   1      15.474  17.224  -1.981  0.00  0.00     0.003 A 
ATOM     19  C   UNL d   1      15.005  16.629  -2.308  0.00  0.00     0.021 A 
ENDBRANCH  13  14
ENDBRANCH  12  13
ENDBRANCH   9  12
ENDBRANCH   1   9
BRANCH   4  20
ATOM     20  O   UNL d   1      13.571  11.785  -3.096  0.00  0.00    -0.305 OA
BRANCH  20  21
ATOM     21  C   UNL d   1      13.512  11.780  -2.275  0.00  0.00     0.123 C 
ATOM     22  C   UNL d   1      14.197  11.779  -1.816  0.00  0.00     0.029 C 
ENDBRANCH  20  21
ENDBRANCH   4  20
TORSDOF 6
ENDMDL
