MODEL 1
REMARK VINA RESULT:       2.5      0.000      0.000
REMARK  1 active torsions:
REMARK  status: ('A' for Active; 'I' for Inactive)
REMARK    1  A    between atoms: C_2  and  C_1 
ROOT
ATOM      1  C   UNL d   1     -51.548  24.803  33.318  0.00  0.00     0.104 A 
ATOM      2  C   UNL d   1     -50.971  24.194  33.312  0.00  0.00     0.202 A 
ATOM      3  C   UNL d   1     -52.372  24.585  33.323  0.00  0.00     0.021 A 
ATOM      4  C   UNL d   1     -51.213  23.406  33.311  0.00  0.00     0.043 A 
ATOM      5  C   UNL d   1     -52.571  23.785  33.322  0.00  0.00     0.058 A 
ATOM      6  C   UNL d   1     -51.999  23.192  33.316  0.00  0.00     0.015 A 
ATOM      7  O   UNL d   1     -50.152  24.401  33.307  0.00  0.00    -0.286 OA
ATOM      8 CL   UNL d   1     -53.389  23.579  33.327  0.00  0.00    -0.082 Cl
ENDROOT
BRANCH   1   9
ATOM      9  C   UNL d   1     -51.321  25.597  33.319  0.00  0.00     0.214 C 
ATOM     10  O   UNL d   1     -50.517  25.821  33.316  0.00  0.00    -0.644 OA
ATOM     11  O   UNL d   1     -51.890  26.218  33.322  0.00  0.00    -0.644 OA
ENDBRANCH   1   9
TORSDOF 1
ENDMDL
MODEL 2
REMARK VINA RESULT:       4.0      1.709      2.237
REMARK  1 active torsions:
REMARK  status: ('A' for Active; 'I' for Inactive)
REMARK    1  A    between atoms: C_2  and  C_1 
ROOT
ATOM      1  C   UNL d   1     -52.001  24.492  33.360  0.00  0.00     0.104 A 
ATOM      2  C   UNL d   1     -51.298  24.035  33.330  0.00  0.00     0.202 A 
ATOM      3  C   UNL d   1     -51.936  25.341  33.365  0.00  0.00     0.021 A 
ATOM      4  C   UNL d   1     -50.567  24.416  33.307  0.00  0.00     0.043 A 
ATOM      5  C   UNL d   1     -51.186  25.683  33.341  0.00  0.00     0.058 A 
ATOM      6  C   UNL d   1     -50.500  25.228  33.312  0.00  0.00     0.015 A 
ATOM      7  O   UNL d   1     -51.352  23.192  33.325  0.00  0.00    -0.286 OA
ATOM      8 CL   UNL d   1     -51.132  26.524  33.346  0.00  0.00    -0.082 Cl
ENDROOT
BRANCH   1   9
ATOM      9  C   UNL d   1     -52.740  24.124  33.383  0.00  0.00     0.214 C 
ATOM     10  O   UNL d   1     -53.447  24.560  33.306  0.00  0.00    -0.644 OA
ATOM     11  O   UNL d   1     -52.815  23.292  33.487  0.00  0.00    -0.644 OA
ENDBRANCH   1   9
TORSDOF 1
ENDMDL
