MODEL 1
REMARK VINA RESULT:      -6.9      0.000      0.000
REMARK  1 active torsions:
REMARK  status: ('A' for Active; 'I' for Inactive)
REMARK    1  A    between atoms: C_6  and  N_1 
ROOT
ATOM      1  N   UNL d   1     -46.637  13.214  23.073  0.00  0.00    -0.204 N 
ATOM      2  C   UNL d   1     -46.594  12.467  23.426  0.00  0.00     0.271 A 
ATOM      3  C   UNL d   1     -47.423  13.352  22.851  0.00  0.00     0.270 A 
ATOM      4  C   UNL d   1     -47.354  12.142  23.422  0.00  0.00     0.080 A 
ATOM      5  C   UNL d   1     -47.859  12.683  23.070  0.00  0.00     0.064 A 
ATOM      6  O   UNL d   1     -45.890  12.202  23.691  0.00  0.00    -0.266 OA
ATOM      7  O   UNL d   1     -47.714  14.028  22.480  0.00  0.00    -0.266 OA
ATOM      8  N   UNL d   1     -48.434  11.245  23.617  0.00  0.00    -0.242 NA
ATOM      9  C   UNL d   1     -47.632  11.421  23.698  0.00  0.00     0.104 A 
ATOM     10  C   UNL d   1     -48.658  12.503  22.991  0.00  0.00     0.026 A 
ATOM     11  C   UNL d   1     -48.950  11.781  23.265  0.00  0.00     0.099 A 
ENDROOT
BRANCH   1  12
ATOM     12  C   UNL d   1     -46.006  13.738  22.959  0.00  0.00     0.326 C 
ATOM     13  O   UNL d   1     -45.514  13.651  22.303  0.00  0.00    -0.261 OA
ENDBRANCH   1  12
TORSDOF 1
ENDMDL
MODEL 2
REMARK VINA RESULT:      -6.7      1.402      2.487
REMARK  1 active torsions:
REMARK  status: ('A' for Active; 'I' for Inactive)
REMARK    1  A    between atoms: C_6  and  N_1 
ROOT
ATOM      1  N   UNL d   1     -48.673  12.235  22.507  0.00  0.00    -0.204 N 
ATOM      2  C   UNL d   1     -48.116  11.856  22.989  0.00  0.00     0.271 A 
ATOM      3  C   UNL d   1     -48.395  12.996  22.337  0.00  0.00     0.270 A 
ATOM      4  C   UNL d   1     -47.494  12.384  23.116  0.00  0.00     0.080 A 
ATOM      5  C   UNL d   1     -47.664  13.079  22.719  0.00  0.00     0.064 A 
ATOM      6  O   UNL d   1     -48.256  11.109  23.231  0.00  0.00    -0.266 OA
ATOM      7  O   UNL d   1     -48.775  13.563  21.875  0.00  0.00    -0.266 OA
ATOM      8  N   UNL d   1     -46.271  12.935  23.577  0.00  0.00    -0.242 NA
ATOM      9  C   UNL d   1     -46.800  12.302  23.548  0.00  0.00     0.104 A 
ATOM     10  C   UNL d   1     -47.134  13.708  22.750  0.00  0.00     0.026 A 
ATOM     11  C   UNL d   1     -46.434  13.638  23.181  0.00  0.00     0.099 A 
ENDROOT
BRANCH   1  12
ATOM     12  C   UNL d   1     -49.387  11.912  22.238  0.00  0.00     0.326 C 
ATOM     13  O   UNL d   1     -50.072  12.000  22.690  0.00  0.00    -0.261 OA
ENDBRANCH   1  12
TORSDOF 1
ENDMDL
MODEL 3
REMARK VINA RESULT:      -6.7      0.357      1.474
REMARK  1 active torsions:
REMARK  status: ('A' for Active; 'I' for Inactive)
REMARK    1  A    between atoms: C_6  and  N_1 
ROOT
ATOM      1  N   UNL d   1     -46.585  13.303  22.985  0.00  0.00    -0.204 N 
ATOM      2  C   UNL d   1     -47.369  13.451  22.766  0.00  0.00     0.271 A 
ATOM      3  C   UNL d   1     -46.557  12.572  23.372  0.00  0.00     0.270 A 
ATOM      4  C   UNL d   1     -47.826  12.811  23.019  0.00  0.00     0.080 A 
ATOM      5  C   UNL d   1     -47.331  12.275  23.389  0.00  0.00     0.064 A 
ATOM      6  O   UNL d   1     -47.544  14.128  22.381  0.00  0.00    -0.266 OA
ATOM      7  O   UNL d   1     -45.885  12.209  23.683  0.00  0.00    -0.266 OA
ATOM      8  N   UNL d   1     -48.938  11.966  23.262  0.00  0.00    -0.242 NA
ATOM      9  C   UNL d   1     -48.632  12.666  22.950  0.00  0.00     0.104 A 
ATOM     10  C   UNL d   1     -47.640  11.578  23.698  0.00  0.00     0.026 A 
ATOM     11  C   UNL d   1     -48.448  11.420  23.635  0.00  0.00     0.099 A 
ENDROOT
BRANCH   1  12
ATOM     12  C   UNL d   1     -45.936  13.797  22.843  0.00  0.00     0.326 C 
ATOM     13  O   UNL d   1     -45.443  13.651  22.197  0.00  0.00    -0.261 OA
ENDBRANCH   1  12
TORSDOF 1
ENDMDL
MODEL 4
REMARK VINA RESULT:      -6.4      1.628      2.194
REMARK  1 active torsions:
REMARK  status: ('A' for Active; 'I' for Inactive)
REMARK    1  A    between atoms: C_6  and  N_1 
ROOT
ATOM      1  N   UNL d   1     -47.228  13.372  22.922  0.00  0.00    -0.204 N 
ATOM      2  C   UNL d   1     -48.002  13.099  23.030  0.00  0.00     0.271 A 
ATOM      3  C   UNL d   1     -47.261  14.178  22.736  0.00  0.00     0.270 A 
ATOM      4  C   UNL d   1     -48.513  13.736  22.911  0.00  0.00     0.080 A 
ATOM      5  C   UNL d   1     -48.061  14.395  22.731  0.00  0.00     0.064 A 
ATOM      6  O   UNL d   1     -48.121  12.332  23.216  0.00  0.00    -0.266 OA
ATOM      7  O   UNL d   1     -46.618  14.671  22.584  0.00  0.00    -0.266 OA
ATOM      8  N   UNL d   1     -49.698  14.508  22.799  0.00  0.00    -0.242 NA
ATOM      9  C   UNL d   1     -49.332  13.783  22.947  0.00  0.00     0.104 A 
ATOM     10  C   UNL d   1     -48.429  15.116  22.584  0.00  0.00     0.026 A 
ATOM     11  C   UNL d   1     -49.252  15.175  22.617  0.00  0.00     0.099 A 
ENDROOT
BRANCH   1  12
ATOM     12  C   UNL d   1     -46.536  12.922  22.988  0.00  0.00     0.326 C 
ATOM     13  O   UNL d   1     -46.116  12.917  23.698  0.00  0.00    -0.261 OA
ENDBRANCH   1  12
TORSDOF 1
ENDMDL
MODEL 5
REMARK VINA RESULT:      -6.3      1.541      2.160
REMARK  1 active torsions:
REMARK  status: ('A' for Active; 'I' for Inactive)
REMARK    1  A    between atoms: C_6  and  N_1 
ROOT
ATOM      1  N   UNL d   1     -47.612  12.232  23.168  0.00  0.00    -0.204 N 
ATOM      2  C   UNL d   1     -47.630  12.854  22.621  0.00  0.00     0.271 A 
ATOM      3  C   UNL d   1     -48.316  11.802  23.095  0.00  0.00     0.270 A 
ATOM      4  C   UNL d   1     -48.346  12.808  22.211  0.00  0.00     0.080 A 
ATOM      5  C   UNL d   1     -48.764  12.166  22.500  0.00  0.00     0.064 A 
ATOM      6  O   UNL d   1     -47.010  13.354  22.581  0.00  0.00    -0.266 OA
ATOM      7  O   UNL d   1     -48.529  11.137  23.533  0.00  0.00    -0.266 OA
ATOM      8  N   UNL d   1     -49.396  13.096  21.304  0.00  0.00    -0.242 NA
ATOM      9  C   UNL d   1     -48.653  13.279  21.613  0.00  0.00     0.104 A 
ATOM     10  C   UNL d   1     -49.504  11.987  22.189  0.00  0.00     0.026 A 
ATOM     11  C   UNL d   1     -49.824  12.453  21.588  0.00  0.00     0.099 A 
ENDROOT
BRANCH   1  12
ATOM     12  C   UNL d   1     -46.998  12.064  23.698  0.00  0.00     0.326 C 
ATOM     13  O   UNL d   1     -46.420  11.511  23.493  0.00  0.00    -0.261 OA
ENDBRANCH   1  12
TORSDOF 1
ENDMDL
MODEL 6
REMARK VINA RESULT:      -5.6      2.675      3.279
REMARK  1 active torsions:
REMARK  status: ('A' for Active; 'I' for Inactive)
REMARK    1  A    between atoms: C_6  and  N_1 
ROOT
ATOM      1  N   UNL d   1     -49.624  14.732  22.998  0.00  0.00    -0.204 N 
ATOM      2  C   UNL d   1     -49.066  14.640  22.393  0.00  0.00     0.271 A 
ATOM      3  C   UNL d   1     -50.016  14.010  23.103  0.00  0.00     0.270 A 
ATOM      4  C   UNL d   1     -49.114  13.860  22.124  0.00  0.00     0.080 A 
ATOM      5  C   UNL d   1     -49.693  13.476  22.557  0.00  0.00     0.064 A 
ATOM      6  O   UNL d   1     -48.612  15.262  22.185  0.00  0.00    -0.266 OA
ATOM      7  O   UNL d   1     -50.614  13.854  23.648  0.00  0.00    -0.266 OA
ATOM      8  N   UNL d   1     -48.866  12.674  21.387  0.00  0.00    -0.242 NA
ATOM      9  C   UNL d   1     -48.695  13.468  21.537  0.00  0.00     0.104 A 
ATOM     10  C   UNL d   1     -49.861  12.685  22.405  0.00  0.00     0.026 A 
ATOM     11  C   UNL d   1     -49.446  12.280  21.817  0.00  0.00     0.099 A 
ENDROOT
BRANCH   1  12
ATOM     12  C   UNL d   1     -49.768  15.425  23.428  0.00  0.00     0.326 C 
ATOM     13  O   UNL d   1     -50.391  15.920  23.210  0.00  0.00    -0.261 OA
ENDBRANCH   1  12
TORSDOF 1
ENDMDL
MODEL 7
REMARK VINA RESULT:      -5.4      9.046     10.063
REMARK  1 active torsions:
REMARK  status: ('A' for Active; 'I' for Inactive)
REMARK    1  A    between atoms: C_6  and  N_1 
ROOT
ATOM      1  N   UNL d   1     -40.414  15.047  17.187  0.00  0.00    -0.204 N 
ATOM      2  C   UNL d   1     -39.693  15.189  16.807  0.00  0.00     0.271 A 
ATOM      3  C   UNL d   1     -40.354  14.331  17.599  0.00  0.00     0.270 A 
ATOM      4  C   UNL d   1     -39.186  14.561  16.985  0.00  0.00     0.080 A 
ATOM      5  C   UNL d   1     -39.590  14.038  17.468  0.00  0.00     0.064 A 
ATOM      6  O   UNL d   1     -39.608  15.851  16.368  0.00  0.00    -0.266 OA
ATOM      7  O   UNL d   1     -40.944  13.978  18.054  0.00  0.00    -0.266 OA
ATOM      8  N   UNL d   1     -38.038  13.730  17.026  0.00  0.00    -0.242 NA
ATOM      9  C   UNL d   1     -38.410  14.416  16.758  0.00  0.00     0.104 A 
ATOM     10  C   UNL d   1     -39.215  13.355  17.733  0.00  0.00     0.026 A 
ATOM     11  C   UNL d   1     -38.436  13.198  17.513  0.00  0.00     0.099 A 
ENDROOT
BRANCH   1  12
ATOM     12  C   UNL d   1     -41.084  15.533  17.162  0.00  0.00     0.326 C 
ATOM     13  O   UNL d   1     -41.656  15.412  16.579  0.00  0.00    -0.261 OA
ENDBRANCH   1  12
TORSDOF 1
ENDMDL
MODEL 8
REMARK VINA RESULT:      -4.9      8.965      9.851
REMARK  1 active torsions:
REMARK  status: ('A' for Active; 'I' for Inactive)
REMARK    1  A    between atoms: C_6  and  N_1 
ROOT
ATOM      1  N   UNL d   1     -39.259  13.798  17.598  0.00  0.00    -0.204 N 
ATOM      2  C   UNL d   1     -39.157  14.285  16.936  0.00  0.00     0.271 A 
ATOM      3  C   UNL d   1     -39.935  14.050  18.004  0.00  0.00     0.270 A 
ATOM      4  C   UNL d   1     -39.770  14.838  16.934  0.00  0.00     0.080 A 
ATOM      5  C   UNL d   1     -40.245  14.695  17.586  0.00  0.00     0.064 A 
ATOM      6  O   UNL d   1     -38.538  14.155  16.450  0.00  0.00    -0.266 OA
ATOM      7  O   UNL d   1     -40.241  13.720  18.695  0.00  0.00    -0.266 OA
ATOM      8  N   UNL d   1     -40.604  15.921  16.554  0.00  0.00    -0.242 NA
ATOM      9  C   UNL d   1     -39.941  15.449  16.412  0.00  0.00     0.104 A 
ATOM     10  C   UNL d   1     -40.904  15.167  17.723  0.00  0.00     0.026 A 
ATOM     11  C   UNL d   1     -41.087  15.784  17.206  0.00  0.00     0.099 A 
ENDROOT
BRANCH   1  12
ATOM     12  C   UNL d   1     -38.772  13.166  17.820  0.00  0.00     0.326 C 
ATOM     13  O   UNL d   1     -38.978  12.396  17.606  0.00  0.00    -0.261 OA
ENDBRANCH   1  12
TORSDOF 1
ENDMDL
MODEL 9
REMARK VINA RESULT:      -4.8      8.362      9.151
REMARK  1 active torsions:
REMARK  status: ('A' for Active; 'I' for Inactive)
REMARK    1  A    between atoms: C_6  and  N_1 
ROOT
ATOM      1  N   UNL d   1     -40.276  14.914  17.694  0.00  0.00    -0.204 N 
ATOM      2  C   UNL d   1     -39.682  15.413  17.983  0.00  0.00     0.271 A 
ATOM      3  C   UNL d   1     -40.551  14.447  18.319  0.00  0.00     0.270 A 
ATOM      4  C   UNL d   1     -39.590  15.253  18.788  0.00  0.00     0.080 A 
ATOM      5  C   UNL d   1     -40.120  14.664  18.993  0.00  0.00     0.064 A 
ATOM      6  O   UNL d   1     -39.324  15.922  17.484  0.00  0.00    -0.266 OA
ATOM      7  O   UNL d   1     -41.143  13.874  18.278  0.00  0.00    -0.266 OA
ATOM      8  N   UNL d   1     -39.117  15.305  20.124  0.00  0.00    -0.242 NA
ATOM      9  C   UNL d   1     -39.084  15.580  19.347  0.00  0.00     0.104 A 
ATOM     10  C   UNL d   1     -40.150  14.392  19.770  0.00  0.00     0.026 A 
ATOM     11  C   UNL d   1     -39.647  14.713  20.340  0.00  0.00     0.099 A 
ENDROOT
BRANCH   1  12
ATOM     12  C   UNL d   1     -40.552  14.884  16.913  0.00  0.00     0.326 C 
ATOM     13  O   UNL d   1     -41.319  15.135  16.740  0.00  0.00    -0.261 OA
ENDBRANCH   1  12
TORSDOF 1
ENDMDL
