MODEL 1
REMARK VINA RESULT:      13.0      0.000      0.000
REMARK  1 active torsions:
REMARK  status: ('A' for Active; 'I' for Inactive)
REMARK    1  A    between atoms: C_8  and  C_2 
ROOT
ATOM      1  N   UNL d   1     -52.030  26.048  33.333  0.00  0.00    -0.191 NA
ATOM      2  C   UNL d   1     -51.736  25.295  33.328  0.00  0.00     0.087 A 
ATOM      3  C   UNL d   1     -51.498  26.694  33.330  0.00  0.00     0.369 A 
ATOM      4  N   UNL d   1     -50.681  26.575  33.323  0.00  0.00    -0.191 NA
ATOM      5  C   UNL d   1     -50.933  25.144  33.320  0.00  0.00     0.036 A 
ATOM      6  C   UNL d   1     -50.400  25.790  33.318  0.00  0.00     0.088 A 
ATOM      7  O   UNL d   1     -51.775  27.477  33.335  0.00  0.00    -0.242 OA
ATOM      8  C   UNL d   1     -50.638  24.391  33.315  0.00  0.00     0.003 A 
ATOM      9  C   UNL d   1     -49.584  25.670  33.310  0.00  0.00     0.019 A 
ATOM     10  C   UNL d   1     -49.843  24.246  33.308  0.00  0.00     0.000 A 
ATOM     11  C   UNL d   1     -49.311  24.892  33.306  0.00  0.00     0.002 A 
ENDROOT
BRANCH   2  12
ATOM     12  C   UNL d   1     -52.269  24.649  33.330  0.00  0.00     0.018 A 
ATOM     13  C   UNL d   1     -51.975  23.896  33.356  0.00  0.00     0.002 A 
ATOM     14  C   UNL d   1     -52.514  23.242  33.358  0.00  0.00     0.000 A 
ATOM     15  C   UNL d   1     -53.309  23.386  33.335  0.00  0.00     0.000 A 
ATOM     16  C   UNL d   1     -53.611  24.145  33.308  0.00  0.00     0.000 A 
ATOM     17  C   UNL d   1     -53.072  24.800  33.306  0.00  0.00     0.002 A 
ENDBRANCH   2  12
TORSDOF 1
ENDMDL
MODEL 2
REMARK VINA RESULT:      16.0      1.377      2.624
REMARK  1 active torsions:
REMARK  status: ('A' for Active; 'I' for Inactive)
REMARK    1  A    between atoms: C_8  and  C_2 
ROOT
ATOM      1  N   UNL d   1     -52.503  24.857  33.455  0.00  0.00    -0.191 NA
ATOM      2  C   UNL d   1     -51.736  25.105  33.406  0.00  0.00     0.087 A 
ATOM      3  C   UNL d   1     -52.666  24.036  33.486  0.00  0.00     0.369 A 
ATOM      4  N   UNL d   1     -52.057  23.480  33.466  0.00  0.00    -0.191 NA
ATOM      5  C   UNL d   1     -51.111  24.579  33.385  0.00  0.00     0.036 A 
ATOM      6  C   UNL d   1     -51.273  23.758  33.416  0.00  0.00     0.088 A 
ATOM      7  O   UNL d   1     -53.446  23.757  33.536  0.00  0.00    -0.242 OA
ATOM      8  C   UNL d   1     -50.343  24.827  33.336  0.00  0.00     0.003 A 
ATOM      9  C   UNL d   1     -50.664  23.202  33.397  0.00  0.00     0.019 A 
ATOM     10  C   UNL d   1     -49.727  24.303  33.316  0.00  0.00     0.000 A 
ATOM     11  C   UNL d   1     -49.890  23.483  33.346  0.00  0.00     0.002 A 
ENDROOT
BRANCH   2  12
ATOM     12  C   UNL d   1     -51.573  25.927  33.376  0.00  0.00     0.018 A 
ATOM     13  C   UNL d   1     -50.804  26.177  33.372  0.00  0.00     0.002 A 
ATOM     14  C   UNL d   1     -50.640  27.008  33.341  0.00  0.00     0.000 A 
ATOM     15  C   UNL d   1     -51.256  27.531  33.316  0.00  0.00     0.000 A 
ATOM     16  C   UNL d   1     -52.035  27.283  33.319  0.00  0.00     0.000 A 
ATOM     17  C   UNL d   1     -52.199  26.451  33.350  0.00  0.00     0.002 A 
ENDBRANCH   2  12
TORSDOF 1
ENDMDL
