MODEL 1
REMARK VINA RESULT:      -4.7      0.000      0.000
REMARK  2 active torsions:
REMARK  status: ('A' for Active; 'I' for Inactive)
REMARK    1  A    between atoms: C_2  and  CA_1 
REMARK    2  A    between atoms: C_3  and  CA_1 
ROOT
ATOM      1  C   UNL d   1     -41.482-122.455 -53.762  0.00  0.00     0.025 A 
ATOM      2  C   UNL d   1     -41.285-123.236 -53.558  0.00  0.00     0.002 A 
ATOM      3  C   UNL d   1     -41.515-121.874 -53.178  0.00  0.00     0.002 A 
ATOM      4  C   UNL d   1     -41.252-123.817 -54.142  0.00  0.00     0.000 C 
ATOM      5  C   UNL d   1     -41.123-123.428 -52.774  0.00  0.00     0.000 A 
ATOM      6  C   UNL d   1     -41.351-122.073 -52.389  0.00  0.00     0.000 A 
ATOM      7  C   UNL d   1     -41.156-122.847 -52.190  0.00  0.00     0.000 A 
ENDROOT
BRANCH   1   8
ATOM      8  CA  UNL d   1     -41.645-122.265 -54.550  0.00  0.00     0.167 C 
ATOM      9  N   UNL d   1     -41.210-122.609 -55.157  0.00  0.00    -0.142 N 
BRANCH   8  10
ATOM     10  C   UNL d   1     -42.245-121.727 -54.725  0.00  0.00     0.231 C 
ATOM     11  O   UNL d   1     -43.024-121.980 -54.814  0.00  0.00    -0.643 OA
ATOM     12  OXT UNL d   1     -42.068-120.923 -54.812  0.00  0.00    -0.643 OA
ENDBRANCH   8  10
ENDBRANCH   1   8
TORSDOF 2
ENDMDL
MODEL 2
REMARK VINA RESULT:      -4.6      1.439      2.286
REMARK  2 active torsions:
REMARK  status: ('A' for Active; 'I' for Inactive)
REMARK    1  A    between atoms: C_2  and  CA_1 
REMARK    2  A    between atoms: C_3  and  CA_1 
ROOT
ATOM      1  C   UNL d   1     -41.782-122.481 -53.901  0.00  0.00     0.025 A 
ATOM      2  C   UNL d   1     -41.600-122.907 -54.591  0.00  0.00     0.002 A 
ATOM      3  C   UNL d   1     -42.248-121.802 -53.949  0.00  0.00     0.002 A 
ATOM      4  C   UNL d   1     -41.134-123.586 -54.543  0.00  0.00     0.000 C 
ATOM      5  C   UNL d   1     -41.884-122.651 -55.320  0.00  0.00     0.000 A 
ATOM      6  C   UNL d   1     -42.532-121.549 -54.687  0.00  0.00     0.000 A 
ATOM      7  C   UNL d   1     -42.350-121.973 -55.368  0.00  0.00     0.000 A 
ENDROOT
BRANCH   1   8
ATOM      8  CA  UNL d   1     -41.495-122.739 -53.170  0.00  0.00     0.167 C 
ATOM      9  N   UNL d   1     -41.132-123.474 -53.104  0.00  0.00    -0.142 N 
BRANCH   8  10
ATOM     10  C   UNL d   1     -41.575-122.256 -52.506  0.00  0.00     0.231 C 
ATOM     11  O   UNL d   1     -41.123-121.573 -52.426  0.00  0.00    -0.643 OA
ATOM     12  OXT UNL d   1     -42.114-122.458 -51.911  0.00  0.00    -0.643 OA
ENDBRANCH   8  10
ENDBRANCH   1   8
TORSDOF 2
ENDMDL
MODEL 3
REMARK VINA RESULT:      -4.1      0.815      1.293
REMARK  2 active torsions:
REMARK  status: ('A' for Active; 'I' for Inactive)
REMARK    1  A    between atoms: C_2  and  CA_1 
REMARK    2  A    between atoms: C_3  and  CA_1 
ROOT
ATOM      1  C   UNL d   1     -41.336-122.438 -52.800  0.00  0.00     0.025 A 
ATOM      2  C   UNL d   1     -41.316-123.024 -52.211  0.00  0.00     0.002 A 
ATOM      3  C   UNL d   1     -41.249-121.644 -52.593  0.00  0.00     0.002 A 
ATOM      4  C   UNL d   1     -41.402-123.817 -52.418  0.00  0.00     0.000 C 
ATOM      5  C   UNL d   1     -41.210-122.812 -51.423  0.00  0.00     0.000 A 
ATOM      6  C   UNL d   1     -41.142-121.436 -51.796  0.00  0.00     0.000 A 
ATOM      7  C   UNL d   1     -41.123-122.018 -51.215  0.00  0.00     0.000 A 
ENDROOT
BRANCH   1   8
ATOM      8  CA  UNL d   1     -41.442-122.653 -53.590  0.00  0.00     0.167 C 
ATOM      9  N   UNL d   1     -41.126-123.357 -53.874  0.00  0.00    -0.142 N 
BRANCH   8  10
ATOM     10  C   UNL d   1     -41.867-122.158 -54.095  0.00  0.00     0.231 C 
ATOM     11  O   UNL d   1     -41.480-121.616 -54.578  0.00  0.00    -0.643 OA
ATOM     12  OXT UNL d   1     -42.694-122.205 -54.120  0.00  0.00    -0.643 OA
ENDBRANCH   8  10
ENDBRANCH   1   8
TORSDOF 2
ENDMDL
MODEL 4
REMARK VINA RESULT:      -3.4      3.074      3.768
REMARK  2 active torsions:
REMARK  status: ('A' for Active; 'I' for Inactive)
REMARK    1  A    between atoms: C_2  and  CA_1 
REMARK    2  A    between atoms: C_3  and  CA_1 
ROOT
ATOM      1  C   UNL d   1     -41.655-122.668 -50.712  0.00  0.00     0.025 A 
ATOM      2  C   UNL d   1     -41.425-123.000 -51.438  0.00  0.00     0.002 A 
ATOM      3  C   UNL d   1     -41.618-121.851 -50.605  0.00  0.00     0.002 A 
ATOM      4  C   UNL d   1     -41.462-123.817 -51.545  0.00  0.00     0.000 C 
ATOM      5  C   UNL d   1     -41.161-122.515 -52.049  0.00  0.00     0.000 A 
ATOM      6  C   UNL d   1     -41.351-121.366 -51.224  0.00  0.00     0.000 A 
ATOM      7  C   UNL d   1     -41.124-121.698 -51.942  0.00  0.00     0.000 A 
ENDROOT
BRANCH   1   8
ATOM      8  CA  UNL d   1     -41.920-123.157 -50.101  0.00  0.00     0.167 C 
ATOM      9  N   UNL d   1     -41.482-123.817 -49.881  0.00  0.00    -0.142 N 
BRANCH   8  10
ATOM     10  C   UNL d   1     -42.625-122.980 -49.713  0.00  0.00     0.231 C 
ATOM     11  O   UNL d   1     -43.352-123.136 -50.067  0.00  0.00    -0.643 OA
ATOM     12  OXT UNL d   1     -42.608-122.641 -48.957  0.00  0.00    -0.643 OA
ENDBRANCH   8  10
ENDBRANCH   1   8
TORSDOF 2
ENDMDL
MODEL 5
REMARK VINA RESULT:      -3.4      2.969      3.757
REMARK  2 active torsions:
REMARK  status: ('A' for Active; 'I' for Inactive)
REMARK    1  A    between atoms: C_2  and  CA_1 
REMARK    2  A    between atoms: C_3  and  CA_1 
ROOT
ATOM      1  C   UNL d   1     -42.037-122.849 -50.266  0.00  0.00     0.025 A 
ATOM      2  C   UNL d   1     -41.834-123.265 -49.576  0.00  0.00     0.002 A 
ATOM      3  C   UNL d   1     -42.716-122.381 -50.278  0.00  0.00     0.002 A 
ATOM      4  C   UNL d   1     -41.155-123.733 -49.565  0.00  0.00     0.000 C 
ATOM      5  C   UNL d   1     -42.310-123.211 -48.907  0.00  0.00     0.000 A 
ATOM      6  C   UNL d   1     -43.193-122.329 -49.600  0.00  0.00     0.000 A 
ATOM      7  C   UNL d   1     -42.989-122.743 -48.919  0.00  0.00     0.000 A 
ENDROOT
BRANCH   1   8
ATOM      8  CA  UNL d   1     -41.558-122.905 -50.937  0.00  0.00     0.167 C 
ATOM      9  N   UNL d   1     -41.123-123.588 -51.078  0.00  0.00    -0.142 N 
BRANCH   8  10
ATOM     10  C   UNL d   1     -41.517-122.272 -51.464  0.00  0.00     0.231 C 
ATOM     11  O   UNL d   1     -41.123-121.579 -51.261  0.00  0.00    -0.643 OA
ATOM     12  OXT UNL d   1     -41.876-122.331 -52.208  0.00  0.00    -0.643 OA
ENDBRANCH   8  10
ENDBRANCH   1   8
TORSDOF 2
ENDMDL
MODEL 6
REMARK VINA RESULT:      -2.7      4.299      4.920
REMARK  2 active torsions:
REMARK  status: ('A' for Active; 'I' for Inactive)
REMARK    1  A    between atoms: C_2  and  CA_1 
REMARK    2  A    between atoms: C_3  and  CA_1 
ROOT
ATOM      1  C   UNL d   1     -42.313-123.150 -49.013  0.00  0.00     0.025 A 
ATOM      2  C   UNL d   1     -41.595-123.562 -48.940  0.00  0.00     0.002 A 
ATOM      3  C   UNL d   1     -42.739-122.945 -48.337  0.00  0.00     0.002 A 
ATOM      4  C   UNL d   1     -41.169-123.767 -49.616  0.00  0.00     0.000 C 
ATOM      5  C   UNL d   1     -41.310-123.765 -48.195  0.00  0.00     0.000 A 
ATOM      6  C   UNL d   1     -42.447-123.152 -47.588  0.00  0.00     0.000 A 
ATOM      7  C   UNL d   1     -41.736-123.560 -47.519  0.00  0.00     0.000 A 
ENDROOT
BRANCH   1   8
ATOM      8  CA  UNL d   1     -42.597-122.948 -49.762  0.00  0.00     0.167 C 
ATOM      9  N   UNL d   1     -42.081-122.673 -50.340  0.00  0.00    -0.142 N 
BRANCH   8  10
ATOM     10  C   UNL d   1     -43.402-123.024 -49.928  0.00  0.00     0.231 C 
ATOM     11  O   UNL d   1     -43.740-123.765 -50.043  0.00  0.00    -0.643 OA
ATOM     12  OXT UNL d   1     -43.878-122.348 -49.981  0.00  0.00    -0.643 OA
ENDBRANCH   8  10
ENDBRANCH   1   8
TORSDOF 2
ENDMDL
