MODEL 1
REMARK VINA RESULT:      41.8      0.000      0.000
REMARK  1 active torsions:
REMARK  status: ('A' for Active; 'I' for Inactive)
REMARK    1  A    between atoms: C_2  and  C_1 
ROOT
ATOM      1  C   UNL d   1     -51.727  25.909  33.314  0.00  0.00     0.087 A 
ATOM      2  C   UNL d   1     -50.922  25.729  33.317  0.00  0.00     0.302 A 
ATOM      3  C   UNL d   1     -51.984  26.697  33.312  0.00  0.00     0.009 A 
ATOM      4  O   UNL d   1     -50.371  26.337  33.317  0.00  0.00    -0.273 OA
ATOM      5  C   UNL d   1     -50.611  27.122  33.315  0.00  0.00     0.106 A 
ATOM      6  C   UNL d   1     -51.416  27.302  33.312  0.00  0.00     0.023 A 
ATOM      7  C   UNL d   1     -50.060  27.730  33.315  0.00  0.00     0.067 A 
ATOM      8  O   UNL d   1     -50.682  24.944  33.319  0.00  0.00    -0.259 OA
ATOM      9  C   UNL d   1     -51.673  28.090  33.309  0.00  0.00     0.005 A 
ATOM     10  C   UNL d   1     -50.300  28.515  33.312  0.00  0.00     0.198 A 
ATOM     11  C   UNL d   1     -51.105  28.695  33.310  0.00  0.00     0.042 A 
ATOM     12  O   UNL d   1     -49.749  29.122  33.312  0.00  0.00    -0.286 OA
ENDROOT
BRANCH   1  13
ATOM     13  C   UNL d   1     -52.292  25.319  33.314  0.00  0.00     0.116 A 
ATOM     14  N   UNL d   1     -52.206  24.511  33.318  0.00  0.00    -0.238 NA
ATOM     15  C   UNL d   1     -52.943  24.163  33.316  0.00  0.00     0.088 A 
ATOM     16  C   UNL d   1     -53.167  23.363  33.319  0.00  0.00     0.020 A 
ATOM     17  C   UNL d   1     -53.491  24.755  33.311  0.00  0.00     0.049 A 
ATOM     18  C   UNL d   1     -53.983  23.190  33.315  0.00  0.00     0.002 A 
ATOM     19  C   UNL d   1     -54.542  23.795  33.310  0.00  0.00     0.001 A 
ATOM     20  C   UNL d   1     -54.292  24.585  33.308  0.00  0.00     0.008 A 
ATOM     21  S   UNL d   1     -53.114  25.483  33.309  0.00  0.00    -0.066 SA
ENDBRANCH   1  13
TORSDOF 1
ENDMDL
