MODEL 1
REMARK VINA RESULT:      -8.7      0.000      0.000
REMARK  3 active torsions:
REMARK  status: ('A' for Active; 'I' for Inactive)
REMARK    1  A    between atoms: C_7  and  N_1 
REMARK    2  A    between atoms: C_13  and  C_7 
REMARK    3  A    between atoms: O_18  and  C_10 
ROOT
ATOM      1  N   UNL d   1     -48.662  13.159  22.967  0.00  0.00    -0.226 N 
ATOM      2  C   UNL d   1     -48.853  12.601  22.444  0.00  0.00     0.343 A 
ATOM      3  N   UNL d   1     -49.606  12.798  21.995  0.00  0.00    -0.241 N 
ATOM      4  C   UNL d   1     -49.125  13.758  23.014  0.00  0.00     0.273 A 
ATOM      5  C   UNL d   1     -49.924  13.435  22.178  0.00  0.00     0.158 A 
ATOM      6  C   UNL d   1     -49.696  14.003  22.738  0.00  0.00     0.113 A 
ATOM      7  N   UNL d   1     -50.608  13.549  21.728  0.00  0.00    -0.226 NA
ATOM      8  O   UNL d   1     -48.665  12.114  22.261  0.00  0.00    -0.245 OA
ATOM      9  C   UNL d   1     -50.152  14.684  22.845  0.00  0.00     0.103 A 
ATOM     10  O   UNL d   1     -48.952  14.103  23.380  0.00  0.00    -0.266 OA
ATOM     11  C   UNL d   1     -49.864  12.313  21.469  0.00  0.00     0.105 C 
ATOM     12  C   UNL d   1     -51.063  14.231  21.835  0.00  0.00     0.103 A 
ATOM     13  C   UNL d   1     -50.835  14.798  22.395  0.00  0.00     0.045 A 
ENDROOT
BRANCH   1  14
ATOM     14  C   UNL d   1     -47.991  13.090  23.439  0.00  0.00     0.087 C 
BRANCH  14  15
ATOM     15  C   UNL d   1     -47.240  13.169  23.115  0.00  0.00     0.018 A 
ATOM     16  C   UNL d   1     -46.757  12.492  23.005  0.00  0.00     0.002 A 
ATOM     17  C   UNL d   1     -46.012  12.559  22.685  0.00  0.00     0.011 A 
ATOM     18  C   UNL d   1     -45.737  13.296  22.469  0.00  0.00     0.058 A 
ATOM     19  C   UNL d   1     -46.206  13.972  22.574  0.00  0.00     0.011 A 
ATOM     20 CL   UNL d   1     -44.982  13.368  22.144  0.00  0.00    -0.082 Cl
ATOM     21  C   UNL d   1     -46.948  13.908  22.893  0.00  0.00     0.002 A 
ENDBRANCH  14  15
ENDBRANCH   1  14
BRANCH   9  22
ATOM     22  O   UNL d   1     -49.878  15.301  23.472  0.00  0.00    -0.328 OA
ATOM     23  C   UNL d   1     -50.374  15.921  23.696  0.00  0.00     0.181 C 
ENDBRANCH   9  22
TORSDOF 3
ENDMDL
MODEL 2
REMARK VINA RESULT:      -8.0      1.052      1.761
REMARK  3 active torsions:
REMARK  status: ('A' for Active; 'I' for Inactive)
REMARK    1  A    between atoms: C_7  and  N_1 
REMARK    2  A    between atoms: C_13  and  C_7 
REMARK    3  A    between atoms: O_18  and  C_10 
ROOT
ATOM      1  N   UNL d   1     -48.196  13.924  23.095  0.00  0.00    -0.226 N 
ATOM      2  C   UNL d   1     -48.316  14.584  22.682  0.00  0.00     0.343 A 
ATOM      3  N   UNL d   1     -49.130  14.606  22.303  0.00  0.00    -0.241 N 
ATOM      4  C   UNL d   1     -48.764  13.422  23.112  0.00  0.00     0.273 A 
ATOM      5  C   UNL d   1     -49.553  14.018  22.431  0.00  0.00     0.158 A 
ATOM      6  C   UNL d   1     -49.395  13.336  22.874  0.00  0.00     0.113 A 
ATOM      7  N   UNL d   1     -50.284  14.107  22.053  0.00  0.00    -0.226 NA
ATOM      8  O   UNL d   1     -48.050  15.051  22.548  0.00  0.00    -0.245 OA
ATOM      9  C   UNL d   1     -49.968  12.742  22.939  0.00  0.00     0.103 A 
ATOM     10  O   UNL d   1     -48.633  12.997  23.403  0.00  0.00    -0.266 OA
ATOM     11  C   UNL d   1     -49.331  15.208  21.884  0.00  0.00     0.105 C 
ATOM     12  C   UNL d   1     -50.855  13.514  22.118  0.00  0.00     0.103 A 
ATOM     13  C   UNL d   1     -50.697  12.831  22.561  0.00  0.00     0.045 A 
ENDROOT
BRANCH   1  14
ATOM     14  C   UNL d   1     -47.485  13.790  23.489  0.00  0.00     0.087 C 
BRANCH  14  15
ATOM     15  C   UNL d   1     -46.806  13.590  23.073  0.00  0.00     0.018 A 
ATOM     16  C   UNL d   1     -46.599  12.783  22.972  0.00  0.00     0.002 A 
ATOM     17  C   UNL d   1     -45.929  12.574  22.561  0.00  0.00     0.011 A 
ATOM     18  C   UNL d   1     -45.456  13.159  22.245  0.00  0.00     0.058 A 
ATOM     19  C   UNL d   1     -45.652  13.960  22.339  0.00  0.00     0.011 A 
ATOM     20 CL   UNL d   1     -44.776  12.951  21.828  0.00  0.00    -0.082 Cl
ATOM     21  C   UNL d   1     -46.318  14.171  22.748  0.00  0.00     0.002 A 
ENDBRANCH  14  15
ENDBRANCH   1  14
BRANCH   9  22
ATOM     22  O   UNL d   1     -49.770  11.993  23.436  0.00  0.00    -0.328 OA
ATOM     23  C   UNL d   1     -50.370  11.491  23.698  0.00  0.00     0.181 C 
ENDBRANCH   9  22
TORSDOF 3
ENDMDL
MODEL 3
REMARK VINA RESULT:      -7.7      1.865      4.187
REMARK  3 active torsions:
REMARK  status: ('A' for Active; 'I' for Inactive)
REMARK    1  A    between atoms: C_7  and  N_1 
REMARK    2  A    between atoms: C_13  and  C_7 
REMARK    3  A    between atoms: O_18  and  C_10 
ROOT
ATOM      1  N   UNL d   1     -47.740  13.200  23.281  0.00  0.00    -0.226 N 
ATOM      2  C   UNL d   1     -47.553  13.903  22.980  0.00  0.00     0.343 A 
ATOM      3  N   UNL d   1     -46.698  13.941  22.706  0.00  0.00    -0.241 N 
ATOM      4  C   UNL d   1     -47.192  12.676  23.295  0.00  0.00     0.273 A 
ATOM      5  C   UNL d   1     -46.309  13.324  22.802  0.00  0.00     0.158 A 
ATOM      6  C   UNL d   1     -46.538  12.596  23.124  0.00  0.00     0.113 A 
ATOM      7  N   UNL d   1     -45.536  13.431  22.529  0.00  0.00    -0.226 NA
ATOM      8  O   UNL d   1     -47.788  14.395  22.881  0.00  0.00    -0.245 OA
ATOM      9  C   UNL d   1     -45.994  11.975  23.173  0.00  0.00     0.103 A 
ATOM     10  O   UNL d   1     -47.369  12.222  23.507  0.00  0.00    -0.266 OA
ATOM     11  C   UNL d   1     -46.431  14.585  22.402  0.00  0.00     0.105 C 
ATOM     12  C   UNL d   1     -44.992  12.811  22.578  0.00  0.00     0.103 A 
ATOM     13  C   UNL d   1     -45.221  12.082  22.900  0.00  0.00     0.045 A 
ENDROOT
BRANCH   1  14
ATOM     14  C   UNL d   1     -48.497  13.045  23.566  0.00  0.00     0.087 C 
BRANCH  14  15
ATOM     15  C   UNL d   1     -49.135  12.990  23.052  0.00  0.00     0.018 A 
ATOM     16  C   UNL d   1     -49.721  13.591  23.044  0.00  0.00     0.002 A 
ATOM     17  C   UNL d   1     -50.357  13.546  22.539  0.00  0.00     0.011 A 
ATOM     18  C   UNL d   1     -50.421  12.908  22.035  0.00  0.00     0.058 A 
ATOM     19  C   UNL d   1     -49.848  12.308  22.034  0.00  0.00     0.011 A 
ATOM     20 CL   UNL d   1     -51.064  12.859  21.522  0.00  0.00    -0.082 Cl
ATOM     21  C   UNL d   1     -49.214  12.350  22.536  0.00  0.00     0.002 A 
ENDBRANCH  14  15
ENDBRANCH   1  14
BRANCH   9  22
ATOM     22  O   UNL d   1     -46.271  11.175  23.535  0.00  0.00    -0.328 OA
ATOM     23  C   UNL d   1     -45.728  10.576  23.698  0.00  0.00     0.181 C 
ENDBRANCH   9  22
TORSDOF 3
ENDMDL
MODEL 4
REMARK VINA RESULT:      -7.1      8.900     10.295
REMARK  3 active torsions:
REMARK  status: ('A' for Active; 'I' for Inactive)
REMARK    1  A    between atoms: C_7  and  N_1 
REMARK    2  A    between atoms: C_13  and  C_7 
REMARK    3  A    between atoms: O_18  and  C_10 
ROOT
ATOM      1  N   UNL d   1     -40.518  14.595  18.252  0.00  0.00    -0.226 N 
ATOM      2  C   UNL d   1     -40.671  15.237  17.822  0.00  0.00     0.343 A 
ATOM      3  N   UNL d   1     -40.164  15.280  17.081  0.00  0.00    -0.241 N 
ATOM      4  C   UNL d   1     -39.985  14.125  17.988  0.00  0.00     0.273 A 
ATOM      5  C   UNL d   1     -39.693  14.723  16.989  0.00  0.00     0.158 A 
ATOM      6  C   UNL d   1     -39.556  14.058  17.464  0.00  0.00     0.113 A 
ATOM      7  N   UNL d   1     -39.263  14.828  16.290  0.00  0.00    -0.226 NA
ATOM      8  O   UNL d   1     -41.001  15.682  17.831  0.00  0.00    -0.245 OA
ATOM      9  C   UNL d   1     -38.989  13.499  17.241  0.00  0.00     0.103 A 
ATOM     10  O   UNL d   1     -39.920  13.710  18.314  0.00  0.00    -0.266 OA
ATOM     11  C   UNL d   1     -40.246  15.869  16.606  0.00  0.00     0.105 C 
ATOM     12  C   UNL d   1     -38.696  14.270  16.068  0.00  0.00     0.103 A 
ATOM     13  C   UNL d   1     -38.559  13.605  16.544  0.00  0.00     0.045 A 
ENDROOT
BRANCH   1  14
ATOM     14  C   UNL d   1     -40.921  14.447  18.955  0.00  0.00     0.087 C 
BRANCH  14  15
ATOM     15  C   UNL d   1     -40.686  14.805  19.656  0.00  0.00     0.018 A 
ATOM     16  C   UNL d   1     -40.206  14.386  20.202  0.00  0.00     0.002 A 
ATOM     17  C   UNL d   1     -39.969  14.731  20.899  0.00  0.00     0.011 A 
ATOM     18  C   UNL d   1     -40.203  15.495  21.065  0.00  0.00     0.058 A 
ATOM     19  C   UNL d   1     -40.677  15.918  20.532  0.00  0.00     0.011 A 
ATOM     20 CL   UNL d   1     -39.964  15.848  21.770  0.00  0.00    -0.082 Cl
ATOM     21  C   UNL d   1     -40.915  15.577  19.838  0.00  0.00     0.002 A 
ENDBRANCH  14  15
ENDBRANCH   1  14
BRANCH   9  22
ATOM     22  O   UNL d   1     -38.854  12.769  17.785  0.00  0.00    -0.328 OA
ATOM     23  C   UNL d   1     -38.163  12.323  17.727  0.00  0.00     0.181 C 
ENDBRANCH   9  22
TORSDOF 3
ENDMDL
MODEL 5
REMARK VINA RESULT:      -6.8      1.872      3.736
REMARK  3 active torsions:
REMARK  status: ('A' for Active; 'I' for Inactive)
REMARK    1  A    between atoms: C_7  and  N_1 
REMARK    2  A    between atoms: C_13  and  C_7 
REMARK    3  A    between atoms: O_18  and  C_10 
ROOT
ATOM      1  N   UNL d   1     -48.611  12.722  23.454  0.00  0.00    -0.226 N 
ATOM      2  C   UNL d   1     -48.677  11.949  23.588  0.00  0.00     0.343 A 
ATOM      3  N   UNL d   1     -47.883  11.529  23.561  0.00  0.00    -0.241 N 
ATOM      4  C   UNL d   1     -47.913  12.990  23.326  0.00  0.00     0.273 A 
ATOM      5  C   UNL d   1     -47.304  11.960  23.420  0.00  0.00     0.158 A 
ATOM      6  C   UNL d   1     -47.269  12.776  23.283  0.00  0.00     0.113 A 
ATOM      7  N   UNL d   1     -46.611  11.508  23.410  0.00  0.00    -0.226 NA
ATOM      8  O   UNL d   1     -49.068  11.572  23.697  0.00  0.00    -0.245 OA
ATOM      9  C   UNL d   1     -46.541  13.141  23.135  0.00  0.00     0.103 A 
ATOM     10  O   UNL d   1     -47.924  13.515  23.242  0.00  0.00    -0.266 OA
ATOM     11  C   UNL d   1     -47.854  10.778  23.679  0.00  0.00     0.105 C 
ATOM     12  C   UNL d   1     -45.884  11.872  23.263  0.00  0.00     0.103 A 
ATOM     13  C   UNL d   1     -45.849  12.689  23.125  0.00  0.00     0.045 A 
ENDROOT
BRANCH   1  14
ATOM     14  C   UNL d   1     -49.273  13.214  23.454  0.00  0.00     0.087 C 
BRANCH  14  15
ATOM     15  C   UNL d   1     -49.727  13.305  22.776  0.00  0.00     0.018 A 
ATOM     16  C   UNL d   1     -49.486  13.844  22.180  0.00  0.00     0.002 A 
ATOM     17  C   UNL d   1     -49.928  13.943  21.504  0.00  0.00     0.011 A 
ATOM     18  C   UNL d   1     -50.613  13.510  21.411  0.00  0.00     0.058 A 
ATOM     19  C   UNL d   1     -50.860  12.975  21.994  0.00  0.00     0.011 A 
ATOM     20 CL   UNL d   1     -51.064  13.608  20.727  0.00  0.00    -0.082 Cl
ATOM     21  C   UNL d   1     -50.422  12.875  22.667  0.00  0.00     0.002 A 
ENDBRANCH  14  15
ENDBRANCH   1  14
BRANCH   9  22
ATOM     22  O   UNL d   1     -46.527  14.049  22.986  0.00  0.00    -0.328 OA
ATOM     23  C   UNL d   1     -45.897  14.400  22.585  0.00  0.00     0.181 C 
ENDBRANCH   9  22
TORSDOF 3
ENDMDL
MODEL 6
REMARK VINA RESULT:      -6.6      8.967      9.951
REMARK  3 active torsions:
REMARK  status: ('A' for Active; 'I' for Inactive)
REMARK    1  A    between atoms: C_7  and  N_1 
REMARK    2  A    between atoms: C_13  and  C_7 
REMARK    3  A    between atoms: O_18  and  C_10 
ROOT
ATOM      1  N   UNL d   1     -40.069  14.265  18.888  0.00  0.00    -0.226 N 
ATOM      2  C   UNL d   1     -39.331  13.988  18.874  0.00  0.00     0.343 A 
ATOM      3  N   UNL d   1     -38.935  14.114  18.078  0.00  0.00    -0.241 N 
ATOM      4  C   UNL d   1     -40.327  14.585  18.252  0.00  0.00     0.273 A 
ATOM      5  C   UNL d   1     -39.348  14.448  17.570  0.00  0.00     0.158 A 
ATOM      6  C   UNL d   1     -40.127  14.729  17.618  0.00  0.00     0.113 A 
ATOM      7  N   UNL d   1     -38.921  14.530  16.866  0.00  0.00    -0.226 NA
ATOM      8  O   UNL d   1     -38.970  13.734  19.208  0.00  0.00    -0.245 OA
ATOM      9  C   UNL d   1     -40.478  15.091  16.962  0.00  0.00     0.103 A 
ATOM     10  O   UNL d   1     -40.827  14.755  18.314  0.00  0.00    -0.266 OA
ATOM     11  C   UNL d   1     -38.220  13.877  17.975  0.00  0.00     0.105 C 
ATOM     12  C   UNL d   1     -39.272  14.892  16.211  0.00  0.00     0.103 A 
ATOM     13  C   UNL d   1     -40.051  15.173  16.259  0.00  0.00     0.045 A 
ENDROOT
BRANCH   1  14
ATOM     14  C   UNL d   1     -40.533  14.207  19.566  0.00  0.00     0.087 C 
BRANCH  14  15
ATOM     15  C   UNL d   1     -40.352  14.643  20.238  0.00  0.00     0.018 A 
ATOM     16  C   UNL d   1     -39.913  14.291  20.861  0.00  0.00     0.002 A 
ATOM     17  C   UNL d   1     -39.727  14.714  21.530  0.00  0.00     0.011 A 
ATOM     18  C   UNL d   1     -39.973  15.490  21.592  0.00  0.00     0.058 A 
ATOM     19  C   UNL d   1     -40.408  15.847  20.982  0.00  0.00     0.011 A 
ATOM     20 CL   UNL d   1     -39.788  15.922  22.269  0.00  0.00    -0.082 Cl
ATOM     21  C   UNL d   1     -40.594  15.429  20.315  0.00  0.00     0.002 A 
ENDBRANCH  14  15
ENDBRANCH   1  14
BRANCH   9  22
ATOM     22  O   UNL d   1     -41.343  15.395  17.039  0.00  0.00    -0.328 OA
ATOM     23  C   UNL d   1     -41.655  15.922  16.486  0.00  0.00     0.181 C 
ENDBRANCH   9  22
TORSDOF 3
ENDMDL
