MODEL 1
REMARK VINA RESULT:      -5.0      0.000      0.000
REMARK  7 active torsions:
REMARK  status: ('A' for Active; 'I' for Inactive)
REMARK    1  A    between atoms: N_15  and  C_4 
REMARK    2  A    between atoms: C_17  and  N_5 
REMARK    3  A    between atoms: C_19  and  N_10 
REMARK    4  A    between atoms: C_11  and  S_16 
REMARK    5  A    between atoms: S_16  and  C_28 
REMARK    6  A    between atoms: C_27  and  C_17 
REMARK    7  A    between atoms: C_28  and  C_27 
ROOT
ATOM      1  C   UNL d   1     -44.915  11.799  22.910  0.00  0.00     0.191 A 
ATOM      2  C   UNL d   1     -45.622  11.472  23.185  0.00  0.00     0.174 A 
ATOM      3  N   UNL d   1     -45.039  12.597  22.712  0.00  0.00    -0.042 NA
ATOM      4  C   UNL d   1     -45.846  12.755  22.874  0.00  0.00     0.722 A 
ATOM      5  N   UNL d   1     -46.206  12.081  23.160  0.00  0.00    -0.136 N 
ATOM      6  N   UNL d   1     -44.214  11.323  22.867  0.00  0.00    -0.239 N 
ATOM      7  C   UNL d   1     -44.264  10.503  23.115  0.00  0.00     0.358 A 
ATOM      8  N   UNL d   1     -44.988  10.210  23.385  0.00  0.00    -0.152 NA
ATOM      9  C   UNL d   1     -45.674  10.706  23.418  0.00  0.00     0.303 A 
ATOM     10  O   UNL d   1     -43.589  10.002  23.086  0.00  0.00    -0.244 OA
ATOM     11  O   UNL d   1     -46.392  10.374  23.698  0.00  0.00    -0.263 OA
ATOM     12  C   UNL d   1     -43.500  11.639  22.593  0.00  0.00     0.105 C 
ENDROOT
BRANCH   5  13
ATOM     13  C   UNL d   1     -46.997  12.155  23.341  0.00  0.00     0.072 C 
BRANCH  13  14
ATOM     14  C   UNL d   1     -47.557  11.761  22.864  0.00  0.00     0.052 C 
ATOM     15  C   UNL d   1     -47.941  11.888  23.583  0.00  0.00     0.007 C 
BRANCH  14  16
ATOM     16  C   UNL d   1     -48.307  11.590  23.163  0.00  0.00     0.071 C 
BRANCH  16  17
ATOM     17  S   UNL d   1     -48.972  11.937  22.848  0.00  0.00    -0.073 SA
BRANCH  17  18
ATOM     18  C   UNL d   1     -49.725  11.718  23.103  0.00  0.00     0.215 A 
ATOM     19  N   UNL d   1     -50.430  12.107  22.927  0.00  0.00    -0.186 N 
ATOM     20  N   UNL d   1     -51.045  11.706  23.292  0.00  0.00    -0.038 NA
ATOM     21  N   UNL d   1     -50.723  11.064  23.698  0.00  0.00    -0.022 NA
ATOM     22  N   UNL d   1     -49.906  11.073  23.580  0.00  0.00    -0.101 NA
BRANCH  19  23
ATOM     23  C   UNL d   1     -50.504  12.784  22.462  0.00  0.00     0.087 A 
ATOM     24  C   UNL d   1     -50.685  13.503  22.821  0.00  0.00     0.019 A 
ATOM     25  C   UNL d   1     -50.759  14.181  22.356  0.00  0.00     0.002 A 
ATOM     26  C   UNL d   1     -50.653  14.138  21.538  0.00  0.00     0.000 A 
ATOM     27  C   UNL d   1     -50.471  13.409  21.186  0.00  0.00     0.002 A 
ATOM     28  C   UNL d   1     -50.397  12.732  21.651  0.00  0.00     0.019 A 
ENDBRANCH  19  23
ENDBRANCH  17  18
ENDBRANCH  16  17
ENDBRANCH  14  16
ENDBRANCH  13  14
ENDBRANCH   5  13
BRANCH   4  29
ATOM     29  N   UNL d   1     -46.224  13.481  22.762  0.00  0.00    -0.136 N 
ATOM     30  C   UNL d   1     -46.292  13.797  21.998  0.00  0.00     0.117 A 
ATOM     31  C   UNL d   1     -46.671  14.523  21.898  0.00  0.00     0.100 A 
ATOM     32  N   UNL d   1     -46.982  14.935  22.550  0.00  0.00    -0.299 N 
ATOM     33  C   UNL d   1     -46.906  14.608  23.303  0.00  0.00     0.100 A 
ATOM     34  C   UNL d   1     -47.360  15.662  22.438  0.00  0.00     0.100 C 
ATOM     35  C   UNL d   1     -46.530  13.886  23.416  0.00  0.00     0.117 A 
ENDBRANCH   4  29
TORSDOF 7
ENDMDL
MODEL 2
REMARK VINA RESULT:      -2.5      4.751      6.875
REMARK  7 active torsions:
REMARK  status: ('A' for Active; 'I' for Inactive)
REMARK    1  A    between atoms: N_15  and  C_4 
REMARK    2  A    between atoms: C_17  and  N_5 
REMARK    3  A    between atoms: C_19  and  N_10 
REMARK    4  A    between atoms: C_11  and  S_16 
REMARK    5  A    between atoms: S_16  and  C_28 
REMARK    6  A    between atoms: C_27  and  C_17 
REMARK    7  A    between atoms: C_28  and  C_27 
ROOT
ATOM      1  C   UNL d   1     -40.331  15.062  19.102  0.00  0.00     0.191 A 
ATOM      2  C   UNL d   1     -40.829  14.474  19.399  0.00  0.00     0.174 A 
ATOM      3  N   UNL d   1     -39.898  15.398  19.729  0.00  0.00    -0.042 NA
ATOM      4  C   UNL d   1     -40.144  14.998  20.422  0.00  0.00     0.722 A 
ATOM      5  N   UNL d   1     -40.706  14.438  20.233  0.00  0.00    -0.136 N 
ATOM      6  N   UNL d   1     -40.323  15.236  18.272  0.00  0.00    -0.239 N 
ATOM      7  C   UNL d   1     -40.842  14.786  17.758  0.00  0.00     0.358 A 
ATOM      8  N   UNL d   1     -41.327  14.205  18.089  0.00  0.00    -0.152 NA
ATOM      9  C   UNL d   1     -41.317  14.050  18.921  0.00  0.00     0.303 A 
ATOM     10  O   UNL d   1     -40.861  14.932  16.930  0.00  0.00    -0.244 OA
ATOM     11  O   UNL d   1     -41.823  13.452  19.223  0.00  0.00    -0.263 OA
ATOM     12  C   UNL d   1     -39.829  15.823  17.963  0.00  0.00     0.105 C 
ENDROOT
BRANCH   5  13
ATOM     13  C   UNL d   1     -40.996  14.005  20.859  0.00  0.00     0.072 C 
BRANCH  13  14
ATOM     14  C   UNL d   1     -41.797  13.771  20.849  0.00  0.00     0.052 C 
ATOM     15  C   UNL d   1     -41.454  13.328  21.454  0.00  0.00     0.007 C 
BRANCH  14  16
ATOM     16  C   UNL d   1     -42.069  13.205  21.384  0.00  0.00     0.071 C 
BRANCH  16  17
ATOM     17  S   UNL d   1     -42.866  13.089  21.501  0.00  0.00    -0.073 SA
BRANCH  17  18
ATOM     18  C   UNL d   1     -43.142  12.435  21.920  0.00  0.00     0.215 A 
ATOM     19  N   UNL d   1     -43.916  12.311  22.175  0.00  0.00    -0.186 N 
ATOM     20  N   UNL d   1     -43.947  11.593  22.569  0.00  0.00    -0.038 NA
ATOM     21  N   UNL d   1     -43.189  11.267  22.561  0.00  0.00    -0.022 NA
ATOM     22  N   UNL d   1     -42.692  11.789  22.159  0.00  0.00    -0.101 NA
BRANCH  19  23
ATOM     23  C   UNL d   1     -44.551  12.822  22.053  0.00  0.00     0.087 A 
ATOM     24  C   UNL d   1     -45.079  12.674  21.438  0.00  0.00     0.019 A 
ATOM     25  C   UNL d   1     -45.714  13.185  21.317  0.00  0.00     0.002 A 
ATOM     26  C   UNL d   1     -45.820  13.842  21.807  0.00  0.00     0.000 A 
ATOM     27  C   UNL d   1     -45.283  13.983  22.423  0.00  0.00     0.002 A 
ATOM     28  C   UNL d   1     -44.648  13.471  22.545  0.00  0.00     0.019 A 
ENDBRANCH  19  23
ENDBRANCH  17  18
ENDBRANCH  16  17
ENDBRANCH  14  16
ENDBRANCH  13  14
ENDBRANCH   5  13
BRANCH   4  29
ATOM     29  N   UNL d   1     -39.862  15.145  21.185  0.00  0.00    -0.136 N 
ATOM     30  C   UNL d   1     -39.272  14.660  21.507  0.00  0.00     0.117 A 
ATOM     31  C   UNL d   1     -38.998  14.816  22.270  0.00  0.00     0.100 A 
ATOM     32  N   UNL d   1     -39.306  15.448  22.712  0.00  0.00    -0.299 N 
ATOM     33  C   UNL d   1     -39.894  15.922  22.379  0.00  0.00     0.100 A 
ATOM     34  C   UNL d   1     -39.025  15.595  23.476  0.00  0.00     0.100 C 
ATOM     35  C   UNL d   1     -40.174  15.776  21.620  0.00  0.00     0.117 A 
ENDBRANCH   4  29
TORSDOF 7
ENDMDL
