MODEL 1
REMARK VINA RESULT:      30.0      0.000      0.000
REMARK  5 active torsions:
REMARK  status: ('A' for Active; 'I' for Inactive)
REMARK    1  A    between atoms: C_7  and  C_1 
REMARK    2  A    between atoms: C_5  and  S_14 
REMARK       I    between atoms: N_13  and  C_7 
REMARK    3  A    between atoms: C_18  and  N_13 
REMARK    4  A    between atoms: S_14  and  C_19 
REMARK    5  A    between atoms: C_19  and  C_18 
ROOT
ATOM      1  C   UNL d   1     -55.775 -98.773 -44.043  0.00  0.00     0.056 C 
ENDROOT
BRANCH   1   2
ATOM      2  S   UNL d   1     -55.297 -99.378 -44.358  0.00  0.00    -0.083 SA
BRANCH   2   3
ATOM      3  C   UNL d   1     -55.101-100.037 -43.890  0.00  0.00     0.050 A 
ATOM      4  C   UNL d   1     -55.034-100.811 -44.161  0.00  0.00     0.025 A 
ATOM      5  C   UNL d   1     -54.830-101.290 -43.510  0.00  0.00     0.082 A 
ATOM      6  C   UNL d   1     -55.128-101.153 -44.910  0.00  0.00     0.002 A 
ATOM      7  C   UNL d   1     -54.723-102.103 -43.611  0.00  0.00     0.019 A 
ATOM      8  N   UNL d   1     -54.776-100.798 -42.845  0.00  0.00    -0.243 NA
ATOM      9  C   UNL d   1     -54.818-102.437 -44.358  0.00  0.00     0.002 A 
ATOM     10  C   UNL d   1     -55.023-101.957 -45.012  0.00  0.00     0.000 A 
ATOM     11  C   UNL d   1     -54.943-100.028 -43.081  0.00  0.00     0.105 A 
ENDBRANCH   2   3
ENDBRANCH   1   2
BRANCH   1  12
ATOM     12  C   UNL d   1     -56.585 -98.765 -44.202  0.00  0.00     0.109 C 
BRANCH  12  13
ATOM     13  N   UNL d   1     -56.855 -98.772 -44.995  0.00  0.00    -0.204 NA
ATOM     14  C   UNL d   1     -57.662 -98.805 -45.157  0.00  0.00     0.302 C 
ATOM     15  O   UNL d   1     -57.923 -98.812 -45.940  0.00  0.00    -0.263 OA
BRANCH  14  16
ATOM     16  C   UNL d   1     -58.212 -98.831 -44.531  0.00  0.00     0.158 A 
ATOM     17  O   UNL d   1     -58.122 -98.921 -43.714  0.00  0.00    -0.296 OA
ATOM     18  C   UNL d   1     -58.873 -98.904 -43.375  0.00  0.00     0.134 A 
ATOM     19 BR   UNL d   1     -59.045 -98.975 -42.563  0.00  0.00    -0.022 Br
ATOM     20  C   UNL d   1     -59.427 -98.803 -43.975  0.00  0.00     0.034 A 
ATOM     21  C   UNL d   1     -59.018 -98.758 -44.688  0.00  0.00     0.032 A 
ENDBRANCH  14  16
ENDBRANCH  12  13
ENDBRANCH   1  12
TORSDOF 5
ENDMDL
