MODEL 1
REMARK VINA RESULT:      19.2      0.000      0.000
REMARK  4 active torsions:
REMARK  status: ('A' for Active; 'I' for Inactive)
REMARK    1  A    between atoms: C_2  and  C_1 
REMARK    2  A    between atoms: C_3  and  C_1 
REMARK    3  A    between atoms: C_9  and  C_1 
REMARK    4  A    between atoms: N_4  and  C_10 
ROOT
ATOM      1  C   UNL d   1     -42.093-122.153 -51.655  0.00  0.00     0.012 C 
ENDROOT
BRANCH   1   2
ATOM      2  C   UNL d   1     -41.915-121.359 -51.811  0.00  0.00     0.077 A 
ATOM      3  C   UNL d   1     -42.217-120.991 -52.488  0.00  0.00     0.195 A 
ATOM      4  C   UNL d   1     -42.040-120.199 -52.645  0.00  0.00     0.019 A 
ATOM      5  O   UNL d   1     -42.700-121.423 -53.009  0.00  0.00    -0.287 OA
ATOM      6  C   UNL d   1     -41.556-119.770 -52.121  0.00  0.00     0.043 A 
ATOM      7  C   UNL d   1     -41.259-120.144 -51.448  0.00  0.00     0.019 A 
ATOM      8  C   UNL d   1     -41.124-119.171 -51.771  0.00  0.00     0.009 C 
ATOM      9  C   UNL d   1     -41.772-119.271 -52.735  0.00  0.00     0.009 C 
ATOM     10  C   UNL d   1     -41.430-120.931 -51.284  0.00  0.00     0.195 A 
ATOM     11  O   UNL d   1     -41.123-121.297 -50.600  0.00  0.00    -0.287 OA
ENDBRANCH   1   2
BRANCH   1  12
ATOM     12  C   UNL d   1     -42.443-122.529 -51.012  0.00  0.00     0.077 A 
ATOM     13  C   UNL d   1     -42.002-123.028 -50.528  0.00  0.00     0.195 A 
ATOM     14  C   UNL d   1     -42.334-123.407 -49.889  0.00  0.00     0.019 A 
ATOM     15  O   UNL d   1     -41.208-123.147 -50.697  0.00  0.00    -0.287 OA
ATOM     16  C   UNL d   1     -43.136-123.283 -49.725  0.00  0.00     0.043 A 
ATOM     17  C   UNL d   1     -43.601-122.784 -50.198  0.00  0.00     0.019 A 
ATOM     18  C   UNL d   1     -42.905-123.799 -49.134  0.00  0.00     0.009 C 
ATOM     19  C   UNL d   1     -43.913-123.277 -49.414  0.00  0.00     0.009 C 
ATOM     20  C   UNL d   1     -43.242-122.406 -50.847  0.00  0.00     0.195 A 
ATOM     21  O   UNL d   1     -43.711-121.909 -51.316  0.00  0.00    -0.287 OA
ENDBRANCH   1  12
BRANCH   1  22
ATOM     22  C   UNL d   1     -41.892-122.688 -52.242  0.00  0.00     0.002 A 
ATOM     23  C   UNL d   1     -42.273-122.644 -52.980  0.00  0.00     0.024 A 
ATOM     24  C   UNL d   1     -42.071-123.179 -53.567  0.00  0.00     0.127 A 
ATOM     25  C   UNL d   1     -41.489-123.758 -53.415  0.00  0.00     0.024 A 
ATOM     26  C   UNL d   1     -41.123-123.795 -52.696  0.00  0.00     0.002 A 
ATOM     27  C   UNL d   1     -41.327-123.252 -52.101  0.00  0.00     0.000 A 
BRANCH  24  28
ATOM     28  N   UNL d   1     -42.458-123.129 -54.304  0.00  0.00    -0.114 N 
ATOM     29  O   UNL d   1     -42.589-122.405 -54.657  0.00  0.00    -0.532 OA
ATOM     30  O   UNL d   1     -42.718-123.815 -54.697  0.00  0.00    -0.532 OA
ENDBRANCH  24  28
ENDBRANCH   1  22
TORSDOF 4
ENDMDL
MODEL 2
REMARK VINA RESULT:      21.9      1.855      3.942
REMARK  4 active torsions:
REMARK  status: ('A' for Active; 'I' for Inactive)
REMARK    1  A    between atoms: C_2  and  C_1 
REMARK    2  A    between atoms: C_3  and  C_1 
REMARK    3  A    between atoms: C_9  and  C_1 
REMARK    4  A    between atoms: N_4  and  C_10 
ROOT
ATOM      1  C   UNL d   1     -42.654-122.569 -50.731  0.00  0.00     0.012 C 
ENDROOT
BRANCH   1   2
ATOM      2  C   UNL d   1     -43.425-122.407 -50.475  0.00  0.00     0.077 A 
ATOM      3  C   UNL d   1     -43.945-123.028 -50.306  0.00  0.00     0.195 A 
ATOM      4  C   UNL d   1     -44.714-122.868 -50.051  0.00  0.00     0.019 A 
ATOM      5  O   UNL d   1     -43.688-123.813 -50.395  0.00  0.00    -0.287 OA
ATOM      6  C   UNL d   1     -44.967-122.079 -49.963  0.00  0.00     0.043 A 
ATOM      7  C   UNL d   1     -44.443-121.466 -50.133  0.00  0.00     0.019 A 
ATOM      8  C   UNL d   1     -45.423-121.419 -49.809  0.00  0.00     0.009 C 
ATOM      9  C   UNL d   1     -45.591-122.572 -49.759  0.00  0.00     0.009 C 
ATOM     10  C   UNL d   1     -43.675-121.616 -50.388  0.00  0.00     0.195 A 
ATOM     11  O   UNL d   1     -43.155-120.986 -50.557  0.00  0.00    -0.287 OA
ENDBRANCH   1   2
BRANCH   1  12
ATOM     12  C   UNL d   1     -42.280-122.488 -51.460  0.00  0.00     0.077 A 
ATOM     13  C   UNL d   1     -42.269-123.112 -51.997  0.00  0.00     0.195 A 
ATOM     14  C   UNL d   1     -41.904-123.046 -52.722  0.00  0.00     0.019 A 
ATOM     15  O   UNL d   1     -42.636-123.817 -51.795  0.00  0.00    -0.287 OA
ATOM     16  C   UNL d   1     -41.536-122.331 -52.919  0.00  0.00     0.043 A 
ATOM     17  C   UNL d   1     -41.534-121.687 -52.394  0.00  0.00     0.019 A 
ATOM     18  C   UNL d   1     -41.405-122.794 -53.580  0.00  0.00     0.009 C 
ATOM     19  C   UNL d   1     -41.123-121.700 -53.281  0.00  0.00     0.009 C 
ATOM     20  C   UNL d   1     -41.913-121.776 -51.658  0.00  0.00     0.195 A 
ATOM     21  O   UNL d   1     -41.908-121.131 -51.138  0.00  0.00    -0.287 OA
ENDBRANCH   1  12
BRANCH   1  22
ATOM     22  C   UNL d   1     -42.144-122.870 -50.166  0.00  0.00     0.002 A 
ATOM     23  C   UNL d   1     -42.133-122.531 -49.406  0.00  0.00     0.024 A 
ATOM     24  C   UNL d   1     -41.623-122.832 -48.840  0.00  0.00     0.127 A 
ATOM     25  C   UNL d   1     -41.123-123.472 -49.034  0.00  0.00     0.024 A 
ATOM     26  C   UNL d   1     -41.138-123.796 -49.773  0.00  0.00     0.002 A 
ATOM     27  C   UNL d   1     -41.655-123.491 -50.347  0.00  0.00     0.000 A 
BRANCH  24  28
ATOM     28  N   UNL d   1     -41.619-122.487 -48.081  0.00  0.00    -0.114 N 
ATOM     29  O   UNL d   1     -41.217-121.790 -47.942  0.00  0.00    -0.532 OA
ATOM     30  O   UNL d   1     -42.024-122.845 -47.447  0.00  0.00    -0.532 OA
ENDBRANCH  24  28
ENDBRANCH   1  22
TORSDOF 4
ENDMDL
MODEL 3
REMARK VINA RESULT:      22.0      0.505      3.084
REMARK  4 active torsions:
REMARK  status: ('A' for Active; 'I' for Inactive)
REMARK    1  A    between atoms: C_2  and  C_1 
REMARK    2  A    between atoms: C_3  and  C_1 
REMARK    3  A    between atoms: C_9  and  C_1 
REMARK    4  A    between atoms: N_4  and  C_10 
ROOT
ATOM      1  C   UNL d   1     -42.187-122.056 -51.548  0.00  0.00     0.012 C 
ENDROOT
BRANCH   1   2
ATOM      2  C   UNL d   1     -42.627-122.344 -50.908  0.00  0.00     0.077 A 
ATOM      3  C   UNL d   1     -43.436-122.492 -50.994  0.00  0.00     0.195 A 
ATOM      4  C   UNL d   1     -43.876-122.780 -50.356  0.00  0.00     0.019 A 
ATOM      5  O   UNL d   1     -43.804-122.350 -51.725  0.00  0.00    -0.287 OA
ATOM      6  C   UNL d   1     -43.504-122.921 -49.624  0.00  0.00     0.043 A 
ATOM      7  C   UNL d   1     -42.697-122.771 -49.547  0.00  0.00     0.019 A 
ATOM      8  C   UNL d   1     -43.367-123.128 -48.846  0.00  0.00     0.009 C 
ATOM      9  C   UNL d   1     -44.298-123.115 -49.548  0.00  0.00     0.009 C 
ATOM     10  C   UNL d   1     -42.251-122.485 -50.177  0.00  0.00     0.195 A 
ATOM     11  O   UNL d   1     -41.435-122.337 -50.084  0.00  0.00    -0.287 OA
ENDBRANCH   1   2
BRANCH   1  12
ATOM     12  C   UNL d   1     -41.999-121.294 -51.796  0.00  0.00     0.077 A 
ATOM     13  C   UNL d   1     -42.329-120.983 -52.482  0.00  0.00     0.195 A 
ATOM     14  C   UNL d   1     -42.152-120.231 -52.740  0.00  0.00     0.019 A 
ATOM     15  O   UNL d   1     -42.850-121.443 -52.917  0.00  0.00    -0.287 OA
ATOM     16  C   UNL d   1     -41.625-119.772 -52.296  0.00  0.00     0.043 A 
ATOM     17  C   UNL d   1     -41.279-120.064 -51.599  0.00  0.00     0.019 A 
ATOM     18  C   UNL d   1     -41.823-119.277 -52.916  0.00  0.00     0.009 C 
ATOM     19  C   UNL d   1     -41.126-119.178 -51.983  0.00  0.00     0.009 C 
ATOM     20  C   UNL d   1     -41.474-120.835 -51.354  0.00  0.00     0.195 A 
ATOM     21  O   UNL d   1     -41.125-121.122 -50.659  0.00  0.00    -0.287 OA
ENDBRANCH   1  12
BRANCH   1  22
ATOM     22  C   UNL d   1     -41.867-122.621 -52.047  0.00  0.00     0.002 A 
ATOM     23  C   UNL d   1     -41.977-122.547 -52.869  0.00  0.00     0.024 A 
ATOM     24  C   UNL d   1     -41.657-123.112 -53.368  0.00  0.00     0.127 A 
ATOM     25  C   UNL d   1     -41.227-123.752 -53.046  0.00  0.00     0.024 A 
ATOM     26  C   UNL d   1     -41.124-123.817 -52.248  0.00  0.00     0.002 A 
ATOM     27  C   UNL d   1     -41.449-123.244 -51.741  0.00  0.00     0.000 A 
BRANCH  24  28
ATOM     28  N   UNL d   1     -41.772-123.031 -54.190  0.00  0.00    -0.114 N 
ATOM     29  O   UNL d   1     -42.257-122.446 -54.487  0.00  0.00    -0.532 OA
ATOM     30  O   UNL d   1     -41.394-123.544 -54.726  0.00  0.00    -0.532 OA
ENDBRANCH  24  28
ENDBRANCH   1  22
TORSDOF 4
ENDMDL
