MODEL 1
REMARK VINA RESULT:      -5.4      0.000      0.000
REMARK  4 active torsions:
REMARK  status: ('A' for Active; 'I' for Inactive)
REMARK    1  A    between atoms: C_2  and  C_1 
REMARK    2  A    between atoms: C_3  and  C_1 
REMARK       I    between atoms: N_6  and  C_2 
REMARK    3  A    between atoms: C_13  and  C_3 
REMARK    4  A    between atoms: C_8  and  N_6 
ROOT
ATOM      1  C   UNL d   1      57.770   0.429  31.016  0.00  0.00     0.282 C 
ATOM      2  N   UNL d   1      57.708   0.116  30.221  0.00  0.00    -0.208 NA
ATOM      3  O   UNL d   1      58.511   0.611  31.337  0.00  0.00    -0.265 OA
ENDROOT
BRANCH   1   4
ATOM      4  C   UNL d   1      57.091   0.546  31.455  0.00  0.00     0.104 C 
BRANCH   4   5
ATOM      5  C   UNL d   1      57.107   0.406  32.275  0.00  0.00     0.200 C 
ATOM      6  O   UNL d   1      57.797   0.542  32.709  0.00  0.00    -0.286 OA
BRANCH   5   7
ATOM      7  C   UNL d   1      56.429   0.131  32.646  0.00  0.00     0.039 A 
ATOM      8  C   UNL d   1      55.854   0.665  32.903  0.00  0.00     0.003 A 
ATOM      9  C   UNL d   1      55.174   0.378  33.277  0.00  0.00     0.000 A 
ATOM     10  C   UNL d   1      55.074  -0.427  33.389  0.00  0.00     0.000 A 
ATOM     11  C   UNL d   1      55.657  -0.964  33.128  0.00  0.00     0.000 A 
ATOM     12  C   UNL d   1      56.336  -0.687  32.756  0.00  0.00     0.003 A 
ENDBRANCH   5   7
ENDBRANCH   4   5
ENDBRANCH   1   4
BRANCH   2  13
ATOM     13  C   UNL d   1      58.418   0.001  29.780  0.00  0.00     0.087 A 
ATOM     14  C   UNL d   1      58.762  -0.732  29.742  0.00  0.00     0.046 A 
ATOM     15  C   UNL d   1      59.438  -0.841  29.322  0.00  0.00     0.124 A 
ATOM     16  O   UNL d   1      59.801  -1.590  29.276  0.00  0.00    -0.301 OA
ATOM     17  C   UNL d   1      59.788  -0.201  28.925  0.00  0.00     0.123 A 
ATOM     18  C   UNL d   1      60.483  -1.705  28.854  0.00  0.00     0.149 A 
ATOM     19  C   UNL d   1      60.833  -1.065  28.456  0.00  0.00     0.149 A 
ATOM     20  O   UNL d   1      60.498  -0.316  28.484  0.00  0.00    -0.301 OA
ATOM     21  C   UNL d   1      59.460   0.542  28.950  0.00  0.00     0.028 A 
ATOM     22  C   UNL d   1      58.769   0.641  29.382  0.00  0.00     0.021 A 
ENDBRANCH   2  13
TORSDOF 4
ENDMDL
MODEL 2
REMARK VINA RESULT:      -4.5      1.279      5.084
REMARK  4 active torsions:
REMARK  status: ('A' for Active; 'I' for Inactive)
REMARK    1  A    between atoms: C_2  and  C_1 
REMARK    2  A    between atoms: C_3  and  C_1 
REMARK       I    between atoms: N_6  and  C_2 
REMARK    3  A    between atoms: C_13  and  C_3 
REMARK    4  A    between atoms: C_8  and  N_6 
ROOT
ATOM      1  C   UNL d   1      57.724   0.424  30.960  0.00  0.00     0.282 C 
ATOM      2  N   UNL d   1      57.834   0.058  31.727  0.00  0.00    -0.208 NA
ATOM      3  O   UNL d   1      56.966   0.632  30.701  0.00  0.00    -0.265 OA
ENDROOT
BRANCH   1   4
ATOM      4  C   UNL d   1      58.375   0.567  30.488  0.00  0.00     0.104 C 
BRANCH   4   5
ATOM      5  C   UNL d   1      58.349   0.355  29.684  0.00  0.00     0.200 C 
ATOM      6  O   UNL d   1      57.687   0.540  29.224  0.00  0.00    -0.286 OA
BRANCH   5   7
ATOM      7  C   UNL d   1      58.988  -0.040  29.354  0.00  0.00     0.039 A 
ATOM      8  C   UNL d   1      59.757   0.165  29.573  0.00  0.00     0.003 A 
ATOM      9  C   UNL d   1      60.395  -0.238  29.235  0.00  0.00     0.000 A 
ATOM     10  C   UNL d   1      60.262  -0.834  28.688  0.00  0.00     0.000 A 
ATOM     11  C   UNL d   1      59.483  -1.038  28.469  0.00  0.00     0.000 A 
ATOM     12  C   UNL d   1      58.843  -0.642  28.801  0.00  0.00     0.003 A 
ENDBRANCH   5   7
ENDBRANCH   4   5
ENDBRANCH   1   4
BRANCH   2  13
ATOM     13  C   UNL d   1      57.152  -0.084  32.204  0.00  0.00     0.087 A 
ATOM     14  C   UNL d   1      57.016   0.363  32.866  0.00  0.00     0.046 A 
ATOM     15  C   UNL d   1      56.368   0.229  33.320  0.00  0.00     0.124 A 
ATOM     16  O   UNL d   1      56.216   0.682  34.003  0.00  0.00    -0.301 OA
ATOM     17  C   UNL d   1      55.832  -0.371  33.111  0.00  0.00     0.123 A 
ATOM     18  C   UNL d   1      55.563   0.550  34.464  0.00  0.00     0.149 A 
ATOM     19  C   UNL d   1      55.027  -0.050  34.255  0.00  0.00     0.149 A 
ATOM     20  O   UNL d   1      55.150  -0.513  33.588  0.00  0.00    -0.301 OA
ATOM     21  C   UNL d   1      55.950  -0.831  32.451  0.00  0.00     0.028 A 
ATOM     22  C   UNL d   1      56.616  -0.684  31.996  0.00  0.00     0.021 A 
ENDBRANCH   2  13
TORSDOF 4
ENDMDL
MODEL 3
REMARK VINA RESULT:      -4.1      0.996      1.334
REMARK  4 active torsions:
REMARK  status: ('A' for Active; 'I' for Inactive)
REMARK    1  A    between atoms: C_2  and  C_1 
REMARK    2  A    between atoms: C_3  and  C_1 
REMARK       I    between atoms: N_6  and  C_2 
REMARK    3  A    between atoms: C_13  and  C_3 
REMARK    4  A    between atoms: C_8  and  N_6 
ROOT
ATOM      1  C   UNL d   1      57.115  -0.080  31.915  0.00  0.00     0.282 C 
ATOM      2  N   UNL d   1      57.031  -0.598  31.237  0.00  0.00    -0.208 NA
ATOM      3  O   UNL d   1      57.734   0.467  31.948  0.00  0.00    -0.265 OA
ENDROOT
BRANCH   1   4
ATOM      4  C   UNL d   1      56.577  -0.133  32.528  0.00  0.00     0.104 C 
BRANCH   4   5
ATOM      5  C   UNL d   1      56.702   0.314  33.218  0.00  0.00     0.200 C 
ATOM      6  O   UNL d   1      57.448   0.633  33.381  0.00  0.00    -0.286 OA
BRANCH   5   7
ATOM      7  C   UNL d   1      56.077   0.433  33.736  0.00  0.00     0.039 A 
ATOM      8  C   UNL d   1      55.303   0.450  33.449  0.00  0.00     0.003 A 
ATOM      9  C   UNL d   1      54.678   0.571  33.978  0.00  0.00     0.000 A 
ATOM     10  C   UNL d   1      54.829   0.674  34.777  0.00  0.00     0.000 A 
ATOM     11  C   UNL d   1      55.613   0.656  35.062  0.00  0.00     0.000 A 
ATOM     12  C   UNL d   1      56.240   0.536  34.544  0.00  0.00     0.003 A 
ENDBRANCH   5   7
ENDBRANCH   4   5
ENDBRANCH   1   4
BRANCH   2  13
ATOM     13  C   UNL d   1      57.594  -0.532  30.611  0.00  0.00     0.087 A 
ATOM     14  C   UNL d   1      58.026  -1.177  30.380  0.00  0.00     0.046 A 
ATOM     15  C   UNL d   1      58.561  -1.115  29.785  0.00  0.00     0.124 A 
ATOM     16  O   UNL d   1      59.012  -1.771  29.538  0.00  0.00    -0.301 OA
ATOM     17  C   UNL d   1      58.675  -0.386  29.404  0.00  0.00     0.123 A 
ATOM     18  C   UNL d   1      59.554  -1.713  28.938  0.00  0.00     0.149 A 
ATOM     19  C   UNL d   1      59.667  -0.983  28.557  0.00  0.00     0.149 A 
ATOM     20  O   UNL d   1      59.238  -0.320  28.778  0.00  0.00    -0.301 OA
ATOM     21  C   UNL d   1      58.252   0.274  29.620  0.00  0.00     0.028 A 
ATOM     22  C   UNL d   1      57.707   0.197  30.229  0.00  0.00     0.021 A 
ENDBRANCH   2  13
TORSDOF 4
ENDMDL
MODEL 4
REMARK VINA RESULT:      -3.1      1.255      5.136
REMARK  4 active torsions:
REMARK  status: ('A' for Active; 'I' for Inactive)
REMARK    1  A    between atoms: C_2  and  C_1 
REMARK    2  A    between atoms: C_3  and  C_1 
REMARK       I    between atoms: N_6  and  C_2 
REMARK    3  A    between atoms: C_13  and  C_3 
REMARK    4  A    between atoms: C_8  and  N_6 
ROOT
ATOM      1  C   UNL d   1      57.792  -1.022  30.750  0.00  0.00     0.282 C 
ATOM      2  N   UNL d   1      57.149  -1.360  31.205  0.00  0.00    -0.208 NA
ATOM      3  O   UNL d   1      58.000  -0.227  30.847  0.00  0.00    -0.265 OA
ENDROOT
BRANCH   1   4
ATOM      4  C   UNL d   1      58.198  -1.493  30.219  0.00  0.00     0.104 C 
BRANCH   4   5
ATOM      5  C   UNL d   1      58.596  -1.137  29.582  0.00  0.00     0.200 C 
ATOM      6  O   UNL d   1      58.385  -0.380  29.326  0.00  0.00    -0.286 OA
BRANCH   5   7
ATOM      7  C   UNL d   1      59.203  -1.547  29.211  0.00  0.00     0.039 A 
ATOM      8  C   UNL d   1      59.857  -1.138  28.917  0.00  0.00     0.003 A 
ATOM      9  C   UNL d   1      60.463  -1.560  28.544  0.00  0.00     0.000 A 
ATOM     10  C   UNL d   1      60.412  -2.374  28.469  0.00  0.00     0.000 A 
ATOM     11  C   UNL d   1      59.749  -2.783  28.767  0.00  0.00     0.000 A 
ATOM     12  C   UNL d   1      59.142  -2.372  29.139  0.00  0.00     0.003 A 
ENDBRANCH   5   7
ENDBRANCH   4   5
ENDBRANCH   1   4
BRANCH   2  13
ATOM     13  C   UNL d   1      56.739  -0.861  31.750  0.00  0.00     0.087 A 
ATOM     14  C   UNL d   1      56.389  -1.176  32.409  0.00  0.00     0.046 A 
ATOM     15  C   UNL d   1      56.000  -0.702  32.927  0.00  0.00     0.124 A 
ATOM     16  O   UNL d   1      55.636  -1.014  33.609  0.00  0.00    -0.301 OA
ATOM     17  C   UNL d   1      55.954   0.116  32.787  0.00  0.00     0.123 A 
ATOM     18  C   UNL d   1      55.242  -0.539  34.134  0.00  0.00     0.149 A 
ATOM     19  C   UNL d   1      55.196   0.279  33.995  0.00  0.00     0.149 A 
ATOM     20  O   UNL d   1      55.545   0.614  33.332  0.00  0.00    -0.301 OA
ATOM     21  C   UNL d   1      56.298   0.452  32.132  0.00  0.00     0.028 A 
ATOM     22  C   UNL d   1      56.694  -0.043  31.610  0.00  0.00     0.021 A 
ENDBRANCH   2  13
TORSDOF 4
ENDMDL
