MODEL 1
REMARK VINA RESULT:      -2.0      0.000      0.000
REMARK  5 active torsions:
REMARK  status: ('A' for Active; 'I' for Inactive)
REMARK    1  A    between atoms: C_6  and  C_1 
REMARK       I    between atoms: C_7  and  N_8 
REMARK    2  A    between atoms: C_16  and  C_7 
REMARK    3  A    between atoms: N_8  and  C_14 
REMARK    4  A    between atoms: O_15  and  C_16 
REMARK    5  A    between atoms: C_21  and  O_15 
ROOT
ATOM      1  C   UNL d   1      33.221  20.861 -20.957  0.00  0.00     0.024 A 
ATOM      2  C   UNL d   1      33.225  20.079 -20.699  0.00  0.00     0.004 A 
ATOM      3  C   UNL d   1      33.223  21.067 -21.736  0.00  0.00     0.004 A 
ATOM      4  C   UNL d   1      33.234  19.665 -22.084  0.00  0.00     0.085 A 
ATOM      5  C   UNL d   1      33.230  20.465 -22.328  0.00  0.00     0.019 A 
ATOM      6  C   UNL d   1      33.231  19.478 -21.292  0.00  0.00     0.019 A 
ENDROOT
BRANCH   4   7
ATOM      7  N   UNL d   1      33.241  19.037 -22.702  0.00  0.00    -0.206 NA
ATOM      8  C   UNL d   1      32.500  18.825 -23.056  0.00  0.00     0.304 C 
ATOM      9  O   UNL d   1      31.789  19.171 -22.854  0.00  0.00    -0.263 OA
BRANCH   8  10
ATOM     10  C   UNL d   1      32.507  18.229 -23.643  0.00  0.00     0.185 C 
BRANCH  10  11
ATOM     11  O   UNL d   1      31.795  17.937 -23.924  0.00  0.00    -0.300 OA
BRANCH  11  12
ATOM     12  C   UNL d   1      31.769  17.162 -24.248  0.00  0.00     0.100 A 
ATOM     13  C   UNL d   1      31.141  16.655 -24.083  0.00  0.00     0.025 A 
ATOM     14  C   UNL d   1      31.116  15.906 -24.396  0.00  0.00     0.002 A 
ATOM     15  C   UNL d   1      31.719  15.644 -24.884  0.00  0.00     0.000 A 
ATOM     16  C   UNL d   1      32.354  16.141 -25.057  0.00  0.00     0.002 A 
ATOM     17  C   UNL d   1      32.379  16.891 -24.743  0.00  0.00     0.025 A 
ENDBRANCH  11  12
ENDBRANCH  10  11
ENDBRANCH   8  10
ENDBRANCH   4   7
BRANCH   1  18
ATOM     18  C   UNL d   1      33.214  21.457 -20.371  0.00  0.00     0.111 A 
ATOM     19  N   UNL d   1      33.190  22.250 -20.513  0.00  0.00    -0.239 NA
ATOM     20  C   UNL d   1      33.191  22.637 -19.803  0.00  0.00     0.088 A 
ATOM     21  C   UNL d   1      33.173  23.430 -19.588  0.00  0.00     0.020 A 
ATOM     22  C   UNL d   1      33.217  22.045 -19.201  0.00  0.00     0.049 A 
ATOM     23  C   UNL d   1      33.180  23.645 -18.810  0.00  0.00     0.002 A 
ATOM     24  C   UNL d   1      33.205  23.053 -18.208  0.00  0.00     0.001 A 
ATOM     25  C   UNL d   1      33.224  22.259 -18.398  0.00  0.00     0.008 A 
ATOM     26  C   UNL d   1      33.213  23.267 -17.405  0.00  0.00     0.000 C 
ATOM     27  S   UNL d   1      33.231  21.315 -19.562  0.00  0.00    -0.066 SA
ENDBRANCH   1  18
TORSDOF 5
ENDMDL
MODEL 2
REMARK VINA RESULT:      -1.9      0.664      1.001
REMARK  5 active torsions:
REMARK  status: ('A' for Active; 'I' for Inactive)
REMARK    1  A    between atoms: C_6  and  C_1 
REMARK       I    between atoms: C_7  and  N_8 
REMARK    2  A    between atoms: C_16  and  C_7 
REMARK    3  A    between atoms: N_8  and  C_14 
REMARK    4  A    between atoms: O_15  and  C_16 
REMARK    5  A    between atoms: C_21  and  O_15 
ROOT
ATOM      1  C   UNL d   1      33.128  20.767 -21.800  0.00  0.00     0.024 A 
ATOM      2  C   UNL d   1      33.039  20.010 -21.489  0.00  0.00     0.004 A 
ATOM      3  C   UNL d   1      33.217  20.911 -22.586  0.00  0.00     0.004 A 
ATOM      4  C   UNL d   1      33.134  19.491 -22.835  0.00  0.00     0.085 A 
ATOM      5  C   UNL d   1      33.223  20.267 -23.133  0.00  0.00     0.019 A 
ATOM      6  C   UNL d   1      33.045  19.366 -22.035  0.00  0.00     0.019 A 
ENDROOT
BRANCH   4   7
ATOM      7  N   UNL d   1      33.140  18.820 -23.404  0.00  0.00    -0.206 NA
ATOM      8  C   UNL d   1      32.399  18.446 -23.581  0.00  0.00     0.304 C 
ATOM      9  O   UNL d   1      31.689  18.677 -23.251  0.00  0.00    -0.263 OA
BRANCH   8  10
ATOM     10  C   UNL d   1      32.405  17.808 -24.122  0.00  0.00     0.185 C 
BRANCH  10  11
ATOM     11  O   UNL d   1      31.773  17.713 -24.634  0.00  0.00    -0.300 OA
BRANCH  11  12
ATOM     12  C   UNL d   1      31.436  16.949 -24.732  0.00  0.00     0.100 A 
ATOM     13  C   UNL d   1      31.892  16.318 -25.002  0.00  0.00     0.025 A 
ATOM     14  C   UNL d   1      31.566  15.579 -25.097  0.00  0.00     0.002 A 
ATOM     15  C   UNL d   1      30.775  15.453 -24.923  0.00  0.00     0.000 A 
ATOM     16  C   UNL d   1      30.309  16.077 -24.652  0.00  0.00     0.002 A 
ATOM     17  C   UNL d   1      30.635  16.816 -24.557  0.00  0.00     0.025 A 
ENDBRANCH  11  12
ENDBRANCH  10  11
ENDBRANCH   8  10
ENDBRANCH   4   7
BRANCH   1  18
ATOM     18  C   UNL d   1      33.122  21.404 -21.259  0.00  0.00     0.111 A 
ATOM     19  N   UNL d   1      33.121  22.185 -21.459  0.00  0.00    -0.239 NA
ATOM     20  C   UNL d   1      33.115  22.623 -20.779  0.00  0.00     0.088 A 
ATOM     21  C   UNL d   1      33.112  23.430 -20.623  0.00  0.00     0.020 A 
ATOM     22  C   UNL d   1      33.112  22.077 -20.135  0.00  0.00     0.049 A 
ATOM     23  C   UNL d   1      33.106  23.702 -19.864  0.00  0.00     0.002 A 
ATOM     24  C   UNL d   1      33.103  23.156 -19.220  0.00  0.00     0.001 A 
ATOM     25  C   UNL d   1      33.106  22.350 -19.350  0.00  0.00     0.008 A 
ATOM     26  C   UNL d   1      33.096  23.429 -18.435  0.00  0.00     0.000 C 
ATOM     27  S   UNL d   1      33.116  21.322 -20.442  0.00  0.00    -0.066 SA
ENDBRANCH   1  18
TORSDOF 5
ENDMDL
MODEL 3
REMARK VINA RESULT:      -1.7      1.631      6.578
REMARK  5 active torsions:
REMARK  status: ('A' for Active; 'I' for Inactive)
REMARK    1  A    between atoms: C_6  and  C_1 
REMARK       I    between atoms: C_7  and  N_8 
REMARK    2  A    between atoms: C_16  and  C_7 
REMARK    3  A    between atoms: N_8  and  C_14 
REMARK    4  A    between atoms: O_15  and  C_16 
REMARK    5  A    between atoms: C_21  and  O_15 
ROOT
ATOM      1  C   UNL d   1      32.966  19.669 -22.495  0.00  0.00     0.024 A 
ATOM      2  C   UNL d   1      33.054  20.367 -22.923  0.00  0.00     0.004 A 
ATOM      3  C   UNL d   1      32.951  19.646 -21.691  0.00  0.00     0.004 A 
ATOM      4  C   UNL d   1      33.118  21.081 -21.668  0.00  0.00     0.085 A 
ATOM      5  C   UNL d   1      33.028  20.363 -21.250  0.00  0.00     0.019 A 
ATOM      6  C   UNL d   1      33.131  21.082 -22.483  0.00  0.00     0.019 A 
ENDROOT
BRANCH   4   7
ATOM      7  N   UNL d   1      33.199  21.827 -21.209  0.00  0.00    -0.206 NA
ATOM      8  C   UNL d   1      32.566  22.037 -20.684  0.00  0.00     0.304 C 
ATOM      9  O   UNL d   1      31.894  21.585 -20.586  0.00  0.00    -0.263 OA
BRANCH   8  10
ATOM     10  C   UNL d   1      32.643  22.747 -20.247  0.00  0.00     0.185 C 
BRANCH  10  11
ATOM     11  O   UNL d   1      33.168  22.775 -19.620  0.00  0.00    -0.300 OA
BRANCH  11  12
ATOM     12  C   UNL d   1      32.884  22.983 -18.856  0.00  0.00     0.100 A 
ATOM     13  C   UNL d   1      32.248  23.501 -18.769  0.00  0.00     0.025 A 
ATOM     14  C   UNL d   1      31.974  23.702 -18.031  0.00  0.00     0.002 A 
ATOM     15  C   UNL d   1      32.328  23.392 -17.362  0.00  0.00     0.000 A 
ATOM     16  C   UNL d   1      32.965  22.873 -17.436  0.00  0.00     0.002 A 
ATOM     17  C   UNL d   1      33.240  22.671 -18.174  0.00  0.00     0.025 A 
ENDBRANCH  11  12
ENDBRANCH  10  11
ENDBRANCH   8  10
ENDBRANCH   4   7
BRANCH   1  18
ATOM     18  C   UNL d   1      32.890  18.960 -22.932  0.00  0.00     0.111 A 
ATOM     19  N   UNL d   1      32.546  18.895 -23.658  0.00  0.00    -0.239 NA
ATOM     20  C   UNL d   1      32.583  18.121 -23.890  0.00  0.00     0.088 A 
ATOM     21  C   UNL d   1      32.333  17.716 -24.559  0.00  0.00     0.020 A 
ATOM     22  C   UNL d   1      32.970  17.697 -23.269  0.00  0.00     0.049 A 
ATOM     23  C   UNL d   1      32.454  16.921 -24.628  0.00  0.00     0.002 A 
ATOM     24  C   UNL d   1      32.840  16.497 -24.008  0.00  0.00     0.001 A 
ATOM     25  C   UNL d   1      33.097  16.879 -23.333  0.00  0.00     0.008 A 
ATOM     26  C   UNL d   1      32.968  15.679 -24.072  0.00  0.00     0.000 C 
ATOM     27  S   UNL d   1      33.156  18.226 -22.679  0.00  0.00    -0.066 SA
ENDBRANCH   1  18
TORSDOF 5
ENDMDL
