MODEL 1
REMARK VINA RESULT:      61.8      0.000      0.000
REMARK  7 active torsions:
REMARK  status: ('A' for Active; 'I' for Inactive)
REMARK    1  A    between atoms: N_2  and  S_1 
REMARK    2  A    between atoms: C_3  and  S_1 
REMARK    3  A    between atoms: C_9  and  N_2 
REMARK    4  A    between atoms: C_6  and  O_7 
REMARK    5  A    between atoms: O_7  and  C_14 
REMARK    6  A    between atoms: C_13  and  C_9 
REMARK    7  A    between atoms: O_17  and  C_10 
ROOT
ATOM      1  C   UNL d   1     -48.827  28.215  34.616  0.00  0.00     0.105 A 
ATOM      2  C   UNL d   1     -49.178  27.596  35.019  0.00  0.00     0.015 A 
ATOM      3  C   UNL d   1     -48.811  28.214  33.788  0.00  0.00     0.015 A 
ATOM      4  C   UNL d   1     -49.496  26.976  33.775  0.00  0.00     0.100 A 
ATOM      5  C   UNL d   1     -49.513  26.976  34.603  0.00  0.00     0.025 A 
ATOM      6  C   UNL d   1     -49.145  27.595  33.372  0.00  0.00     0.025 A 
ENDROOT
BRANCH   1   7
ATOM      7  S   UNL d   1     -48.491  28.838  35.044  0.00  0.00     0.285 S 
ATOM      8  O   UNL d   1     -48.606  28.888  35.861  0.00  0.00    -0.198 OA
ATOM      9  O   UNL d   1     -48.041  29.408  34.654  0.00  0.00    -0.198 OA
BRANCH   7  10
ATOM     10  N   UNL d   1     -48.082  29.518  35.284  0.00  0.00    -0.155 NA
BRANCH  10  11
ATOM     11  C   UNL d   1     -47.799  30.056  34.709  0.00  0.00     0.131 C 
BRANCH  11  12
ATOM     12  C   UNL d   1     -47.614  30.835  34.934  0.00  0.00     0.101 A 
ATOM     13  N   UNL d   1     -47.926  31.468  34.507  0.00  0.00    -0.242 NA
ATOM     14  C   UNL d   1     -47.749  32.244  34.723  0.00  0.00     0.099 A 
ATOM     15  C   UNL d   1     -47.251  32.389  35.377  0.00  0.00     0.021 A 
ATOM     16  C   UNL d   1     -46.939  31.741  35.805  0.00  0.00     0.003 A 
ATOM     17  C   UNL d   1     -47.121  30.969  35.583  0.00  0.00     0.021 A 
ENDBRANCH  11  12
ENDBRANCH  10  11
ENDBRANCH   7  10
ENDBRANCH   1   7
BRANCH   4  18
ATOM     18  O   UNL d   1     -49.837  26.346  33.354  0.00  0.00    -0.305 OA
BRANCH  18  19
ATOM     19  C   UNL d   1     -50.658  26.239  33.350  0.00  0.00     0.122 A 
ATOM     20  C   UNL d   1     -50.971  25.478  33.336  0.00  0.00     0.117 A 
ATOM     21  C   UNL d   1     -51.790  25.374  33.332  0.00  0.00     0.026 A 
ATOM     22  C   UNL d   1     -52.287  26.026  33.343  0.00  0.00     0.002 A 
ATOM     23  C   UNL d   1     -51.971  26.788  33.358  0.00  0.00     0.002 A 
ATOM     24  C   UNL d   1     -51.153  26.893  33.361  0.00  0.00     0.027 A 
BRANCH  20  25
ATOM     25  O   UNL d   1     -50.467  24.833  33.325  0.00  0.00    -0.326 OA
ATOM     26  C   UNL d   1     -50.765  24.076  33.322  0.00  0.00     0.181 C 
ENDBRANCH  20  25
ENDBRANCH  18  19
ENDBRANCH   4  18
TORSDOF 7
ENDMDL
MODEL 2
REMARK VINA RESULT:      62.8      1.852      5.922
REMARK  7 active torsions:
REMARK  status: ('A' for Active; 'I' for Inactive)
REMARK    1  A    between atoms: N_2  and  S_1 
REMARK    2  A    between atoms: C_3  and  S_1 
REMARK    3  A    between atoms: C_9  and  N_2 
REMARK    4  A    between atoms: C_6  and  O_7 
REMARK    5  A    between atoms: O_7  and  C_14 
REMARK    6  A    between atoms: C_13  and  C_9 
REMARK    7  A    between atoms: O_17  and  C_10 
ROOT
ATOM      1  C   UNL d   1     -49.766  27.560  33.779  0.00  0.00     0.105 A 
ATOM      2  C   UNL d   1     -50.115  28.233  33.472  0.00  0.00     0.015 A 
ATOM      3  C   UNL d   1     -49.130  27.625  34.305  0.00  0.00     0.015 A 
ATOM      4  C   UNL d   1     -49.198  29.037  34.213  0.00  0.00     0.100 A 
ATOM      5  C   UNL d   1     -49.834  28.971  33.686  0.00  0.00     0.025 A 
ATOM      6  C   UNL d   1     -48.850  28.363  34.519  0.00  0.00     0.025 A 
ENDROOT
BRANCH   1   7
ATOM      7  S   UNL d   1     -50.055  26.817  33.558  0.00  0.00     0.285 S 
ATOM      8  O   UNL d   1     -49.530  26.199  33.399  0.00  0.00    -0.198 OA
ATOM      9  O   UNL d   1     -50.868  26.696  33.496  0.00  0.00    -0.198 OA
BRANCH   7  10
ATOM     10  N   UNL d   1     -50.531  26.168  33.357  0.00  0.00    -0.155 NA
BRANCH  10  11
ATOM     11  C   UNL d   1     -50.699  25.583  33.932  0.00  0.00     0.131 C 
BRANCH  11  12
ATOM     12  C   UNL d   1     -51.173  24.933  33.725  0.00  0.00     0.101 A 
ATOM     13  N   UNL d   1     -50.839  24.178  33.691  0.00  0.00    -0.242 NA
ATOM     14  C   UNL d   1     -51.302  23.527  33.487  0.00  0.00     0.099 A 
ATOM     15  C   UNL d   1     -52.111  23.631  33.314  0.00  0.00     0.021 A 
ATOM     16  C   UNL d   1     -52.442  24.399  33.351  0.00  0.00     0.003 A 
ATOM     17  C   UNL d   1     -51.973  25.045  33.555  0.00  0.00     0.021 A 
ENDBRANCH  11  12
ENDBRANCH  10  11
ENDBRANCH   7  10
ENDBRANCH   1   7
BRANCH   4  18
ATOM     18  O   UNL d   1     -48.915  29.787  34.429  0.00  0.00    -0.305 OA
BRANCH  18  19
ATOM     19  C   UNL d   1     -48.259  29.860  34.929  0.00  0.00     0.122 A 
ATOM     20  C   UNL d   1     -47.760  30.509  34.856  0.00  0.00     0.117 A 
ATOM     21  C   UNL d   1     -47.107  30.580  35.355  0.00  0.00     0.026 A 
ATOM     22  C   UNL d   1     -46.957  30.006  35.921  0.00  0.00     0.002 A 
ATOM     23  C   UNL d   1     -47.460  29.354  35.992  0.00  0.00     0.002 A 
ATOM     24  C   UNL d   1     -48.113  29.283  35.493  0.00  0.00     0.027 A 
BRANCH  20  25
ATOM     25  O   UNL d   1     -47.917  31.079  34.288  0.00  0.00    -0.326 OA
ATOM     26  C   UNL d   1     -48.118  31.836  34.507  0.00  0.00     0.181 C 
ENDBRANCH  20  25
ENDBRANCH  18  19
ENDBRANCH   4  18
TORSDOF 7
ENDMDL
