MODEL 1
REMARK VINA RESULT:      -4.1      0.000      0.000
REMARK  5 active torsions:
REMARK  status: ('A' for Active; 'I' for Inactive)
REMARK    1  A    between atoms: C_4  and  C_1 
REMARK    2  A    between atoms: C_9  and  C_4 
REMARK    3  A    between atoms: N_5  and  C_9 
REMARK    4  A    between atoms: C_19  and  N_6 
REMARK    5  A    between atoms: C_18  and  C_19 
ROOT
ATOM      1  N   UNL d   1      33.169  20.036 -22.324  0.00  0.00    -0.297 N 
ATOM      2  N   UNL d   1      33.029  18.756 -23.369  0.00  0.00    -0.300 N 
ATOM      3  C   UNL d   1      33.072  19.273 -22.039  0.00  0.00     0.100 A 
ATOM      4  C   UNL d   1      33.197  20.167 -23.146  0.00  0.00     0.100 A 
ATOM      5  C   UNL d   1      33.126  19.520 -23.661  0.00  0.00     0.100 A 
ATOM      6  C   UNL d   1      33.001  18.626 -22.555  0.00  0.00     0.100 A 
ENDROOT
BRANCH   1   7
ATOM      7  C   UNL d   1      33.239  20.674 -21.810  0.00  0.00     0.123 C 
BRANCH   7   8
ATOM      8  C   UNL d   1      32.574  20.981 -21.433  0.00  0.00     0.216 C 
ATOM      9  O   UNL d   1      31.826  20.672 -21.597  0.00  0.00    -0.285 OA
BRANCH   8  10
ATOM     10  C   UNL d   1      32.653  21.601 -20.886  0.00  0.00     0.080 A 
ATOM     11  C   UNL d   1      32.313  22.324 -21.035  0.00  0.00     0.202 A 
ATOM     12  C   UNL d   1      32.391  22.938 -20.498  0.00  0.00     0.078 A 
ATOM     13  O   UNL d   1      31.888  22.439 -21.732  0.00  0.00    -0.286 OA
ATOM     14  C   UNL d   1      32.043  23.670 -20.654  0.00  0.00     0.007 C 
ATOM     15  C   UNL d   1      32.819  22.826 -19.792  0.00  0.00     0.199 A 
ATOM     16  C   UNL d   1      33.166  22.087 -19.642  0.00  0.00     0.042 A 
ATOM     17  O   UNL d   1      32.896  23.440 -19.256  0.00  0.00    -0.286 OA
ATOM     18  C   UNL d   1      33.085  21.473 -20.186  0.00  0.00     0.010 A 
ENDBRANCH   8  10
ENDBRANCH   7   8
ENDBRANCH   1   7
BRANCH   2  19
ATOM     19  C   UNL d   1      32.959  18.114 -23.887  0.00  0.00     0.080 C 
BRANCH  19  20
ATOM     20  C   UNL d   1      32.236  17.721 -23.958  0.00  0.00     0.020 A 
ATOM     21  C   UNL d   1      31.640  18.036 -24.436  0.00  0.00     0.028 A 
ATOM     22  C   UNL d   1      30.924  17.643 -24.504  0.00  0.00     0.119 A 
ATOM     23  O   UNL d   1      30.243  17.821 -24.931  0.00  0.00    -0.300 OA
ATOM     24  C   UNL d   1      30.800  16.938 -24.096  0.00  0.00     0.119 A 
ATOM     25  C   UNL d   1      29.687  17.230 -24.794  0.00  0.00     0.304 A 
ATOM     26  O   UNL d   1      30.035  16.682 -24.276  0.00  0.00    -0.300 OA
ATOM     27  C   UNL d   1      31.392  16.622 -23.619  0.00  0.00     0.026 A 
ATOM     28  C   UNL d   1      32.115  17.022 -23.553  0.00  0.00     0.004 A 
ENDBRANCH  19  20
ENDBRANCH   2  19
TORSDOF 5
ENDMDL
MODEL 2
REMARK VINA RESULT:      -1.1      1.502      5.930
REMARK  5 active torsions:
REMARK  status: ('A' for Active; 'I' for Inactive)
REMARK    1  A    between atoms: C_4  and  C_1 
REMARK    2  A    between atoms: C_9  and  C_4 
REMARK    3  A    between atoms: N_5  and  C_9 
REMARK    4  A    between atoms: C_19  and  N_6 
REMARK    5  A    between atoms: C_18  and  C_19 
ROOT
ATOM      1  N   UNL d   1      31.471  17.349 -24.505  0.00  0.00    -0.297 N 
ATOM      2  N   UNL d   1      32.653  18.479 -24.232  0.00  0.00    -0.300 N 
ATOM      3  C   UNL d   1      31.395  18.111 -24.798  0.00  0.00     0.100 A 
ATOM      4  C   UNL d   1      32.149  17.143 -24.067  0.00  0.00     0.100 A 
ATOM      5  C   UNL d   1      32.735  17.716 -23.936  0.00  0.00     0.100 A 
ATOM      6  C   UNL d   1      31.982  18.684 -24.666  0.00  0.00     0.100 A 
ENDROOT
BRANCH   1   7
ATOM      7  C   UNL d   1      30.887  16.785 -24.638  0.00  0.00     0.123 C 
BRANCH   7   8
ATOM      8  C   UNL d   1      30.515  16.413 -24.004  0.00  0.00     0.216 C 
ATOM      9  O   UNL d   1      30.927  16.280 -23.303  0.00  0.00    -0.285 OA
BRANCH   8  10
ATOM     10  C   UNL d   1      29.723  16.171 -24.070  0.00  0.00     0.080 A 
ATOM     11  C   UNL d   1      29.296  15.980 -23.406  0.00  0.00     0.202 A 
ATOM     12  C   UNL d   1      28.515  15.741 -23.468  0.00  0.00     0.078 A 
ATOM     13  O   UNL d   1      29.654  16.027 -22.664  0.00  0.00    -0.286 OA
ATOM     14  C   UNL d   1      28.086  15.548 -22.790  0.00  0.00     0.007 C 
ATOM     15  C   UNL d   1      28.150  15.692 -24.215  0.00  0.00     0.199 A 
ATOM     16  C   UNL d   1      28.588  15.888 -24.893  0.00  0.00     0.042 A 
ATOM     17  O   UNL d   1      27.369  15.453 -24.277  0.00  0.00    -0.286 OA
ATOM     18  C   UNL d   1      29.373  16.127 -24.825  0.00  0.00     0.010 A 
ENDBRANCH   8  10
ENDBRANCH   7   8
ENDBRANCH   1   7
BRANCH   2  19
ATOM     19  C   UNL d   1      33.241  19.048 -24.099  0.00  0.00     0.080 C 
BRANCH  19  20
ATOM     20  C   UNL d   1      33.206  19.523 -23.425  0.00  0.00     0.020 A 
ATOM     21  C   UNL d   1      33.146  20.343 -23.501  0.00  0.00     0.028 A 
ATOM     22  C   UNL d   1      33.111  20.813 -22.829  0.00  0.00     0.119 A 
ATOM     23  O   UNL d   1      33.052  21.629 -22.737  0.00  0.00    -0.300 OA
ATOM     24  C   UNL d   1      33.136  20.466 -22.083  0.00  0.00     0.119 A 
ATOM     25  C   UNL d   1      33.039  21.799 -21.932  0.00  0.00     0.304 A 
ATOM     26  O   UNL d   1      33.091  21.077 -21.527  0.00  0.00    -0.300 OA
ATOM     27  C   UNL d   1      33.195  19.648 -22.004  0.00  0.00     0.026 A 
ATOM     28  C   UNL d   1      33.230  19.177 -22.686  0.00  0.00     0.004 A 
ENDBRANCH  19  20
ENDBRANCH   2  19
TORSDOF 5
ENDMDL
