MODEL 1
REMARK VINA RESULT:      -5.2      0.000      0.000
REMARK  4 active torsions:
REMARK  status: ('A' for Active; 'I' for Inactive)
REMARK    1  A    between atoms: C_7  and  C_1 
REMARK    2  A    between atoms: C_8  and  C_7 
REMARK       I    between atoms: N_9  and  C_8 
REMARK    3  A    between atoms: C_14  and  N_9 
REMARK    4  A    between atoms: C_15  and  C_14 
ROOT
ATOM      1  C   UNL d   1     -41.697-122.623 -52.681  0.00  0.00     0.032 A 
ATOM      2  C   UNL d   1     -41.711-122.764 -53.496  0.00  0.00     0.025 A 
ATOM      3  C   UNL d   1     -41.348-123.228 -52.242  0.00  0.00     0.123 A 
ATOM      4  O   UNL d   1     -41.123-123.817 -52.910  0.00  0.00    -0.305 OA
ATOM      5  C   UNL d   1     -41.999-122.321 -54.133  0.00  0.00     0.002 A 
ATOM      6  C   UNL d   1     -41.357-123.499 -53.637  0.00  0.00     0.100 A 
ATOM      7  C   UNL d   1     -41.937-122.603 -54.901  0.00  0.00     0.000 A 
ATOM      8  C   UNL d   1     -41.295-123.784 -54.414  0.00  0.00     0.025 A 
ATOM      9  C   UNL d   1     -41.583-123.338 -55.042  0.00  0.00     0.002 A 
ATOM     10  C   UNL d   1     -42.350-121.589 -53.992  0.00  0.00     0.000 A 
ATOM     11  C   UNL d   1     -42.222-122.161 -55.521  0.00  0.00     0.000 A 
ATOM     12  C   UNL d   1     -42.639-121.143 -54.620  0.00  0.00     0.000 A 
ATOM     13  C   UNL d   1     -42.570-121.439 -55.390  0.00  0.00     0.000 A 
ENDROOT
BRANCH   1  14
ATOM     14  C   UNL d   1     -41.992-121.953 -52.297  0.00  0.00     0.065 C 
BRANCH  14  15
ATOM     15  C   UNL d   1     -41.858-121.845 -51.489  0.00  0.00     0.279 C 
ATOM     16  N   UNL d   1     -42.324-122.243 -50.937  0.00  0.00    -0.206 NA
ATOM     17  O   UNL d   1     -41.263-121.343 -51.233  0.00  0.00    -0.265 OA
BRANCH  16  18
ATOM     18  C   UNL d   1     -42.195-122.140 -50.138  0.00  0.00     0.102 C 
BRANCH  18  19
ATOM     19  C   UNL d   1     -42.520-122.666 -49.588  0.00  0.00     0.019 A 
ATOM     20  C   UNL d   1     -43.203-123.077 -49.780  0.00  0.00     0.002 A 
ATOM     21  C   UNL d   1     -43.530-123.601 -49.238  0.00  0.00     0.000 A 
ATOM     22  C   UNL d   1     -43.174-123.715 -48.503  0.00  0.00     0.000 A 
ATOM     23  C   UNL d   1     -42.479-123.293 -48.316  0.00  0.00     0.000 A 
ATOM     24  C   UNL d   1     -42.159-122.772 -48.861  0.00  0.00     0.002 A 
ENDBRANCH  18  19
ENDBRANCH  16  18
ENDBRANCH  14  15
ENDBRANCH   1  14
TORSDOF 4
ENDMDL
