MODEL 1
REMARK VINA RESULT:     -10.9      0.000      0.000
REMARK  3 active torsions:
REMARK  status: ('A' for Active; 'I' for Inactive)
REMARK    1  A    between atoms: C_7  and  N_1 
REMARK    2  A    between atoms: N_3  and  C_8 
REMARK    3  A    between atoms: C_11  and  C_4 
ROOT
ATOM      1  N   UNL d   1      53.342  31.816  53.561  0.00  0.00    -0.230 N 
ATOM      2  N   UNL d   1      53.465  31.012  53.488  0.00  0.00    -0.165 NA
ATOM      3  C   UNL d   1      52.645  32.013  53.143  0.00  0.00     0.084 A 
ATOM      4  C   UNL d   1      52.856  30.698  53.031  0.00  0.00     0.103 A 
ATOM      5  C   UNL d   1      52.353  31.309  52.819  0.00  0.00     0.040 A 
ATOM      6  C   UNL d   1      52.841  29.869  52.864  0.00  0.00     0.022 C 
ENDROOT
BRANCH   1   7
ATOM      7  C   UNL d   1      53.825  32.332  53.974  0.00  0.00     0.083 A 
ATOM      8  C   UNL d   1      53.691  32.465  54.773  0.00  0.00     0.021 A 
ATOM      9  C   UNL d   1      54.177  32.985  55.190  0.00  0.00     0.025 A 
ATOM     10  C   UNL d   1      54.799  33.374  54.814  0.00  0.00     0.127 A 
ATOM     11  C   UNL d   1      54.933  33.240  54.013  0.00  0.00     0.025 A 
ATOM     12  C   UNL d   1      54.443  32.717  53.595  0.00  0.00     0.021 A 
BRANCH  10  13
ATOM     13  N   UNL d   1      55.289  33.901  55.244  0.00  0.00    -0.114 N 
ATOM     14  O   UNL d   1      55.919  34.370  54.907  0.00  0.00    -0.532 OA
ATOM     15  O   UNL d   1      55.230  34.041  56.068  0.00  0.00    -0.532 OA
ENDBRANCH  10  13
ENDBRANCH   1   7
BRANCH   3  16
ATOM     16  C   UNL d   1      52.278  32.749  53.043  0.00  0.00     0.018 A 
ATOM     17  C   UNL d   1      51.646  32.949  53.552  0.00  0.00     0.002 A 
ATOM     18  C   UNL d   1      51.264  33.687  53.466  0.00  0.00     0.000 A 
ATOM     19  C   UNL d   1      51.516  34.208  52.881  0.00  0.00     0.000 A 
ATOM     20  C   UNL d   1      52.137  34.007  52.384  0.00  0.00     0.000 A 
ATOM     21  C   UNL d   1      52.526  33.284  52.453  0.00  0.00     0.002 A 
ENDBRANCH   3  16
TORSDOF 3
ENDMDL
MODEL 2
REMARK VINA RESULT:     -10.7      1.994      3.161
REMARK  3 active torsions:
REMARK  status: ('A' for Active; 'I' for Inactive)
REMARK    1  A    between atoms: C_7  and  N_1 
REMARK    2  A    between atoms: N_3  and  C_8 
REMARK    3  A    between atoms: C_11  and  C_4 
ROOT
ATOM      1  N   UNL d   1      52.775  31.783  53.246  0.00  0.00    -0.230 N 
ATOM      2  N   UNL d   1      52.595  31.044  52.946  0.00  0.00    -0.165 NA
ATOM      3  C   UNL d   1      53.498  31.726  53.662  0.00  0.00     0.084 A 
ATOM      4  C   UNL d   1      53.194  30.523  53.166  0.00  0.00     0.103 A 
ATOM      5  C   UNL d   1      53.748  30.939  53.605  0.00  0.00     0.040 A 
ATOM      6  C   UNL d   1      53.153  29.712  52.930  0.00  0.00     0.022 C 
ENDROOT
BRANCH   1   7
ATOM      7  C   UNL d   1      52.319  32.455  53.150  0.00  0.00     0.083 A 
ATOM      8  C   UNL d   1      51.692  32.599  53.659  0.00  0.00     0.021 A 
ATOM      9  C   UNL d   1      51.231  33.277  53.563  0.00  0.00     0.025 A 
ATOM     10  C   UNL d   1      51.393  33.814  52.959  0.00  0.00     0.127 A 
ATOM     11  C   UNL d   1      52.023  33.669  52.448  0.00  0.00     0.025 A 
ATOM     12  C   UNL d   1      52.484  32.987  52.547  0.00  0.00     0.021 A 
BRANCH  10  13
ATOM     13  N   UNL d   1      50.921  34.501  52.867  0.00  0.00    -0.114 N 
ATOM     14  O   UNL d   1      50.237  34.561  52.359  0.00  0.00    -0.532 OA
ATOM     15  O   UNL d   1      51.056  35.228  53.262  0.00  0.00    -0.532 OA
ENDBRANCH  10  13
ENDBRANCH   1   7
BRANCH   3  16
ATOM     16  C   UNL d   1      53.922  32.312  54.068  0.00  0.00     0.018 A 
ATOM     17  C   UNL d   1      54.510  32.735  53.653  0.00  0.00     0.002 A 
ATOM     18  C   UNL d   1      54.948  33.329  54.045  0.00  0.00     0.000 A 
ATOM     19  C   UNL d   1      54.793  33.489  54.837  0.00  0.00     0.000 A 
ATOM     20  C   UNL d   1      54.214  33.071  55.241  0.00  0.00     0.000 A 
ATOM     21  C   UNL d   1      53.773  32.482  54.871  0.00  0.00     0.002 A 
ENDBRANCH   3  16
TORSDOF 3
ENDMDL
MODEL 3
REMARK VINA RESULT:      -9.8      2.118      3.499
REMARK  3 active torsions:
REMARK  status: ('A' for Active; 'I' for Inactive)
REMARK    1  A    between atoms: C_7  and  N_1 
REMARK    2  A    between atoms: N_3  and  C_8 
REMARK    3  A    between atoms: C_11  and  C_4 
ROOT
ATOM      1  N   UNL d   1      52.482  32.706  52.955  0.00  0.00    -0.230 N 
ATOM      2  N   UNL d   1      51.926  33.034  52.455  0.00  0.00    -0.165 NA
ATOM      3  C   UNL d   1      52.917  33.329  53.306  0.00  0.00     0.084 A 
ATOM      4  C   UNL d   1      52.003  33.853  52.483  0.00  0.00     0.103 A 
ATOM      5  C   UNL d   1      52.609  34.036  53.004  0.00  0.00     0.040 A 
ATOM      6  C   UNL d   1      51.493  34.340  52.016  0.00  0.00     0.022 C 
ENDROOT
BRANCH   1   7
ATOM      7  C   UNL d   1      52.587  31.906  53.085  0.00  0.00     0.083 A 
ATOM      8  C   UNL d   1      52.104  31.511  53.619  0.00  0.00     0.021 A 
ATOM      9  C   UNL d   1      52.209  30.704  53.750  0.00  0.00     0.025 A 
ATOM     10  C   UNL d   1      52.795  30.284  53.350  0.00  0.00     0.127 A 
ATOM     11  C   UNL d   1      53.280  30.680  52.814  0.00  0.00     0.025 A 
ATOM     12  C   UNL d   1      53.172  31.492  52.684  0.00  0.00     0.021 A 
BRANCH  10  13
ATOM     13  N   UNL d   1      52.897  29.464  53.488  0.00  0.00    -0.114 N 
ATOM     14  O   UNL d   1      53.370  29.126  54.114  0.00  0.00    -0.532 OA
ATOM     15  O   UNL d   1      52.547  28.857  53.027  0.00  0.00    -0.532 OA
ENDBRANCH  10  13
ENDBRANCH   1   7
BRANCH   3  16
ATOM     16  C   UNL d   1      53.540  33.297  53.851  0.00  0.00     0.018 A 
ATOM     17  C   UNL d   1      53.361  33.373  54.663  0.00  0.00     0.002 A 
ATOM     18  C   UNL d   1      53.976  33.343  55.228  0.00  0.00     0.000 A 
ATOM     19  C   UNL d   1      54.753  33.240  54.975  0.00  0.00     0.000 A 
ATOM     20  C   UNL d   1      54.924  33.167  54.176  0.00  0.00     0.000 A 
ATOM     21  C   UNL d   1      54.331  33.193  53.605  0.00  0.00     0.002 A 
ENDBRANCH   3  16
TORSDOF 3
ENDMDL
MODEL 4
REMARK VINA RESULT:      -9.3      2.255      3.674
REMARK  3 active torsions:
REMARK  status: ('A' for Active; 'I' for Inactive)
REMARK    1  A    between atoms: C_7  and  N_1 
REMARK    2  A    between atoms: N_3  and  C_8 
REMARK    3  A    between atoms: C_11  and  C_4 
ROOT
ATOM      1  N   UNL d   1      53.402  33.365  54.037  0.00  0.00    -0.230 N 
ATOM      2  N   UNL d   1      53.874  33.867  54.475  0.00  0.00    -0.165 NA
ATOM      3  C   UNL d   1      53.744  32.602  54.057  0.00  0.00     0.084 A 
ATOM      4  C   UNL d   1      54.508  33.433  54.772  0.00  0.00     0.103 A 
ATOM      5  C   UNL d   1      54.431  32.658  54.517  0.00  0.00     0.040 A 
ATOM      6  C   UNL d   1      55.092  33.815  55.250  0.00  0.00     0.022 C 
ENDROOT
BRANCH   1   7
ATOM      7  C   UNL d   1      52.716  33.581  53.649  0.00  0.00     0.083 A 
ATOM      8  C   UNL d   1      52.757  33.914  52.900  0.00  0.00     0.021 A 
ATOM      9  C   UNL d   1      52.065  34.133  52.508  0.00  0.00     0.025 A 
ATOM     10  C   UNL d   1      51.328  34.021  52.860  0.00  0.00     0.127 A 
ATOM     11  C   UNL d   1      51.287  33.687  53.612  0.00  0.00     0.025 A 
ATOM     12  C   UNL d   1      51.984  33.468  54.004  0.00  0.00     0.021 A 
BRANCH  10  13
ATOM     13  N   UNL d   1      50.628  34.246  52.456  0.00  0.00    -0.114 N 
ATOM     14  O   UNL d   1      49.947  34.609  52.821  0.00  0.00    -0.532 OA
ATOM     15  O   UNL d   1      50.500  34.145  51.634  0.00  0.00    -0.532 OA
ENDBRANCH  10  13
ENDBRANCH   1   7
BRANCH   3  16
ATOM     16  C   UNL d   1      53.487  31.897  53.704  0.00  0.00     0.018 A 
ATOM     17  C   UNL d   1      53.083  31.341  54.178  0.00  0.00     0.002 A 
ATOM     18  C   UNL d   1      52.816  30.625  53.840  0.00  0.00     0.000 A 
ATOM     19  C   UNL d   1      52.954  30.478  53.042  0.00  0.00     0.000 A 
ATOM     20  C   UNL d   1      53.351  31.028  52.580  0.00  0.00     0.000 A 
ATOM     21  C   UNL d   1      53.622  31.739  52.896  0.00  0.00     0.002 A 
ENDBRANCH   3  16
TORSDOF 3
ENDMDL
MODEL 5
REMARK VINA RESULT:      -9.2      2.083      3.214
REMARK  3 active torsions:
REMARK  status: ('A' for Active; 'I' for Inactive)
REMARK    1  A    between atoms: C_7  and  N_1 
REMARK    2  A    between atoms: N_3  and  C_8 
REMARK    3  A    between atoms: C_11  and  C_4 
ROOT
ATOM      1  N   UNL d   1      53.941  32.870  54.285  0.00  0.00    -0.230 N 
ATOM      2  N   UNL d   1      54.595  32.968  54.763  0.00  0.00    -0.165 NA
ATOM      3  C   UNL d   1      53.571  33.614  54.193  0.00  0.00     0.084 A 
ATOM      4  C   UNL d   1      54.644  33.762  54.975  0.00  0.00     0.103 A 
ATOM      5  C   UNL d   1      54.018  34.160  54.627  0.00  0.00     0.040 A 
ATOM      6  C   UNL d   1      55.274  34.026  55.474  0.00  0.00     0.022 C 
ENDROOT
BRANCH   1   7
ATOM      7  C   UNL d   1      53.698  32.161  53.957  0.00  0.00     0.083 A 
ATOM      8  C   UNL d   1      53.216  31.655  54.388  0.00  0.00     0.021 A 
ATOM      9  C   UNL d   1      52.971  30.940  54.058  0.00  0.00     0.025 A 
ATOM     10  C   UNL d   1      53.204  30.724  53.297  0.00  0.00     0.127 A 
ATOM     11  C   UNL d   1      53.687  31.232  52.865  0.00  0.00     0.025 A 
ATOM     12  C   UNL d   1      53.932  31.951  53.198  0.00  0.00     0.021 A 
BRANCH  10  13
ATOM     13  N   UNL d   1      52.951  29.996  52.967  0.00  0.00    -0.114 N 
ATOM     14  O   UNL d   1      52.764  29.294  53.416  0.00  0.00    -0.532 OA
ATOM     15  O   UNL d   1      52.847  29.856  52.148  0.00  0.00    -0.532 OA
ENDBRANCH  10  13
ENDBRANCH   1   7
BRANCH   3  16
ATOM     16  C   UNL d   1      52.891  33.818  53.764  0.00  0.00     0.018 A 
ATOM     17  C   UNL d   1      52.986  34.134  52.997  0.00  0.00     0.002 A 
ATOM     18  C   UNL d   1      52.313  34.346  52.550  0.00  0.00     0.000 A 
ATOM     19  C   UNL d   1      51.563  34.238  52.872  0.00  0.00     0.000 A 
ATOM     20  C   UNL d   1      51.475  33.926  53.625  0.00  0.00     0.000 A 
ATOM     21  C   UNL d   1      52.126  33.713  54.081  0.00  0.00     0.002 A 
ENDBRANCH   3  16
TORSDOF 3
ENDMDL
MODEL 6
REMARK VINA RESULT:      -7.9      0.994      2.237
REMARK  3 active torsions:
REMARK  status: ('A' for Active; 'I' for Inactive)
REMARK    1  A    between atoms: C_7  and  N_1 
REMARK    2  A    between atoms: N_3  and  C_8 
REMARK    3  A    between atoms: C_11  and  C_4 
ROOT
ATOM      1  N   UNL d   1      52.363  33.330  53.437  0.00  0.00    -0.230 N 
ATOM      2  N   UNL d   1      51.823  33.920  53.272  0.00  0.00    -0.165 NA
ATOM      3  C   UNL d   1      52.083  32.618  53.099  0.00  0.00     0.084 A 
ATOM      4  C   UNL d   1      51.207  33.592  52.834  0.00  0.00     0.103 A 
ATOM      5  C   UNL d   1      51.364  32.795  52.728  0.00  0.00     0.040 A 
ATOM      6  C   UNL d   1      50.564  34.080  52.583  0.00  0.00     0.022 C 
ENDROOT
BRANCH   1   7
ATOM      7  C   UNL d   1      53.055  33.429  53.862  0.00  0.00     0.083 A 
ATOM      8  C   UNL d   1      53.046  33.357  54.680  0.00  0.00     0.021 A 
ATOM      9  C   UNL d   1      53.744  33.457  55.109  0.00  0.00     0.025 A 
ATOM     10  C   UNL d   1      54.454  33.628  54.726  0.00  0.00     0.127 A 
ATOM     11  C   UNL d   1      54.462  33.700  53.905  0.00  0.00     0.025 A 
ATOM     12  C   UNL d   1      53.759  33.599  53.476  0.00  0.00     0.021 A 
BRANCH  10  13
ATOM     13  N   UNL d   1      55.159  33.729  55.167  0.00  0.00    -0.114 N 
ATOM     14  O   UNL d   1      55.938  33.831  54.831  0.00  0.00    -0.532 OA
ATOM     15  O   UNL d   1      55.199  33.742  56.004  0.00  0.00    -0.532 OA
ENDBRANCH  10  13
ENDBRANCH   1   7
BRANCH   3  16
ATOM     16  C   UNL d   1      52.420  31.861  53.107  0.00  0.00     0.018 A 
ATOM     17  C   UNL d   1      52.157  31.316  53.682  0.00  0.00     0.002 A 
ATOM     18  C   UNL d   1      52.485  30.547  53.705  0.00  0.00     0.000 A 
ATOM     19  C   UNL d   1      53.064  30.338  53.159  0.00  0.00     0.000 A 
ATOM     20  C   UNL d   1      53.319  30.877  52.595  0.00  0.00     0.000 A 
ATOM     21  C   UNL d   1      53.007  31.638  52.557  0.00  0.00     0.002 A 
ENDBRANCH   3  16
TORSDOF 3
ENDMDL
