MODEL 1
REMARK VINA RESULT:      -2.9      0.000      0.000
REMARK  1 active torsions:
REMARK  status: ('A' for Active; 'I' for Inactive)
REMARK    1  A    between atoms: N_3  and  C_2 
ROOT
ATOM      1  N   UNL d   1      30.872  17.011 -24.046  0.00  0.00    -0.228 NA
ATOM      2  C   UNL d   1      30.668  16.222 -23.898  0.00  0.00     0.148 A 
ATOM      3  C   UNL d   1      31.646  17.272 -23.894  0.00  0.00     0.083 A 
ATOM      4  C   UNL d   1      31.234  15.700 -23.601  0.00  0.00     0.037 A 
ATOM      5  C   UNL d   1      32.205  16.743 -23.596  0.00  0.00     0.018 A 
ATOM      6  C   UNL d   1      32.002  15.954 -23.448  0.00  0.00     0.005 A 
ATOM      7  C   UNL d   1      31.851  18.057 -24.040  0.00  0.00     0.019 A 
ATOM      8  C   UNL d   1      32.973  16.997 -23.444  0.00  0.00     0.002 A 
ATOM      9  C   UNL d   1      32.620  18.312 -23.888  0.00  0.00     0.002 A 
ATOM     10  C   UNL d   1      33.182  17.781 -23.589  0.00  0.00     0.000 A 
ENDROOT
BRANCH   2  11
ATOM     11  N   UNL d   1      29.898  15.965 -24.050  0.00  0.00    -0.286 N 
ATOM     12  C   UNL d   1      29.689  15.717 -24.809  0.00  0.00     0.102 A 
ATOM     13  C   UNL d   1      28.923  15.462 -24.959  0.00  0.00     0.118 A 
ATOM     14  N   UNL d   1      28.365  15.453 -24.353  0.00  0.00    -0.239 NA
ATOM     15  C   UNL d   1      28.574  15.700 -23.595  0.00  0.00     0.118 A 
ATOM     16  C   UNL d   1      29.344  15.957 -23.443  0.00  0.00     0.102 A 
ENDBRANCH   2  11
TORSDOF 1
ENDMDL
MODEL 2
REMARK VINA RESULT:      -2.5      1.353      3.689
REMARK  1 active torsions:
REMARK  status: ('A' for Active; 'I' for Inactive)
REMARK    1  A    between atoms: N_3  and  C_2 
ROOT
ATOM      1  N   UNL d   1      30.907  17.686 -24.260  0.00  0.00    -0.228 NA
ATOM      2  C   UNL d   1      31.724  17.554 -24.238  0.00  0.00     0.148 A 
ATOM      3  C   UNL d   1      30.395  17.069 -24.476  0.00  0.00     0.083 A 
ATOM      4  C   UNL d   1      32.025  16.810 -24.430  0.00  0.00     0.037 A 
ATOM      5  C   UNL d   1      30.705  16.328 -24.667  0.00  0.00     0.018 A 
ATOM      6  C   UNL d   1      31.522  16.195 -24.645  0.00  0.00     0.005 A 
ATOM      7  C   UNL d   1      29.581  17.199 -24.499  0.00  0.00     0.019 A 
ATOM      8  C   UNL d   1      30.202  15.713 -24.882  0.00  0.00     0.002 A 
ATOM      9  C   UNL d   1      29.077  16.584 -24.714  0.00  0.00     0.002 A 
ATOM     10  C   UNL d   1      29.388  15.839 -24.906  0.00  0.00     0.000 A 
ENDROOT
BRANCH   2  11
ATOM     11  N   UNL d   1      32.231  18.169 -24.023  0.00  0.00    -0.286 N 
ATOM     12  C   UNL d   1      32.376  18.323 -23.225  0.00  0.00     0.102 A 
ATOM     13  C   UNL d   1      32.881  18.936 -23.012  0.00  0.00     0.118 A 
ATOM     14  N   UNL d   1      33.241  19.394 -23.593  0.00  0.00    -0.239 NA
ATOM     15  C   UNL d   1      33.096  19.240 -24.391  0.00  0.00     0.118 A 
ATOM     16  C   UNL d   1      32.588  18.625 -24.606  0.00  0.00     0.102 A 
ENDBRANCH   2  11
TORSDOF 1
ENDMDL
MODEL 3
REMARK VINA RESULT:      -2.4      1.887      3.142
REMARK  1 active torsions:
REMARK  status: ('A' for Active; 'I' for Inactive)
REMARK    1  A    between atoms: N_3  and  C_2 
ROOT
ATOM      1  N   UNL d   1      32.795  18.238 -22.825  0.00  0.00    -0.228 NA
ATOM      2  C   UNL d   1      32.705  17.888 -23.569  0.00  0.00     0.148 A 
ATOM      3  C   UNL d   1      32.945  19.053 -22.768  0.00  0.00     0.083 A 
ATOM      4  C   UNL d   1      32.763  18.351 -24.250  0.00  0.00     0.037 A 
ATOM      5  C   UNL d   1      33.002  19.508 -23.454  0.00  0.00     0.018 A 
ATOM      6  C   UNL d   1      32.911  19.159 -24.199  0.00  0.00     0.005 A 
ATOM      7  C   UNL d   1      33.035  19.404 -22.026  0.00  0.00     0.019 A 
ATOM      8  C   UNL d   1      33.150  20.316 -23.402  0.00  0.00     0.002 A 
ATOM      9  C   UNL d   1      33.183  20.213 -21.974  0.00  0.00     0.002 A 
ATOM     10  C   UNL d   1      33.241  20.669 -22.664  0.00  0.00     0.000 A 
ENDROOT
BRANCH   2  11
ATOM     11  N   UNL d   1      32.556  17.078 -23.624  0.00  0.00    -0.286 N 
ATOM     12  C   UNL d   1      33.183  16.542 -23.602  0.00  0.00     0.102 A 
ATOM     13  C   UNL d   1      33.034  15.735 -23.656  0.00  0.00     0.118 A 
ATOM     14  N   UNL d   1      32.261  15.463 -23.732  0.00  0.00    -0.239 NA
ATOM     15  C   UNL d   1      31.634  15.999 -23.753  0.00  0.00     0.118 A 
ATOM     16  C   UNL d   1      31.782  16.810 -23.699  0.00  0.00     0.102 A 
ENDBRANCH   2  11
TORSDOF 1
ENDMDL
MODEL 4
REMARK VINA RESULT:      -2.4      3.568      5.274
REMARK  1 active torsions:
REMARK  status: ('A' for Active; 'I' for Inactive)
REMARK    1  A    between atoms: N_3  and  C_2 
ROOT
ATOM      1  N   UNL d   1      32.631  20.414 -21.668  0.00  0.00    -0.228 NA
ATOM      2  C   UNL d   1      32.956  20.272 -22.415  0.00  0.00     0.148 A 
ATOM      3  C   UNL d   1      32.585  21.192 -21.379  0.00  0.00     0.083 A 
ATOM      4  C   UNL d   1      33.233  20.903 -22.870  0.00  0.00     0.037 A 
ATOM      5  C   UNL d   1      32.864  21.817 -21.840  0.00  0.00     0.018 A 
ATOM      6  C   UNL d   1      33.190  21.675 -22.588  0.00  0.00     0.005 A 
ATOM      7  C   UNL d   1      32.261  21.336 -20.634  0.00  0.00     0.019 A 
ATOM      8  C   UNL d   1      32.821  22.589 -21.559  0.00  0.00     0.002 A 
ATOM      9  C   UNL d   1      32.217  22.109 -20.352  0.00  0.00     0.002 A 
ATOM     10  C   UNL d   1      32.498  22.736 -20.815  0.00  0.00     0.000 A 
ENDROOT
BRANCH   2  11
ATOM     11  N   UNL d   1      33.001  19.498 -22.700  0.00  0.00    -0.286 N 
ATOM     12  C   UNL d   1      33.197  18.882 -22.188  0.00  0.00     0.102 A 
ATOM     13  C   UNL d   1      33.241  18.112 -22.472  0.00  0.00     0.118 A 
ATOM     14  N   UNL d   1      33.090  17.957 -23.266  0.00  0.00    -0.239 NA
ATOM     15  C   UNL d   1      32.894  18.573 -23.779  0.00  0.00     0.118 A 
ATOM     16  C   UNL d   1      32.849  19.347 -23.494  0.00  0.00     0.102 A 
ENDBRANCH   2  11
TORSDOF 1
ENDMDL
MODEL 5
REMARK VINA RESULT:      -2.3      4.798      6.683
REMARK  1 active torsions:
REMARK  status: ('A' for Active; 'I' for Inactive)
REMARK    1  A    between atoms: N_3  and  C_2 
ROOT
ATOM      1  N   UNL d   1      32.832  21.072 -21.226  0.00  0.00    -0.228 NA
ATOM      2  C   UNL d   1      32.889  21.889 -21.344  0.00  0.00     0.148 A 
ATOM      3  C   UNL d   1      32.950  20.554 -21.864  0.00  0.00     0.083 A 
ATOM      4  C   UNL d   1      33.063  22.184 -22.095  0.00  0.00     0.037 A 
ATOM      5  C   UNL d   1      33.123  20.857 -22.611  0.00  0.00     0.018 A 
ATOM      6  C   UNL d   1      33.180  21.675 -22.731  0.00  0.00     0.005 A 
ATOM      7  C   UNL d   1      32.894  19.739 -21.747  0.00  0.00     0.019 A 
ATOM      8  C   UNL d   1      33.241  20.348 -23.247  0.00  0.00     0.002 A 
ATOM      9  C   UNL d   1      33.012  19.228 -22.383  0.00  0.00     0.002 A 
ATOM     10  C   UNL d   1      33.186  19.533 -23.134  0.00  0.00     0.000 A 
ENDROOT
BRANCH   2  11
ATOM     11  N   UNL d   1      32.771  22.403 -20.708  0.00  0.00    -0.286 N 
ATOM     12  C   UNL d   1      33.171  22.276 -19.998  0.00  0.00     0.102 A 
ATOM     13  C   UNL d   1      33.053  22.788 -19.365  0.00  0.00     0.118 A 
ATOM     14  N   UNL d   1      32.538  23.425 -19.441  0.00  0.00    -0.239 NA
ATOM     15  C   UNL d   1      32.138  23.552 -20.152  0.00  0.00     0.118 A 
ATOM     16  C   UNL d   1      32.256  23.038 -20.788  0.00  0.00     0.102 A 
ENDBRANCH   2  11
TORSDOF 1
ENDMDL
MODEL 6
REMARK VINA RESULT:      -2.3      3.692      5.543
REMARK  1 active torsions:
REMARK  status: ('A' for Active; 'I' for Inactive)
REMARK    1  A    between atoms: N_3  and  C_2 
ROOT
ATOM      1  N   UNL d   1      32.900  20.372 -22.774  0.00  0.00    -0.228 NA
ATOM      2  C   UNL d   1      32.986  20.553 -21.971  0.00  0.00     0.148 A 
ATOM      3  C   UNL d   1      32.986  19.587 -23.031  0.00  0.00     0.083 A 
ATOM      4  C   UNL d   1      33.155  19.953 -21.431  0.00  0.00     0.037 A 
ATOM      5  C   UNL d   1      33.155  18.993 -22.484  0.00  0.00     0.018 A 
ATOM      6  C   UNL d   1      33.241  19.173 -21.680  0.00  0.00     0.005 A 
ATOM      7  C   UNL d   1      32.901  19.404 -23.831  0.00  0.00     0.019 A 
ATOM      8  C   UNL d   1      33.241  18.214 -22.734  0.00  0.00     0.002 A 
ATOM      9  C   UNL d   1      32.987  18.624 -24.082  0.00  0.00     0.002 A 
ATOM     10  C   UNL d   1      33.157  18.028 -23.532  0.00  0.00     0.000 A 
ENDROOT
BRANCH   2  11
ATOM     11  N   UNL d   1      32.900  21.334 -21.718  0.00  0.00    -0.286 N 
ATOM     12  C   UNL d   1      32.474  21.500 -21.031  0.00  0.00     0.102 A 
ATOM     13  C   UNL d   1      32.390  22.278 -20.780  0.00  0.00     0.118 A 
ATOM     14  N   UNL d   1      32.729  22.890 -21.213  0.00  0.00    -0.239 NA
ATOM     15  C   UNL d   1      33.155  22.725 -21.900  0.00  0.00     0.118 A 
ATOM     16  C   UNL d   1      33.240  21.943 -22.154  0.00  0.00     0.102 A 
ENDBRANCH   2  11
TORSDOF 1
ENDMDL
MODEL 7
REMARK VINA RESULT:      -2.0      2.550      4.665
REMARK  1 active torsions:
REMARK  status: ('A' for Active; 'I' for Inactive)
REMARK    1  A    between atoms: N_3  and  C_2 
ROOT
ATOM      1  N   UNL d   1      32.554  18.693 -22.878  0.00  0.00    -0.228 NA
ATOM      2  C   UNL d   1      32.948  19.416 -22.963  0.00  0.00     0.148 A 
ATOM      3  C   UNL d   1      32.456  18.198 -23.537  0.00  0.00     0.083 A 
ATOM      4  C   UNL d   1      33.241  19.641 -23.700  0.00  0.00     0.037 A 
ATOM      5  C   UNL d   1      32.752  18.430 -24.271  0.00  0.00     0.018 A 
ATOM      6  C   UNL d   1      33.146  19.153 -24.357  0.00  0.00     0.005 A 
ATOM      7  C   UNL d   1      32.064  17.477 -23.455  0.00  0.00     0.019 A 
ATOM      8  C   UNL d   1      32.657  17.942 -24.928  0.00  0.00     0.002 A 
ATOM      9  C   UNL d   1      31.968  16.988 -24.111  0.00  0.00     0.002 A 
ATOM     10  C   UNL d   1      32.266  17.222 -24.849  0.00  0.00     0.000 A 
ENDROOT
BRANCH   2  11
ATOM     11  N   UNL d   1      33.045  19.908 -22.305  0.00  0.00    -0.286 N 
ATOM     12  C   UNL d   1      33.141  19.577 -21.555  0.00  0.00     0.102 A 
ATOM     13  C   UNL d   1      33.237  20.067 -20.902  0.00  0.00     0.118 A 
ATOM     14  N   UNL d   1      33.237  20.885 -20.997  0.00  0.00    -0.239 NA
ATOM     15  C   UNL d   1      33.141  21.215 -21.747  0.00  0.00     0.118 A 
ATOM     16  C   UNL d   1      33.044  20.724 -22.404  0.00  0.00     0.102 A 
ENDBRANCH   2  11
TORSDOF 1
ENDMDL
MODEL 8
REMARK VINA RESULT:      -1.9      6.525      8.042
REMARK  1 active torsions:
REMARK  status: ('A' for Active; 'I' for Inactive)
REMARK    1  A    between atoms: N_3  and  C_2 
ROOT
ATOM      1  N   UNL d   1      33.152  22.075 -19.176  0.00  0.00    -0.228 NA
ATOM      2  C   UNL d   1      33.004  22.467 -19.890  0.00  0.00     0.148 A 
ATOM      3  C   UNL d   1      33.094  22.489 -18.459  0.00  0.00     0.083 A 
ATOM      4  C   UNL d   1      32.799  23.267 -19.885  0.00  0.00     0.037 A 
ATOM      5  C   UNL d   1      32.888  23.288 -18.462  0.00  0.00     0.018 A 
ATOM      6  C   UNL d   1      32.740  23.681 -19.176  0.00  0.00     0.005 A 
ATOM      7  C   UNL d   1      33.241  22.100 -17.746  0.00  0.00     0.019 A 
ATOM      8  C   UNL d   1      32.829  23.702 -17.754  0.00  0.00     0.002 A 
ATOM      9  C   UNL d   1      33.182  22.514 -17.037  0.00  0.00     0.002 A 
ATOM     10  C   UNL d   1      32.976  23.317 -17.040  0.00  0.00     0.000 A 
ENDROOT
BRANCH   2  11
ATOM     11  N   UNL d   1      33.063  22.054 -20.602  0.00  0.00    -0.286 N 
ATOM     12  C   UNL d   1      33.075  21.229 -20.600  0.00  0.00     0.102 A 
ATOM     13  C   UNL d   1      33.134  20.818 -21.309  0.00  0.00     0.118 A 
ATOM     14  N   UNL d   1      33.180  21.230 -22.021  0.00  0.00    -0.239 NA
ATOM     15  C   UNL d   1      33.168  22.054 -22.024  0.00  0.00     0.118 A 
ATOM     16  C   UNL d   1      33.109  22.468 -21.311  0.00  0.00     0.102 A 
ENDBRANCH   2  11
TORSDOF 1
ENDMDL
MODEL 9
REMARK VINA RESULT:      -1.7      6.421      7.295
REMARK  1 active torsions:
REMARK  status: ('A' for Active; 'I' for Inactive)
REMARK    1  A    between atoms: N_3  and  C_2 
ROOT
ATOM      1  N   UNL d   1      32.741  22.334 -22.147  0.00  0.00    -0.228 NA
ATOM      2  C   UNL d   1      32.986  22.998 -22.575  0.00  0.00     0.148 A 
ATOM      3  C   UNL d   1      32.745  22.355 -21.316  0.00  0.00     0.083 A 
ATOM      4  C   UNL d   1      33.233  23.676 -22.176  0.00  0.00     0.037 A 
ATOM      5  C   UNL d   1      32.993  23.037 -20.925  0.00  0.00     0.018 A 
ATOM      6  C   UNL d   1      33.238  23.702 -21.354  0.00  0.00     0.005 A 
ATOM      7  C   UNL d   1      32.501  21.693 -20.887  0.00  0.00     0.019 A 
ATOM      8  C   UNL d   1      32.999  23.063 -20.103  0.00  0.00     0.002 A 
ATOM      9  C   UNL d   1      32.506  21.719 -20.064  0.00  0.00     0.002 A 
ATOM     10  C   UNL d   1      32.756  22.405 -19.671  0.00  0.00     0.000 A 
ENDROOT
BRANCH   2  11
ATOM     11  N   UNL d   1      32.981  22.975 -23.401  0.00  0.00    -0.286 N 
ATOM     12  C   UNL d   1      32.717  23.628 -23.829  0.00  0.00     0.102 A 
ATOM     13  C   UNL d   1      32.712  23.604 -24.651  0.00  0.00     0.118 A 
ATOM     14  N   UNL d   1      32.971  22.929 -25.045  0.00  0.00    -0.239 NA
ATOM     15  C   UNL d   1      33.236  22.276 -24.617  0.00  0.00     0.118 A 
ATOM     16  C   UNL d   1      33.241  22.299 -23.791  0.00  0.00     0.102 A 
ENDBRANCH   2  11
TORSDOF 1
ENDMDL
