MODEL 1
REMARK VINA RESULT:      38.0      0.000      0.000
REMARK  5 active torsions:
REMARK  status: ('A' for Active; 'I' for Inactive)
REMARK    1  A    between atoms: C_2  and  C_3 
REMARK    2  A    between atoms: N_4  and  C_2 
REMARK    3  A    between atoms: C_10  and  N_4 
REMARK    4  A    between atoms: O_16  and  C_11 
REMARK    5  A    between atoms: C_19  and  O_16 
ROOT
ATOM      1  C   UNL d   1     -55.083-101.829 -40.643  0.00  0.00     0.153 C 
ATOM      2  S   UNL d   1     -54.746-101.230 -40.182  0.00  0.00    -0.056 SA
ENDROOT
BRANCH   1   3
ATOM      3  C   UNL d   1     -55.002-101.802 -41.463  0.00  0.00     0.109 A 
ATOM      4  N   UNL d   1     -55.118-101.088 -41.871  0.00  0.00    -0.243 NA
ATOM      5  C   UNL d   1     -55.038-101.061 -42.691  0.00  0.00     0.081 A 
ATOM      6  C   UNL d   1     -54.841-101.745 -43.110  0.00  0.00     0.018 A 
ATOM      7  C   UNL d   1     -55.153-100.350 -43.092  0.00  0.00     0.019 A 
ATOM      8  C   UNL d   1     -54.723-102.464 -42.713  0.00  0.00     0.003 A 
ATOM      9  C   UNL d   1     -54.760-101.719 -43.930  0.00  0.00     0.002 A 
ATOM     10  C   UNL d   1     -54.804-102.494 -41.887  0.00  0.00     0.021 A 
ATOM     11  C   UNL d   1     -54.876-101.008 -44.331  0.00  0.00     0.000 A 
ATOM     12  C   UNL d   1     -55.073-100.323 -43.913  0.00  0.00     0.002 A 
ENDBRANCH   1   3
BRANCH   1  13
ATOM     13  N   UNL d   1     -55.497-102.450 -40.288  0.00  0.00    -0.233 NA
BRANCH  13  14
ATOM     14  C   UNL d   1     -55.462-102.554 -39.467  0.00  0.00     0.083 A 
ATOM     15  C   UNL d   1     -54.746-102.438 -39.072  0.00  0.00     0.021 A 
ATOM     16  C   UNL d   1     -54.717-102.544 -38.255  0.00  0.00     0.026 A 
ATOM     17  C   UNL d   1     -55.394-102.761 -37.837  0.00  0.00     0.100 A 
ATOM     18  C   UNL d   1     -56.110-102.875 -38.243  0.00  0.00     0.026 A 
ATOM     19  C   UNL d   1     -56.144-102.771 -39.057  0.00  0.00     0.021 A 
BRANCH  17  20
ATOM     20  O   UNL d   1     -55.360-102.866 -37.013  0.00  0.00    -0.305 OA
BRANCH  20  21
ATOM     21  C   UNL d   1     -55.389-102.208 -36.514  0.00  0.00     0.123 C 
ATOM     22  C   UNL d   1     -55.042-102.245 -35.769  0.00  0.00     0.029 C 
ENDBRANCH  20  21
ENDBRANCH  17  20
ENDBRANCH  13  14
ENDBRANCH   1  13
TORSDOF 5
ENDMDL
