MODEL 1
REMARK VINA RESULT:      -4.7      0.000      0.000
REMARK  5 active torsions:
REMARK  status: ('A' for Active; 'I' for Inactive)
REMARK    1  A    between atoms: C_2  and  C_1 
REMARK       I    between atoms: N_3  and  C_1 
REMARK    2  A    between atoms: C_9  and  N_3 
REMARK    3  A    between atoms: N_8  and  C_6 
REMARK    4  A    between atoms: C_18  and  N_8 
REMARK    5  A    between atoms: C_19  and  N_8 
ROOT
ATOM      1  C   UNL d   1      56.794   0.018  32.199  0.00  0.00     0.064 A 
ATOM      2  C   UNL d   1      57.556  -0.162  30.748  0.00  0.00     0.135 A 
ATOM      3  C   UNL d   1      57.102   0.681  31.807  0.00  0.00     0.020 A 
ATOM      4  C   UNL d   1      56.865  -0.724  31.872  0.00  0.00     0.020 A 
ATOM      5  C   UNL d   1      57.485   0.580  31.075  0.00  0.00     0.034 A 
ATOM      6  C   UNL d   1      57.245  -0.819  31.146  0.00  0.00     0.034 A 
ENDROOT
BRANCH   2   7
ATOM      7  N   UNL d   1      57.933  -0.248  30.030  0.00  0.00    -0.365 NA
ATOM      8  C   UNL d   1      58.299  -0.325  29.307  0.00  0.00     0.330 C 
ATOM      9  O   UNL d   1      57.976   0.005  28.630  0.00  0.00    -0.251 OA
BRANCH   8  10
ATOM     10  C   UNL d   1      59.014  -0.745  29.251  0.00  0.00     0.090 A 
ATOM     11  C   UNL d   1      59.018  -1.551  29.060  0.00  0.00     0.016 A 
ATOM     12  C   UNL d   1      59.713  -1.963  29.005  0.00  0.00     0.054 A 
ATOM     13 BR   UNL d   1      59.712  -2.758  28.816  0.00  0.00    -0.048 Br
ATOM     14  C   UNL d   1      60.417  -1.586  29.139  0.00  0.00     0.106 A 
ATOM     15  N   UNL d   1      60.438  -0.790  29.329  0.00  0.00    -0.242 NA
ATOM     16  C   UNL d   1      59.718  -0.368  29.385  0.00  0.00     0.105 A 
ENDBRANCH   8  10
ENDBRANCH   2   7
BRANCH   1  17
ATOM     17  N   UNL d   1      56.415   0.123  32.925  0.00  0.00    -0.304 N 
BRANCH  17  18
ATOM     18  C   UNL d   1      56.681   0.682  33.455  0.00  0.00     0.080 C 
ATOM     19  C   UNL d   1      56.714   0.507  34.257  0.00  0.00     0.021 C 
ENDBRANCH  17  18
BRANCH  17  20
ATOM     20  C   UNL d   1      55.755  -0.350  33.110  0.00  0.00     0.080 C 
ATOM     21  C   UNL d   1      55.106  -0.006  33.486  0.00  0.00     0.021 C 
ENDBRANCH  17  20
ENDBRANCH   1  17
TORSDOF 5
ENDMDL
MODEL 2
REMARK VINA RESULT:      -4.3      0.832      1.181
REMARK  5 active torsions:
REMARK  status: ('A' for Active; 'I' for Inactive)
REMARK    1  A    between atoms: C_2  and  C_1 
REMARK       I    between atoms: N_3  and  C_1 
REMARK    2  A    between atoms: C_9  and  N_3 
REMARK    3  A    between atoms: N_8  and  C_6 
REMARK    4  A    between atoms: C_18  and  N_8 
REMARK    5  A    between atoms: C_19  and  N_8 
ROOT
ATOM      1  C   UNL d   1      56.809  -0.012  32.165  0.00  0.00     0.064 A 
ATOM      2  C   UNL d   1      57.568  -0.068  30.702  0.00  0.00     0.135 A 
ATOM      3  C   UNL d   1      57.006  -0.744  31.827  0.00  0.00     0.020 A 
ATOM      4  C   UNL d   1      56.988   0.681  31.778  0.00  0.00     0.020 A 
ATOM      5  C   UNL d   1      57.389  -0.762  31.088  0.00  0.00     0.034 A 
ATOM      6  C   UNL d   1      57.368   0.659  31.046  0.00  0.00     0.034 A 
ENDROOT
BRANCH   2   7
ATOM      7  N   UNL d   1      57.944  -0.099  29.979  0.00  0.00    -0.365 NA
ATOM      8  C   UNL d   1      58.306  -0.125  29.250  0.00  0.00     0.330 C 
ATOM      9  O   UNL d   1      57.924   0.141  28.576  0.00  0.00    -0.251 OA
BRANCH   8  10
ATOM     10  C   UNL d   1      59.078  -0.426  29.186  0.00  0.00     0.090 A 
ATOM     11  C   UNL d   1      59.735   0.060  29.321  0.00  0.00     0.016 A 
ATOM     12  C   UNL d   1      60.489  -0.231  29.260  0.00  0.00     0.054 A 
ATOM     13 BR   UNL d   1      61.133   0.253  29.394  0.00  0.00    -0.048 Br
ATOM     14  C   UNL d   1      60.606  -1.008  29.063  0.00  0.00     0.106 A 
ATOM     15  N   UNL d   1      59.972  -1.506  28.924  0.00  0.00    -0.242 NA
ATOM     16  C   UNL d   1      59.196  -1.202  28.989  0.00  0.00     0.105 A 
ENDBRANCH   8  10
ENDBRANCH   2   7
BRANCH   1  17
ATOM     17  N   UNL d   1      56.429   0.001  32.898  0.00  0.00    -0.304 N 
BRANCH  17  18
ATOM     18  C   UNL d   1      56.593   0.588  33.439  0.00  0.00     0.080 C 
ATOM     19  C   UNL d   1      56.422   0.476  34.234  0.00  0.00     0.021 C 
ENDBRANCH  17  18
BRANCH  17  20
ATOM     20  C   UNL d   1      55.875  -0.593  33.078  0.00  0.00     0.080 C 
ATOM     21  C   UNL d   1      55.124  -0.376  33.343  0.00  0.00     0.021 C 
ENDBRANCH  17  20
ENDBRANCH   1  17
TORSDOF 5
ENDMDL
MODEL 3
REMARK VINA RESULT:      -3.3      2.294      5.010
REMARK  5 active torsions:
REMARK  status: ('A' for Active; 'I' for Inactive)
REMARK    1  A    between atoms: C_2  and  C_1 
REMARK       I    between atoms: N_3  and  C_1 
REMARK    2  A    between atoms: C_9  and  N_3 
REMARK    3  A    between atoms: N_8  and  C_6 
REMARK    4  A    between atoms: C_18  and  N_8 
REMARK    5  A    between atoms: C_19  and  N_8 
ROOT
ATOM      1  C   UNL d   1      58.042  -0.228  30.510  0.00  0.00     0.064 A 
ATOM      2  C   UNL d   1      56.945  -0.607  31.681  0.00  0.00     0.135 A 
ATOM      3  C   UNL d   1      57.863  -1.022  30.669  0.00  0.00     0.020 A 
ATOM      4  C   UNL d   1      57.680   0.368  30.929  0.00  0.00     0.020 A 
ATOM      5  C   UNL d   1      57.307  -1.203  31.262  0.00  0.00     0.034 A 
ATOM      6  C   UNL d   1      57.130   0.184  31.516  0.00  0.00     0.034 A 
ENDROOT
BRANCH   2   7
ATOM      7  N   UNL d   1      56.402  -0.798  32.259  0.00  0.00    -0.365 NA
ATOM      8  C   UNL d   1      55.860  -1.003  32.831  0.00  0.00     0.330 C 
ATOM      9  O   UNL d   1      55.545  -1.759  32.866  0.00  0.00    -0.251 OA
BRANCH   8  10
ATOM     10  C   UNL d   1      55.619  -0.438  33.390  0.00  0.00     0.090 A 
ATOM     11  C   UNL d   1      56.140  -0.174  33.977  0.00  0.00     0.016 A 
ATOM     12  C   UNL d   1      55.908   0.377  34.524  0.00  0.00     0.054 A 
ATOM     13 BR   UNL d   1      56.426   0.634  35.102  0.00  0.00    -0.048 Br
ATOM     14  C   UNL d   1      55.157   0.679  34.499  0.00  0.00     0.106 A 
ATOM     15  N   UNL d   1      54.625   0.433  33.926  0.00  0.00    -0.242 NA
ATOM     16  C   UNL d   1      54.868  -0.136  33.364  0.00  0.00     0.105 A 
ENDBRANCH   8  10
ENDBRANCH   2   7
BRANCH   1  17
ATOM     17  N   UNL d   1      58.594  -0.052  29.921  0.00  0.00    -0.304 N 
BRANCH  17  18
ATOM     18  C   UNL d   1      59.370  -0.289  29.996  0.00  0.00     0.080 C 
ATOM     19  C   UNL d   1      59.975   0.264  29.960  0.00  0.00     0.021 C 
ENDBRANCH  17  18
BRANCH  17  20
ATOM     20  C   UNL d   1      58.347   0.372  29.248  0.00  0.00     0.080 C 
ATOM     21  C   UNL d   1      58.789   0.315  28.553  0.00  0.00     0.021 C 
ENDBRANCH  17  20
ENDBRANCH   1  17
TORSDOF 5
ENDMDL
MODEL 4
REMARK VINA RESULT:      -1.8      1.569      1.955
REMARK  5 active torsions:
REMARK  status: ('A' for Active; 'I' for Inactive)
REMARK    1  A    between atoms: C_2  and  C_1 
REMARK       I    between atoms: N_3  and  C_1 
REMARK    2  A    between atoms: C_9  and  N_3 
REMARK    3  A    between atoms: N_8  and  C_6 
REMARK    4  A    between atoms: C_18  and  N_8 
REMARK    5  A    between atoms: C_19  and  N_8 
ROOT
ATOM      1  C   UNL d   1      55.907  -0.130  33.144  0.00  0.00     0.064 A 
ATOM      2  C   UNL d   1      56.827  -0.506  31.828  0.00  0.00     0.135 A 
ATOM      3  C   UNL d   1      56.097  -0.921  32.983  0.00  0.00     0.020 A 
ATOM      4  C   UNL d   1      56.172   0.465  32.656  0.00  0.00     0.020 A 
ATOM      5  C   UNL d   1      56.562  -1.101  32.316  0.00  0.00     0.034 A 
ATOM      6  C   UNL d   1      56.633   0.282  31.996  0.00  0.00     0.034 A 
ENDROOT
BRANCH   2   7
ATOM      7  N   UNL d   1      57.281  -0.696  31.178  0.00  0.00    -0.365 NA
ATOM      8  C   UNL d   1      57.728  -0.898  30.528  0.00  0.00     0.330 C 
ATOM      9  O   UNL d   1      57.609  -1.607  30.135  0.00  0.00    -0.251 OA
BRANCH   8  10
ATOM     10  C   UNL d   1      58.316  -0.379  30.256  0.00  0.00     0.090 A 
ATOM     11  C   UNL d   1      58.906  -0.102  30.767  0.00  0.00     0.016 A 
ATOM     12  C   UNL d   1      59.481   0.406  30.504  0.00  0.00     0.054 A 
ATOM     13 BR   UNL d   1      60.061   0.676  31.013  0.00  0.00    -0.048 Br
ATOM     14  C   UNL d   1      59.483   0.648  29.732  0.00  0.00     0.106 A 
ATOM     15  N   UNL d   1      58.909   0.387  29.208  0.00  0.00    -0.242 NA
ATOM     16  C   UNL d   1      58.318  -0.136  29.483  0.00  0.00     0.105 A 
ENDBRANCH   8  10
ENDBRANCH   2   7
BRANCH   1  17
ATOM     17  N   UNL d   1      55.446   0.045  33.806  0.00  0.00    -0.304 N 
BRANCH  17  18
ATOM     18  C   UNL d   1      55.669  -0.212  34.547  0.00  0.00     0.080 C 
ATOM     19  C   UNL d   1      56.113   0.275  35.035  0.00  0.00     0.021 C 
ENDBRANCH  17  18
BRANCH  17  20
ATOM     20  C   UNL d   1      54.747   0.488  33.708  0.00  0.00     0.080 C 
ATOM     21  C   UNL d   1      54.055   0.235  34.082  0.00  0.00     0.021 C 
ENDBRANCH  17  20
ENDBRANCH   1  17
TORSDOF 5
ENDMDL
