MODEL 1
REMARK VINA RESULT:      -9.1      0.000      0.000
REMARK  7 active torsions:
REMARK  status: ('A' for Active; 'I' for Inactive)
REMARK    1  A    between atoms: C_4  and  C_1 
REMARK    2  A    between atoms: C_13  and  N_3 
REMARK    3  A    between atoms: C_15  and  N_5 
REMARK    4  A    between atoms: C_12  and  C_15 
REMARK    5  A    between atoms: C_18  and  C_13 
REMARK    6  A    between atoms: O_16  and  C_18 
REMARK    7  A    between atoms: C_17  and  O_16 
ROOT
ATOM      1  C   UNL d   1      52.673  34.108  53.591  0.00  0.00     0.149 A 
ATOM      2  N   UNL d   1      52.980  34.687  54.093  0.00  0.00    -0.227 NA
ATOM      3  N   UNL d   1      53.124  33.419  53.685  0.00  0.00    -0.287 N 
ATOM      4  C   UNL d   1      53.717  33.575  54.253  0.00  0.00     0.083 A 
ATOM      5  C   UNL d   1      53.623  34.359  54.500  0.00  0.00     0.099 A 
ATOM      6  C   UNL d   1      54.321  33.112  54.571  0.00  0.00     0.019 A 
ATOM      7  C   UNL d   1      54.132  34.678  55.064  0.00  0.00     0.021 A 
ATOM      8  C   UNL d   1      54.831  33.432  55.135  0.00  0.00     0.002 A 
ATOM      9  C   UNL d   1      54.737  34.208  55.380  0.00  0.00     0.002 A 
ENDROOT
BRANCH   1  10
ATOM     10  C   UNL d   1      52.028  34.191  53.079  0.00  0.00     0.057 A 
ATOM     11  C   UNL d   1      51.239  34.285  53.299  0.00  0.00     0.086 A 
ATOM     12  N   UNL d   1      50.789  34.346  52.608  0.00  0.00    -0.272 N 
ATOM     13  C   UNL d   1      51.304  34.289  51.963  0.00  0.00     0.265 A 
ATOM     14  C   UNL d   1      52.067  34.193  52.260  0.00  0.00     0.066 A 
ATOM     15  O   UNL d   1      51.086  34.322  51.169  0.00  0.00    -0.267 OA
BRANCH  12  16
ATOM     16  C   UNL d   1      49.969  34.447  52.578  0.00  0.00     0.083 C 
BRANCH  16  17
ATOM     17  C   UNL d   1      49.581  34.940  53.117  0.00  0.00     0.019 C 
ATOM     18  C   UNL d   1      48.826  35.230  52.949  0.00  0.00     0.002 C 
ENDBRANCH  16  17
ENDBRANCH  12  16
ENDBRANCH   1  10
BRANCH   3  19
ATOM     19  C   UNL d   1      52.884  32.784  53.217  0.00  0.00     0.108 C 
BRANCH  19  20
ATOM     20  C   UNL d   1      53.122  32.019  53.404  0.00  0.00     0.142 C 
BRANCH  20  21
ATOM     21  O   UNL d   1      52.937  31.395  52.906  0.00  0.00    -0.304 OA
BRANCH  21  22
ATOM     22  C   UNL d   1      52.928  30.624  53.193  0.00  0.00     0.100 A 
ATOM     23  C   UNL d   1      53.624  30.269  53.421  0.00  0.00     0.025 A 
ATOM     24  C   UNL d   1      53.612  29.500  53.707  0.00  0.00     0.002 A 
ATOM     25  C   UNL d   1      52.904  29.093  53.761  0.00  0.00     0.000 A 
ATOM     26  C   UNL d   1      52.203  29.465  53.526  0.00  0.00     0.002 A 
ATOM     27  C   UNL d   1      52.215  30.226  53.243  0.00  0.00     0.025 A 
ENDBRANCH  21  22
ENDBRANCH  20  21
ENDBRANCH  19  20
ENDBRANCH   3  19
TORSDOF 7
ENDMDL
MODEL 2
REMARK VINA RESULT:      -8.7      1.115      4.159
REMARK  7 active torsions:
REMARK  status: ('A' for Active; 'I' for Inactive)
REMARK    1  A    between atoms: C_4  and  C_1 
REMARK    2  A    between atoms: C_13  and  N_3 
REMARK    3  A    between atoms: C_15  and  N_5 
REMARK    4  A    between atoms: C_12  and  C_15 
REMARK    5  A    between atoms: C_18  and  C_13 
REMARK    6  A    between atoms: O_16  and  C_18 
REMARK    7  A    between atoms: C_17  and  O_16 
ROOT
ATOM      1  C   UNL d   1      53.677  32.300  54.047  0.00  0.00     0.149 A 
ATOM      2  N   UNL d   1      54.393  32.546  54.378  0.00  0.00    -0.227 NA
ATOM      3  N   UNL d   1      53.148  32.938  54.072  0.00  0.00    -0.287 N 
ATOM      4  C   UNL d   1      53.542  33.585  54.424  0.00  0.00     0.083 A 
ATOM      5  C   UNL d   1      54.309  33.336  54.610  0.00  0.00     0.099 A 
ATOM      6  C   UNL d   1      53.305  34.356  54.596  0.00  0.00     0.019 A 
ATOM      7  C   UNL d   1      54.837  33.859  54.968  0.00  0.00     0.021 A 
ATOM      8  C   UNL d   1      53.833  34.879  54.954  0.00  0.00     0.002 A 
ATOM      9  C   UNL d   1      54.592  34.633  55.138  0.00  0.00     0.002 A 
ENDROOT
BRANCH   1  10
ATOM     10  C   UNL d   1      53.508  31.551  53.740  0.00  0.00     0.057 A 
ATOM     11  C   UNL d   1      53.466  30.846  54.166  0.00  0.00     0.086 A 
ATOM     12  N   UNL d   1      53.283  30.239  53.635  0.00  0.00    -0.272 N 
ATOM     13  C   UNL d   1      53.214  30.572  52.881  0.00  0.00     0.265 A 
ATOM     14  C   UNL d   1      53.354  31.382  52.952  0.00  0.00     0.066 A 
ATOM     15  O   UNL d   1      53.037  30.163  52.188  0.00  0.00    -0.267 OA
BRANCH  12  16
ATOM     16  C   UNL d   1      53.189  29.442  53.833  0.00  0.00     0.083 C 
BRANCH  16  17
ATOM     17  C   UNL d   1      53.337  29.175  54.602  0.00  0.00     0.019 C 
ATOM     18  C   UNL d   1      53.359  28.365  54.765  0.00  0.00     0.002 C 
ENDBRANCH  16  17
ENDBRANCH  12  16
ENDBRANCH   1  10
BRANCH   3  19
ATOM     19  C   UNL d   1      52.402  32.778  53.759  0.00  0.00     0.108 C 
BRANCH  19  20
ATOM     20  C   UNL d   1      51.898  33.396  53.556  0.00  0.00     0.142 C 
BRANCH  20  21
ATOM     21  O   UNL d   1      51.100  33.255  53.434  0.00  0.00    -0.304 OA
BRANCH  21  22
ATOM     22  C   UNL d   1      50.654  33.772  52.975  0.00  0.00     0.100 A 
ATOM     23  C   UNL d   1      50.714  33.747  52.163  0.00  0.00     0.025 A 
ATOM     24  C   UNL d   1      50.267  34.263  51.708  0.00  0.00     0.002 A 
ATOM     25  C   UNL d   1      49.765  34.799  52.068  0.00  0.00     0.000 A 
ATOM     26  C   UNL d   1      49.712  34.814  52.894  0.00  0.00     0.002 A 
ATOM     27  C   UNL d   1      50.154  34.304  53.344  0.00  0.00     0.025 A 
ENDBRANCH  21  22
ENDBRANCH  20  21
ENDBRANCH  19  20
ENDBRANCH   3  19
TORSDOF 7
ENDMDL
MODEL 3
REMARK VINA RESULT:      -7.7      1.261      4.118
REMARK  7 active torsions:
REMARK  status: ('A' for Active; 'I' for Inactive)
REMARK    1  A    between atoms: C_4  and  C_1 
REMARK    2  A    between atoms: C_13  and  N_3 
REMARK    3  A    between atoms: C_15  and  N_5 
REMARK    4  A    between atoms: C_12  and  C_15 
REMARK    5  A    between atoms: C_18  and  C_13 
REMARK    6  A    between atoms: O_16  and  C_18 
REMARK    7  A    between atoms: C_17  and  O_16 
ROOT
ATOM      1  C   UNL d   1      53.745  32.101  54.097  0.00  0.00     0.149 A 
ATOM      2  N   UNL d   1      53.895  31.342  54.388  0.00  0.00    -0.227 NA
ATOM      3  N   UNL d   1      53.244  32.031  53.440  0.00  0.00    -0.287 N 
ATOM      4  C   UNL d   1      53.084  31.219  53.325  0.00  0.00     0.083 A 
ATOM      5  C   UNL d   1      53.488  30.801  53.913  0.00  0.00     0.099 A 
ATOM      6  C   UNL d   1      52.628  30.815  52.769  0.00  0.00     0.019 A 
ATOM      7  C   UNL d   1      53.436  29.978  53.943  0.00  0.00     0.021 A 
ATOM      8  C   UNL d   1      52.577  29.992  52.800  0.00  0.00     0.002 A 
ATOM      9  C   UNL d   1      52.977  29.578  53.382  0.00  0.00     0.002 A 
ENDROOT
BRANCH   1  10
ATOM     10  C   UNL d   1      54.039  32.812  54.402  0.00  0.00     0.057 A 
ATOM     11  C   UNL d   1      53.595  33.422  54.735  0.00  0.00     0.086 A 
ATOM     12  N   UNL d   1      54.118  34.020  54.963  0.00  0.00    -0.272 N 
ATOM     13  C   UNL d   1      54.884  33.778  54.768  0.00  0.00     0.265 A 
ATOM     14  C   UNL d   1      54.829  33.031  54.422  0.00  0.00     0.066 A 
ATOM     15  O   UNL d   1      55.574  34.209  54.900  0.00  0.00    -0.267 OA
BRANCH  12  16
ATOM     16  C   UNL d   1      53.901  34.734  55.321  0.00  0.00     0.083 C 
BRANCH  16  17
ATOM     17  C   UNL d   1      53.149  35.056  55.205  0.00  0.00     0.019 C 
ATOM     18  C   UNL d   1      53.052  35.875  55.139  0.00  0.00     0.002 C 
ENDBRANCH  16  17
ENDBRANCH  12  16
ENDBRANCH   1  10
BRANCH   3  19
ATOM     19  C   UNL d   1      53.042  32.747  53.085  0.00  0.00     0.108 C 
BRANCH  19  20
ATOM     20  C   UNL d   1      52.278  32.867  52.803  0.00  0.00     0.142 C 
BRANCH  20  21
ATOM     21  O   UNL d   1      52.119  33.490  52.295  0.00  0.00    -0.304 OA
BRANCH  21  22
ATOM     22  C   UNL d   1      51.365  33.818  52.264  0.00  0.00     0.100 A 
ATOM     23  C   UNL d   1      50.908  33.845  52.937  0.00  0.00     0.025 A 
ATOM     24  C   UNL d   1      50.156  34.173  52.903  0.00  0.00     0.002 A 
ATOM     25  C   UNL d   1      49.869  34.469  52.196  0.00  0.00     0.000 A 
ATOM     26  C   UNL d   1      50.343  34.435  51.519  0.00  0.00     0.002 A 
ATOM     27  C   UNL d   1      51.087  34.111  51.552  0.00  0.00     0.025 A 
ENDBRANCH  21  22
ENDBRANCH  20  21
ENDBRANCH  19  20
ENDBRANCH   3  19
TORSDOF 7
ENDMDL
MODEL 4
REMARK VINA RESULT:      -7.0      1.414      4.308
REMARK  7 active torsions:
REMARK  status: ('A' for Active; 'I' for Inactive)
REMARK    1  A    between atoms: C_4  and  C_1 
REMARK    2  A    between atoms: C_13  and  N_3 
REMARK    3  A    between atoms: C_15  and  N_5 
REMARK    4  A    between atoms: C_12  and  C_15 
REMARK    5  A    between atoms: C_18  and  C_13 
REMARK    6  A    between atoms: O_16  and  C_18 
REMARK    7  A    between atoms: C_17  and  O_16 
ROOT
ATOM      1  C   UNL d   1      51.981  32.041  52.993  0.00  0.00     0.149 A 
ATOM      2  N   UNL d   1      51.176  32.220  52.939  0.00  0.00    -0.227 NA
ATOM      3  N   UNL d   1      52.399  32.753  53.064  0.00  0.00    -0.287 N 
ATOM      4  C   UNL d   1      51.846  33.379  53.054  0.00  0.00     0.083 A 
ATOM      5  C   UNL d   1      51.094  33.043  52.976  0.00  0.00     0.099 A 
ATOM      6  C   UNL d   1      51.929  34.198  53.104  0.00  0.00     0.019 A 
ATOM      7  C   UNL d   1      50.427  33.527  52.949  0.00  0.00     0.021 A 
ATOM      8  C   UNL d   1      51.262  34.682  53.077  0.00  0.00     0.002 A 
ATOM      9  C   UNL d   1      50.517  34.350  53.000  0.00  0.00     0.002 A 
ENDROOT
BRANCH   1  10
ATOM     10  C   UNL d   1      52.319  31.286  52.980  0.00  0.00     0.057 A 
ATOM     11  C   UNL d   1      52.338  30.748  53.604  0.00  0.00     0.086 A 
ATOM     12  N   UNL d   1      52.730  30.069  53.341  0.00  0.00    -0.272 N 
ATOM     13  C   UNL d   1      52.952  30.191  52.554  0.00  0.00     0.265 A 
ATOM     14  C   UNL d   1      52.696  30.945  52.336  0.00  0.00     0.066 A 
ATOM     15  O   UNL d   1      53.357  29.653  52.078  0.00  0.00    -0.267 OA
BRANCH  12  16
ATOM     16  C   UNL d   1      52.870  29.392  53.795  0.00  0.00     0.083 C 
BRANCH  16  17
ATOM     17  C   UNL d   1      53.241  29.443  54.531  0.00  0.00     0.019 C 
ATOM     18  C   UNL d   1      53.330  28.769  55.001  0.00  0.00     0.002 C 
ENDBRANCH  16  17
ENDBRANCH  12  16
ENDBRANCH   1  10
BRANCH   3  19
ATOM     19  C   UNL d   1      53.217  32.666  53.125  0.00  0.00     0.108 C 
BRANCH  19  20
ATOM     20  C   UNL d   1      53.649  33.157  53.624  0.00  0.00     0.142 C 
BRANCH  20  21
ATOM     21  O   UNL d   1      54.427  32.977  53.807  0.00  0.00    -0.304 OA
BRANCH  21  22
ATOM     22  C   UNL d   1      54.795  33.334  54.451  0.00  0.00     0.100 A 
ATOM     23  C   UNL d   1      55.420  33.841  54.330  0.00  0.00     0.025 A 
ATOM     24  C   UNL d   1      55.785  34.195  54.974  0.00  0.00     0.002 A 
ATOM     25  C   UNL d   1      55.520  34.040  55.733  0.00  0.00     0.000 A 
ATOM     26  C   UNL d   1      54.884  33.523  55.843  0.00  0.00     0.002 A 
ATOM     27  C   UNL d   1      54.523  33.172  55.206  0.00  0.00     0.025 A 
ENDBRANCH  21  22
ENDBRANCH  20  21
ENDBRANCH  19  20
ENDBRANCH   3  19
TORSDOF 7
ENDMDL
MODEL 5
REMARK VINA RESULT:      -6.5      1.187      3.473
REMARK  7 active torsions:
REMARK  status: ('A' for Active; 'I' for Inactive)
REMARK    1  A    between atoms: C_4  and  C_1 
REMARK    2  A    between atoms: C_13  and  N_3 
REMARK    3  A    between atoms: C_15  and  N_5 
REMARK    4  A    between atoms: C_12  and  C_15 
REMARK    5  A    between atoms: C_18  and  C_13 
REMARK    6  A    between atoms: O_16  and  C_18 
REMARK    7  A    between atoms: C_17  and  O_16 
ROOT
ATOM      1  C   UNL d   1      51.738  34.535  53.382  0.00  0.00     0.149 A 
ATOM      2  N   UNL d   1      51.052  34.994  53.420  0.00  0.00    -0.227 NA
ATOM      3  N   UNL d   1      51.607  33.920  52.842  0.00  0.00    -0.287 N 
ATOM      4  C   UNL d   1      50.831  34.000  52.543  0.00  0.00     0.083 A 
ATOM      5  C   UNL d   1      50.495  34.664  52.904  0.00  0.00     0.099 A 
ATOM      6  C   UNL d   1      50.396  33.560  51.998  0.00  0.00     0.019 A 
ATOM      7  C   UNL d   1      49.722  34.887  52.719  0.00  0.00     0.021 A 
ATOM      8  C   UNL d   1      49.623  33.784  51.813  0.00  0.00     0.002 A 
ATOM      9  C   UNL d   1      49.290  34.441  52.170  0.00  0.00     0.002 A 
ENDROOT
BRANCH   1  10
ATOM     10  C   UNL d   1      52.438  34.661  53.805  0.00  0.00     0.057 A 
ATOM     11  C   UNL d   1      52.697  34.231  54.459  0.00  0.00     0.086 A 
ATOM     12  N   UNL d   1      53.421  34.549  54.700  0.00  0.00    -0.272 N 
ATOM     13  C   UNL d   1      53.607  35.175  54.192  0.00  0.00     0.265 A 
ATOM     14  C   UNL d   1      52.996  35.239  53.641  0.00  0.00     0.066 A 
ATOM     15  O   UNL d   1      54.282  35.646  54.235  0.00  0.00    -0.267 OA
BRANCH  12  16
ATOM     16  C   UNL d   1      53.873  34.281  55.339  0.00  0.00     0.083 C 
BRANCH  16  17
ATOM     17  C   UNL d   1      54.387  33.638  55.256  0.00  0.00     0.019 C 
ATOM     18  C   UNL d   1      54.707  33.272  55.923  0.00  0.00     0.002 C 
ENDBRANCH  16  17
ENDBRANCH  12  16
ENDBRANCH   1  10
BRANCH   3  19
ATOM     19  C   UNL d   1      52.247  33.410  52.742  0.00  0.00     0.108 C 
BRANCH  19  20
ATOM     20  C   UNL d   1      52.133  32.595  52.762  0.00  0.00     0.142 C 
BRANCH  20  21
ATOM     21  O   UNL d   1      52.695  32.091  52.442  0.00  0.00    -0.304 OA
BRANCH  21  22
ATOM     22  C   UNL d   1      52.862  31.372  52.806  0.00  0.00     0.100 A 
ATOM     23  C   UNL d   1      52.272  30.820  52.900  0.00  0.00     0.025 A 
ATOM     24  C   UNL d   1      52.442  30.104  53.263  0.00  0.00     0.002 A 
ATOM     25  C   UNL d   1      53.200  29.947  53.528  0.00  0.00     0.000 A 
ATOM     26  C   UNL d   1      53.792  30.517  53.426  0.00  0.00     0.002 A 
ATOM     27  C   UNL d   1      53.624  31.225  53.067  0.00  0.00     0.025 A 
ENDBRANCH  21  22
ENDBRANCH  20  21
ENDBRANCH  19  20
ENDBRANCH   3  19
TORSDOF 7
ENDMDL
