MODEL 1
REMARK VINA RESULT:      93.3      0.000      0.000
REMARK  4 active torsions:
REMARK  status: ('A' for Active; 'I' for Inactive)
REMARK    1  A    between atoms: S_3  and  N_1 
REMARK    2  A    between atoms: C_9  and  S_3 
REMARK    3  A    between atoms: C_10  and  N_5 
REMARK    4  A    between atoms: C_15  and  C_10 
ROOT
ATOM      1  N   UNL d   1     -57.309 -99.326 -43.590  0.00  0.00    -0.195 N 
ATOM      2  C   UNL d   1     -57.761 -99.211 -44.267  0.00  0.00     0.193 A 
ATOM      3  C   UNL d   1     -58.517 -98.986 -44.043  0.00  0.00     0.185 A 
ATOM      4  N   UNL d   1     -58.545 -98.957 -43.218  0.00  0.00    -0.269 N 
ATOM      5  C   UNL d   1     -57.793 -99.169 -42.943  0.00  0.00     0.179 A 
ATOM      6  N   UNL d   1     -57.582 -99.284 -45.067  0.00  0.00    -0.223 NA
ATOM      7  N   UNL d   1     -59.097 -98.832 -44.612  0.00  0.00    -0.224 NA
ATOM      8  C   UNL d   1     -58.149 -99.133 -45.633  0.00  0.00     0.101 A 
ATOM      9  C   UNL d   1     -58.913 -98.906 -45.411  0.00  0.00     0.101 A 
ATOM     10  C   UNL d   1     -59.479 -98.755 -45.984  0.00  0.00     0.021 A 
ATOM     11  C   UNL d   1     -57.966 -99.207 -46.430  0.00  0.00     0.021 A 
ATOM     12  C   UNL d   1     -59.285 -98.832 -46.782  0.00  0.00     0.002 A 
ATOM     13  C   UNL d   1     -58.533 -99.056 -47.003  0.00  0.00     0.002 A 
ENDROOT
BRANCH   1  14
ATOM     14  S   UNL d   1     -56.494 -99.570 -43.874  0.00  0.00     0.274 S 
ATOM     15  O   UNL d   1     -55.873 -98.940 -43.895  0.00  0.00    -0.200 OA
ATOM     16  O   UNL d   1     -56.439 -98.756 -43.695  0.00  0.00    -0.200 OA
BRANCH  14  17
ATOM     17  C   UNL d   1     -56.177-100.286 -44.132  0.00  0.00     0.104 A 
ATOM     18  C   UNL d   1     -55.525-100.289 -44.636  0.00  0.00     0.015 A 
ATOM     19  C   UNL d   1     -55.203-101.012 -44.898  0.00  0.00     0.030 A 
ATOM     20  C   UNL d   1     -55.541-101.720 -44.650  0.00  0.00     0.140 A 
ATOM     21  C   UNL d   1     -56.202-101.716 -44.138  0.00  0.00     0.030 A 
ATOM     22  F   UNL d   1     -55.177-102.406 -44.944  0.00  0.00    -0.204 F 
ATOM     23  C   UNL d   1     -56.515-101.000 -43.884  0.00  0.00     0.015 A 
ENDBRANCH  14  17
ENDBRANCH   1  14
BRANCH   4  24
ATOM     24  C   UNL d   1     -59.199 -98.755 -42.756  0.00  0.00     0.108 C 
BRANCH  24  25
ATOM     25  C   UNL d   1     -59.419 -99.233 -42.114  0.00  0.00     0.118 A 
ATOM     26  O   UNL d   1     -59.869 -99.927 -42.158  0.00  0.00    -0.304 OA
ATOM     27  C   UNL d   1     -59.960-100.231 -41.381  0.00  0.00     0.123 A 
ATOM     28  C   UNL d   1     -59.563 -99.718 -40.864  0.00  0.00     0.029 A 
ATOM     29  C   UNL d   1     -59.231 -99.104 -41.320  0.00  0.00     0.028 A 
ENDBRANCH  24  25
ENDBRANCH   4  24
TORSDOF 4
ENDMDL
