MODEL 1
REMARK VINA RESULT:      -9.3      0.000      0.000
REMARK  7 active torsions:
REMARK  status: ('A' for Active; 'I' for Inactive)
REMARK    1  A    between atoms: N_2  and  S_1 
REMARK    2  A    between atoms: C_3  and  S_1 
REMARK       I    between atoms: C_4  and  N_9 
REMARK    3  A    between atoms: C_10  and  C_4 
REMARK    4  A    between atoms: C_12  and  C_6 
REMARK    5  A    between atoms: N_9  and  C_12 
REMARK    6  A    between atoms: O_22  and  C_19 
REMARK    7  A    between atoms: C_25  and  O_22 
ROOT
ATOM      1  N   UNL d   1      53.491  31.992  53.611  0.00  0.00    -0.229 N 
ATOM      2  C   UNL d   1      52.830  32.219  53.170  0.00  0.00     0.094 A 
ATOM      3  C   UNL d   1      53.585  31.168  53.529  0.00  0.00     0.092 A 
ATOM      4  C   UNL d   1      52.523  31.535  52.820  0.00  0.00     0.021 A 
ATOM      5  C   UNL d   1      52.988  30.893  53.043  0.00  0.00     0.021 A 
ENDROOT
BRANCH   2   6
ATOM      6  C   UNL d   1      52.600  33.011  53.147  0.00  0.00     0.120 C 
BRANCH   6   7
ATOM      7  N   UNL d   1      51.848  33.210  52.891  0.00  0.00    -0.205 NA
ATOM      8  C   UNL d   1      51.673  33.989  52.732  0.00  0.00     0.279 C 
ATOM      9  O   UNL d   1      52.239  34.585  52.825  0.00  0.00    -0.265 OA
BRANCH   8  10
ATOM     10  C   UNL d   1      50.904  34.197  52.469  0.00  0.00     0.058 A 
ATOM     11  C   UNL d   1      50.719  34.154  51.666  0.00  0.00     0.007 A 
ATOM     12  C   UNL d   1      49.972  34.356  51.403  0.00  0.00     0.025 A 
ATOM     13  C   UNL d   1      49.396  34.605  51.947  0.00  0.00     0.100 A 
ATOM     14  C   UNL d   1      49.581  34.648  52.750  0.00  0.00     0.025 A 
ATOM     15  C   UNL d   1      50.341  34.441  53.003  0.00  0.00     0.007 A 
BRANCH  13  16
ATOM     16  O   UNL d   1      48.641  34.808  51.675  0.00  0.00    -0.305 OA
BRANCH  16  17
ATOM     17  C   UNL d   1      48.252  35.474  51.970  0.00  0.00     0.123 C 
ATOM     18  C   UNL d   1      47.500  35.667  51.694  0.00  0.00     0.029 C 
ENDBRANCH  16  17
ENDBRANCH  13  16
ENDBRANCH   8  10
ENDBRANCH   6   7
ENDBRANCH   2   6
BRANCH   1  19
ATOM     19  S   UNL d   1      53.971  32.496  54.054  0.00  0.00     0.277 S 
ATOM     20  O   UNL d   1      53.501  32.357  54.721  0.00  0.00    -0.199 OA
ATOM     21  O   UNL d   1      54.440  32.633  53.384  0.00  0.00    -0.199 OA
BRANCH  19  22
ATOM     22  C   UNL d   1      54.453  33.004  54.504  0.00  0.00     0.133 A 
ATOM     23  S   UNL d   1      54.408  33.248  55.294  0.00  0.00    -0.074 SA
ATOM     24  C   UNL d   1      55.038  33.755  55.432  0.00  0.00     0.036 A 
ATOM     25  C   UNL d   1      55.465  33.820  54.732  0.00  0.00     0.008 A 
ATOM     26  C   UNL d   1      55.106  33.361  54.166  0.00  0.00     0.020 A 
ENDBRANCH  19  22
ENDBRANCH   1  19
TORSDOF 7
ENDMDL
MODEL 2
REMARK VINA RESULT:      -7.2      1.209      2.145
REMARK  7 active torsions:
REMARK  status: ('A' for Active; 'I' for Inactive)
REMARK    1  A    between atoms: N_2  and  S_1 
REMARK    2  A    between atoms: C_3  and  S_1 
REMARK       I    between atoms: C_4  and  N_9 
REMARK    3  A    between atoms: C_10  and  C_4 
REMARK    4  A    between atoms: C_12  and  C_6 
REMARK    5  A    between atoms: N_9  and  C_12 
REMARK    6  A    between atoms: O_22  and  C_19 
REMARK    7  A    between atoms: C_25  and  O_22 
ROOT
ATOM      1  N   UNL d   1      53.183  34.018  53.847  0.00  0.00    -0.229 N 
ATOM      2  C   UNL d   1      52.491  34.425  53.655  0.00  0.00     0.094 A 
ATOM      3  C   UNL d   1      53.741  34.573  54.123  0.00  0.00     0.092 A 
ATOM      4  C   UNL d   1      52.625  35.226  53.814  0.00  0.00     0.021 A 
ATOM      5  C   UNL d   1      53.392  35.312  54.100  0.00  0.00     0.021 A 
ENDROOT
BRANCH   2   6
ATOM      6  C   UNL d   1      51.836  34.015  53.364  0.00  0.00     0.120 C 
BRANCH   6   7
ATOM      7  N   UNL d   1      51.205  34.428  53.045  0.00  0.00    -0.205 NA
ATOM      8  C   UNL d   1      50.488  34.054  52.953  0.00  0.00     0.279 C 
ATOM      9  O   UNL d   1      50.383  33.264  53.176  0.00  0.00    -0.265 OA
BRANCH   8  10
ATOM     10  C   UNL d   1      49.838  34.474  52.627  0.00  0.00     0.058 A 
ATOM     11  C   UNL d   1      49.640  34.371  51.832  0.00  0.00     0.007 A 
ATOM     12  C   UNL d   1      49.009  34.776  51.508  0.00  0.00     0.025 A 
ATOM     13  C   UNL d   1      48.565  35.294  51.981  0.00  0.00     0.100 A 
ATOM     14  C   UNL d   1      48.763  35.396  52.776  0.00  0.00     0.025 A 
ATOM     15  C   UNL d   1      49.403  34.980  53.091  0.00  0.00     0.007 A 
BRANCH  13  16
ATOM     16  O   UNL d   1      47.926  35.702  51.648  0.00  0.00    -0.305 OA
BRANCH  16  17
ATOM     17  C   UNL d   1      47.163  35.606  51.947  0.00  0.00     0.123 C 
ATOM     18  C   UNL d   1      46.526  35.975  51.575  0.00  0.00     0.029 C 
ENDBRANCH  16  17
ENDBRANCH  13  16
ENDBRANCH   8  10
ENDBRANCH   6   7
ENDBRANCH   2   6
BRANCH   1  19
ATOM     19  S   UNL d   1      53.299  33.204  53.776  0.00  0.00     0.277 S 
ATOM     20  O   UNL d   1      53.037  33.099  54.553  0.00  0.00    -0.199 OA
ATOM     21  O   UNL d   1      53.561  33.313  52.996  0.00  0.00    -0.199 OA
BRANCH  19  22
ATOM     22  C   UNL d   1      53.414  32.382  53.706  0.00  0.00     0.133 A 
ATOM     23  S   UNL d   1      53.336  31.869  53.061  0.00  0.00    -0.074 SA
ATOM     24  C   UNL d   1      53.523  31.114  53.322  0.00  0.00     0.036 A 
ATOM     25  C   UNL d   1      53.715  31.165  54.121  0.00  0.00     0.008 A 
ATOM     26  C   UNL d   1      53.648  31.941  54.354  0.00  0.00     0.020 A 
ENDBRANCH  19  22
ENDBRANCH   1  19
TORSDOF 7
ENDMDL
MODEL 3
REMARK VINA RESULT:      -6.7      1.942      5.186
REMARK  7 active torsions:
REMARK  status: ('A' for Active; 'I' for Inactive)
REMARK    1  A    between atoms: N_2  and  S_1 
REMARK    2  A    between atoms: C_3  and  S_1 
REMARK       I    between atoms: C_4  and  N_9 
REMARK    3  A    between atoms: C_10  and  C_4 
REMARK    4  A    between atoms: C_12  and  C_6 
REMARK    5  A    between atoms: N_9  and  C_12 
REMARK    6  A    between atoms: O_22  and  C_19 
REMARK    7  A    between atoms: C_25  and  O_22 
ROOT
ATOM      1  N   UNL d   1      52.141  34.407  53.409  0.00  0.00    -0.229 N 
ATOM      2  C   UNL d   1      52.673  33.777  53.457  0.00  0.00     0.094 A 
ATOM      3  C   UNL d   1      52.431  35.028  53.883  0.00  0.00     0.092 A 
ATOM      4  C   UNL d   1      53.286  34.014  53.959  0.00  0.00     0.021 A 
ATOM      5  C   UNL d   1      53.134  34.780  54.218  0.00  0.00     0.021 A 
ENDROOT
BRANCH   2   6
ATOM      6  C   UNL d   1      52.528  33.080  53.041  0.00  0.00     0.120 C 
BRANCH   6   7
ATOM      7  N   UNL d   1      52.718  32.357  53.377  0.00  0.00    -0.205 NA
ATOM      8  C   UNL d   1      52.755  31.695  52.906  0.00  0.00     0.279 C 
ATOM      9  O   UNL d   1      52.605  31.735  52.093  0.00  0.00    -0.265 OA
BRANCH   8  10
ATOM     10  C   UNL d   1      52.950  30.952  53.246  0.00  0.00     0.058 A 
ATOM     11  C   UNL d   1      52.403  30.335  53.224  0.00  0.00     0.007 A 
ATOM     12  C   UNL d   1      52.585  29.610  53.554  0.00  0.00     0.025 A 
ATOM     13  C   UNL d   1      53.325  29.494  53.911  0.00  0.00     0.100 A 
ATOM     14  C   UNL d   1      53.872  30.111  53.933  0.00  0.00     0.025 A 
ATOM     15  C   UNL d   1      53.675  30.840  53.596  0.00  0.00     0.007 A 
BRANCH  13  16
ATOM     16  O   UNL d   1      53.506  28.757  54.244  0.00  0.00    -0.305 OA
BRANCH  16  17
ATOM     17  C   UNL d   1      53.340  28.601  55.037  0.00  0.00     0.123 C 
ATOM     18  C   UNL d   1      53.634  27.917  55.392  0.00  0.00     0.029 C 
ENDBRANCH  16  17
ENDBRANCH  13  16
ENDBRANCH   8  10
ENDBRANCH   6   7
ENDBRANCH   2   6
BRANCH   1  19
ATOM     19  S   UNL d   1      51.444  34.416  52.966  0.00  0.00     0.277 S 
ATOM     20  O   UNL d   1      51.020  34.163  53.630  0.00  0.00    -0.199 OA
ATOM     21  O   UNL d   1      51.872  34.669  52.303  0.00  0.00    -0.199 OA
BRANCH  19  22
ATOM     22  C   UNL d   1      50.739  34.424  52.522  0.00  0.00     0.133 A 
ATOM     23  S   UNL d   1      49.944  34.447  52.755  0.00  0.00    -0.074 SA
ATOM     24  C   UNL d   1      49.489  34.444  52.072  0.00  0.00     0.036 A 
ATOM     25  C   UNL d   1      50.001  34.419  51.428  0.00  0.00     0.008 A 
ATOM     26  C   UNL d   1      50.765  34.407  51.706  0.00  0.00     0.020 A 
ENDBRANCH  19  22
ENDBRANCH   1  19
TORSDOF 7
ENDMDL
