MODEL 1
REMARK VINA RESULT:      30.9      0.000      0.000
REMARK  3 active torsions:
REMARK  status: ('A' for Active; 'I' for Inactive)
REMARK    1  A    between atoms: C_8  and  C_2 
REMARK    2  A    between atoms: C_9  and  C_3 
REMARK    3  A    between atoms: N_6  and  C_8 
ROOT
ATOM      1  N   UNL d   1      12.802  11.818  -2.589  0.00  0.00    -0.121 NA
ATOM      2  C   UNL d   1      13.641  12.236  -1.639  0.00  0.00     0.222 A 
ATOM      3  C   UNL d   1      13.370  12.293  -2.949  0.00  0.00     0.204 A 
ATOM      4  O   UNL d   1      13.889  12.551  -2.355  0.00  0.00    -0.267 OA
ATOM      5  N   UNL d   1      12.965  11.779  -1.780  0.00  0.00    -0.119 NA
ENDROOT
BRANCH   2   6
ATOM      6  C   UNL d   1      13.998  12.350  -0.900  0.00  0.00     0.127 C 
BRANCH   6   7
ATOM      7  N   UNL d   1      14.772  12.628  -0.852  0.00  0.00    -0.301 N 
ATOM      8  C   UNL d   1      14.910  13.386  -0.573  0.00  0.00     0.064 A 
ATOM      9  C   UNL d   1      15.681  13.675  -0.521  0.00  0.00     0.016 A 
ATOM     10  C   UNL d   1      14.289  13.867  -0.343  0.00  0.00     0.018 A 
ATOM     11  C   UNL d   1      15.827  14.430  -0.244  0.00  0.00     0.001 A 
ATOM     12  C   UNL d   1      16.310  13.190  -0.753  0.00  0.00     0.003 A 
ATOM     13  C   UNL d   1      15.203  14.908  -0.015  0.00  0.00     0.000 A 
ATOM     14  C   UNL d   1      14.426  14.625  -0.065  0.00  0.00     0.002 A 
ATOM     15  C   UNL d   1      16.170  12.429  -1.032  0.00  0.00     0.019 A 
ATOM     16  C   UNL d   1      15.392  12.143  -1.083  0.00  0.00     0.080 A 
ENDBRANCH   6   7
ENDBRANCH   2   6
BRANCH   3  17
ATOM     17  C   UNL d   1      13.413  12.479  -3.753  0.00  0.00     0.043 A 
ATOM     18  C   UNL d   1      13.295  11.883  -4.313  0.00  0.00     0.004 A 
ATOM     19  C   UNL d   1      13.338  12.064  -5.118  0.00  0.00     0.000 A 
ATOM     20  C   UNL d   1      13.499  12.840  -5.356  0.00  0.00     0.000 A 
ATOM     21  C   UNL d   1      13.616  13.432  -4.790  0.00  0.00     0.000 A 
ATOM     22  C   UNL d   1      13.572  13.247  -3.988  0.00  0.00     0.004 A 
ENDBRANCH   3  17
TORSDOF 3
ENDMDL
MODEL 2
REMARK VINA RESULT:      32.5      1.664      2.486
REMARK  3 active torsions:
REMARK  status: ('A' for Active; 'I' for Inactive)
REMARK    1  A    between atoms: C_8  and  C_2 
REMARK    2  A    between atoms: C_9  and  C_3 
REMARK    3  A    between atoms: N_6  and  C_8 
ROOT
ATOM      1  N   UNL d   1      12.958  12.934  -4.794  0.00  0.00    -0.121 NA
ATOM      2  C   UNL d   1      13.206  12.352  -3.619  0.00  0.00     0.222 A 
ATOM      3  C   UNL d   1      13.262  13.510  -4.290  0.00  0.00     0.204 A 
ATOM      4  O   UNL d   1      13.415  13.144  -3.560  0.00  0.00    -0.267 OA
ATOM      5  N   UNL d   1      12.921  12.218  -4.384  0.00  0.00    -0.119 NA
ENDROOT
BRANCH   2   6
ATOM      6  C   UNL d   1      13.266  11.781  -3.021  0.00  0.00     0.127 C 
BRANCH   6   7
ATOM      7  N   UNL d   1      13.912  11.783  -2.509  0.00  0.00    -0.301 N 
ATOM      8  C   UNL d   1      13.784  11.783  -1.700  0.00  0.00     0.064 A 
ATOM      9  C   UNL d   1      14.423  11.785  -1.178  0.00  0.00     0.016 A 
ATOM     10  C   UNL d   1      13.023  11.782  -1.397  0.00  0.00     0.018 A 
ATOM     11  C   UNL d   1      14.303  11.785  -0.371  0.00  0.00     0.001 A 
ATOM     12  C   UNL d   1      15.192  11.786  -1.483  0.00  0.00     0.003 A 
ATOM     13  C   UNL d   1      13.542  11.784  -0.071  0.00  0.00     0.000 A 
ATOM     14  C   UNL d   1      12.894  11.783  -0.588  0.00  0.00     0.002 A 
ATOM     15  C   UNL d   1      15.319  11.786  -2.296  0.00  0.00     0.019 A 
ATOM     16  C   UNL d   1      14.672  11.784  -2.817  0.00  0.00     0.080 A 
ENDBRANCH   6   7
ENDBRANCH   2   6
BRANCH   3  17
ATOM     17  C   UNL d   1      13.391  14.305  -4.477  0.00  0.00     0.043 A 
ATOM     18  C   UNL d   1      13.987  14.721  -4.084  0.00  0.00     0.004 A 
ATOM     19  C   UNL d   1      14.119  15.515  -4.267  0.00  0.00     0.000 A 
ATOM     20  C   UNL d   1      13.655  15.887  -4.842  0.00  0.00     0.000 A 
ATOM     21  C   UNL d   1      13.059  15.464  -5.231  0.00  0.00     0.000 A 
ATOM     22  C   UNL d   1      12.931  14.672  -5.045  0.00  0.00     0.004 A 
ENDBRANCH   3  17
TORSDOF 3
ENDMDL
MODEL 3
REMARK VINA RESULT:      33.3      0.842      4.148
REMARK  3 active torsions:
REMARK  status: ('A' for Active; 'I' for Inactive)
REMARK    1  A    between atoms: C_8  and  C_2 
REMARK    2  A    between atoms: C_9  and  C_3 
REMARK    3  A    between atoms: N_6  and  C_8 
ROOT
ATOM      1  N   UNL d   1      14.165  11.939  -1.619  0.00  0.00    -0.121 NA
ATOM      2  C   UNL d   1      13.353  12.505  -2.514  0.00  0.00     0.222 A 
ATOM      3  C   UNL d   1      14.261  12.754  -1.562  0.00  0.00     0.204 A 
ATOM      4  O   UNL d   1      13.754  13.103  -2.120  0.00  0.00    -0.267 OA
ATOM      5  N   UNL d   1      13.605  11.779  -2.205  0.00  0.00    -0.119 NA
ENDROOT
BRANCH   2   6
ATOM      6  C   UNL d   1      12.791  12.601  -3.116  0.00  0.00     0.127 C 
BRANCH   6   7
ATOM      7  N   UNL d   1      13.018  12.550  -3.906  0.00  0.00    -0.301 N 
ATOM      8  C   UNL d   1      13.009  13.224  -4.371  0.00  0.00     0.064 A 
ATOM      9  C   UNL d   1      13.234  13.185  -5.164  0.00  0.00     0.016 A 
ATOM     10  C   UNL d   1      12.778  13.945  -4.059  0.00  0.00     0.018 A 
ATOM     11  C   UNL d   1      13.227  13.852  -5.634  0.00  0.00     0.001 A 
ATOM     12  C   UNL d   1      13.467  12.457  -5.481  0.00  0.00     0.003 A 
ATOM     13  C   UNL d   1      12.996  14.571  -5.319  0.00  0.00     0.000 A 
ATOM     14  C   UNL d   1      12.769  14.620  -4.524  0.00  0.00     0.002 A 
ATOM     15  C   UNL d   1      13.476  11.780  -5.013  0.00  0.00     0.019 A 
ATOM     16  C   UNL d   1      13.249  11.826  -4.215  0.00  0.00     0.080 A 
ENDBRANCH   6   7
ENDBRANCH   2   6
BRANCH   3  17
ATOM     17  C   UNL d   1      14.768  13.152  -1.044  0.00  0.00     0.043 A 
ATOM     18  C   UNL d   1      15.449  12.771  -0.772  0.00  0.00     0.004 A 
ATOM     19  C   UNL d   1      15.958  13.165  -0.255  0.00  0.00     0.000 A 
ATOM     20  C   UNL d   1      15.783  13.937  -0.014  0.00  0.00     0.000 A 
ATOM     21  C   UNL d   1      15.100  14.312  -0.291  0.00  0.00     0.000 A 
ATOM     22  C   UNL d   1      14.594  13.916  -0.807  0.00  0.00     0.004 A 
ENDBRANCH   3  17
TORSDOF 3
ENDMDL
