MODEL 1
REMARK VINA RESULT:      76.6      0.000      0.000
REMARK  2 active torsions:
REMARK  status: ('A' for Active; 'I' for Inactive)
REMARK    1  A    between atoms: N_11  and  C_4 
REMARK    2  A    between atoms: C_16  and  N_12 
ROOT
ATOM      1  N   UNL d   1      13.840  13.916  -3.303  0.00  0.00    -0.195 N 
ATOM      2  C   UNL d   1      13.852  13.202  -2.922  0.00  0.00     0.168 A 
ATOM      3  C   UNL d   1      14.203  13.127  -2.209  0.00  0.00     0.073 A 
ATOM      4  C   UNL d   1      13.485  13.973  -4.016  0.00  0.00     0.153 A 
ATOM      5  N   UNL d   1      14.530  14.485  -2.260  0.00  0.00    -0.143 NA
ATOM      6  C   UNL d   1      14.542  13.770  -1.879  0.00  0.00     0.185 A 
ATOM      7  N   UNL d   1      13.508  12.563  -3.263  0.00  0.00    -0.227 NA
ATOM      8  C   UNL d   1      14.214  12.420  -1.831  0.00  0.00     0.007 A 
ATOM      9  N   UNL d   1      14.901  13.710  -1.157  0.00  0.00    -0.225 NA
ATOM     10  C   UNL d   1      13.143  13.343  -4.356  0.00  0.00     0.057 A 
ATOM     11  C   UNL d   1      14.565  12.346  -1.118  0.00  0.00     0.019 A 
ATOM     12  C   UNL d   1      13.155  12.628  -3.975  0.00  0.00     0.086 A 
ATOM     13  C   UNL d   1      14.913  12.996  -0.775  0.00  0.00     0.083 A 
ATOM     14  C   UNL d   1      13.868  11.779  -2.175  0.00  0.00     0.000 C 
ATOM     15  C   UNL d   1      12.797  11.966  -4.332  0.00  0.00     0.021 C 
ATOM     16  C   UNL d   1      15.264  12.928  -0.066  0.00  0.00     0.021 C 
ENDROOT
BRANCH   4  17
ATOM     17  N   UNL d   1      13.477  14.714  -4.402  0.00  0.00    -0.286 N 
ATOM     18  C   UNL d   1      12.789  15.168  -4.472  0.00  0.00     0.101 A 
ATOM     19  C   UNL d   1      12.818  15.899  -4.862  0.00  0.00     0.100 A 
ATOM     20  N   UNL d   1      13.532  16.178  -5.183  0.00  0.00    -0.301 N 
ATOM     21  C   UNL d   1      14.236  15.722  -5.117  0.00  0.00     0.100 A 
ATOM     22  C   UNL d   1      14.203  14.992  -4.726  0.00  0.00     0.101 A 
BRANCH  20  23
ATOM     23  C   UNL d   1      13.557  16.908  -5.573  0.00  0.00     0.064 A 
ATOM     24  C   UNL d   1      14.240  17.373  -5.546  0.00  0.00     0.016 A 
ATOM     25  C   UNL d   1      14.903  17.112  -5.131  0.00  0.00     0.002 C 
ATOM     26  C   UNL d   1      14.266  18.115  -5.941  0.00  0.00     0.001 A 
ATOM     27  C   UNL d   1      13.595  18.387  -6.365  0.00  0.00     0.000 A 
ATOM     28  C   UNL d   1      12.904  17.910  -6.389  0.00  0.00     0.002 A 
ATOM     29  C   UNL d   1      12.887  17.177  -5.995  0.00  0.00     0.018 A 
ENDBRANCH  20  23
ENDBRANCH   4  17
TORSDOF 2
ENDMDL
