MODEL 1
REMARK VINA RESULT:      -1.1      0.000      0.000
REMARK  6 active torsions:
REMARK  status: ('A' for Active; 'I' for Inactive)
REMARK    1  A    between atoms: O_8  and  C_1 
REMARK    2  A    between atoms: C_10  and  C_5 
REMARK    3  A    between atoms: C_12  and  O_8 
REMARK    4  A    between atoms: N_9  and  C_10 
REMARK    5  A    between atoms: O_24  and  C_17 
REMARK    6  A    between atoms: C_28  and  O_24 
ROOT
ATOM      1  C   UNL d   1      33.240  21.466 -21.816  0.00  0.00     0.161 A 
ATOM      2  C   UNL d   1      33.240  20.376 -23.069  0.00  0.00     0.108 A 
ATOM      3  C   UNL d   1      33.240  21.193 -23.232  0.00  0.00     0.064 A 
ATOM      4  C   UNL d   1      33.240  21.733 -22.606  0.00  0.00     0.222 A 
ATOM      5  C   UNL d   1      33.240  19.834 -23.695  0.00  0.00     0.079 A 
ATOM      6  O   UNL d   1      33.240  20.094 -22.289  0.00  0.00    -0.305 OA
ATOM      7  C   UNL d   1      33.240  20.648 -21.658  0.00  0.00     0.126 A 
ATOM      8  C   UNL d   1      33.239  21.454 -24.008  0.00  0.00     0.009 A 
ATOM      9  C   UNL d   1      33.240  20.105 -24.472  0.00  0.00     0.199 A 
ATOM     10  O   UNL d   1      33.239  22.544 -22.763  0.00  0.00    -0.284 OA
ATOM     11  C   UNL d   1      33.239  20.915 -24.629  0.00  0.00     0.042 A 
ATOM     12  O   UNL d   1      33.239  19.564 -25.094  0.00  0.00    -0.286 OA
ATOM     13  C   UNL d   1      33.241  20.378 -20.880  0.00  0.00     0.029 C 
ENDROOT
BRANCH   1  14
ATOM     14  O   UNL d   1      33.240  22.011 -21.195  0.00  0.00    -0.300 OA
BRANCH  14  15
ATOM     15  C   UNL d   1      32.584  22.495 -21.079  0.00  0.00     0.123 A 
ATOM     16  C   UNL d   1      32.413  22.779 -20.325  0.00  0.00     0.123 A 
ATOM     17  C   UNL d   1      31.762  23.260 -20.203  0.00  0.00     0.027 A 
ATOM     18  C   UNL d   1      31.273  23.464 -20.834  0.00  0.00     0.002 A 
ATOM     19  C   UNL d   1      31.444  23.178 -21.599  0.00  0.00     0.002 A 
ATOM     20  C   UNL d   1      32.099  22.694 -21.716  0.00  0.00     0.027 A 
BRANCH  16  21
ATOM     21  O   UNL d   1      32.900  22.577 -19.691  0.00  0.00    -0.303 OA
BRANCH  21  22
ATOM     22  C   UNL d   1      32.670  22.763 -18.923  0.00  0.00     0.123 C 
ATOM     23  C   UNL d   1      33.233  22.926 -18.345  0.00  0.00     0.029 C 
ENDBRANCH  21  22
ENDBRANCH  16  21
ENDBRANCH  14  15
ENDBRANCH   1  14
BRANCH   5  24
ATOM     24  C   UNL d   1      33.240  19.023 -23.546  0.00  0.00     0.086 C 
BRANCH  24  25
ATOM     25  N   UNL d   1      32.558  18.580 -23.712  0.00  0.00    -0.300 N 
ATOM     26  C   UNL d   1      32.323  17.970 -23.206  0.00  0.00     0.100 A 
ATOM     27  C   UNL d   1      31.648  17.536 -23.374  0.00  0.00     0.100 A 
ATOM     28  N   UNL d   1      31.200  17.703 -24.046  0.00  0.00    -0.299 N 
ATOM     29  C   UNL d   1      31.435  18.314 -24.553  0.00  0.00     0.100 A 
ATOM     30  C   UNL d   1      30.523  17.267 -24.214  0.00  0.00     0.100 C 
ATOM     31  C   UNL d   1      32.118  18.757 -24.387  0.00  0.00     0.100 A 
ENDBRANCH  24  25
ENDBRANCH   5  24
TORSDOF 6
ENDMDL
MODEL 2
REMARK VINA RESULT:       0.6      1.017      1.720
REMARK  6 active torsions:
REMARK  status: ('A' for Active; 'I' for Inactive)
REMARK    1  A    between atoms: O_8  and  C_1 
REMARK    2  A    between atoms: C_10  and  C_5 
REMARK    3  A    between atoms: C_12  and  O_8 
REMARK    4  A    between atoms: N_9  and  C_10 
REMARK    5  A    between atoms: O_24  and  C_17 
REMARK    6  A    between atoms: C_28  and  O_24 
ROOT
ATOM      1  C   UNL d   1      33.241  21.315 -21.236  0.00  0.00     0.161 A 
ATOM      2  C   UNL d   1      33.240  19.862 -22.041  0.00  0.00     0.108 A 
ATOM      3  C   UNL d   1      33.241  19.874 -21.208  0.00  0.00     0.064 A 
ATOM      4  C   UNL d   1      33.241  20.599 -20.810  0.00  0.00     0.222 A 
ATOM      5  C   UNL d   1      33.240  19.137 -22.439  0.00  0.00     0.079 A 
ATOM      6  O   UNL d   1      33.240  20.566 -22.480  0.00  0.00    -0.305 OA
ATOM      7  C   UNL d   1      33.241  21.299 -22.069  0.00  0.00     0.126 A 
ATOM      8  C   UNL d   1      33.241  19.170 -20.790  0.00  0.00     0.009 A 
ATOM      9  C   UNL d   1      33.240  18.434 -22.012  0.00  0.00     0.199 A 
ATOM     10  O   UNL d   1      33.241  20.615 -19.984  0.00  0.00    -0.284 OA
ATOM     11  C   UNL d   1      33.241  18.450 -21.188  0.00  0.00     0.042 A 
ATOM     12  O   UNL d   1      33.240  17.713 -22.411  0.00  0.00    -0.286 OA
ATOM     13  C   UNL d   1      33.241  22.004 -22.496  0.00  0.00     0.029 C 
ENDROOT
BRANCH   1  14
ATOM     14  O   UNL d   1      33.241  22.036 -20.833  0.00  0.00    -0.300 OA
BRANCH  14  15
ATOM     15  C   UNL d   1      32.586  22.533 -20.889  0.00  0.00     0.123 A 
ATOM     16  C   UNL d   1      32.289  22.895 -20.211  0.00  0.00     0.123 A 
ATOM     17  C   UNL d   1      31.638  23.390 -20.259  0.00  0.00     0.027 A 
ATOM     18  C   UNL d   1      31.276  23.529 -20.987  0.00  0.00     0.002 A 
ATOM     19  C   UNL d   1      31.575  23.164 -21.674  0.00  0.00     0.002 A 
ATOM     20  C   UNL d   1      32.230  22.667 -21.620  0.00  0.00     0.027 A 
BRANCH  16  21
ATOM     21  O   UNL d   1      32.648  22.758 -19.481  0.00  0.00    -0.303 OA
BRANCH  21  22
ATOM     22  C   UNL d   1      32.605  23.329 -18.891  0.00  0.00     0.123 C 
ATOM     23  C   UNL d   1      33.173  23.359 -18.296  0.00  0.00     0.029 C 
ENDBRANCH  21  22
ENDBRANCH  16  21
ENDBRANCH  14  15
ENDBRANCH   1  14
BRANCH   5  24
ATOM     24  C   UNL d   1      33.240  19.113 -23.264  0.00  0.00     0.086 C 
BRANCH  24  25
ATOM     25  N   UNL d   1      32.613  18.740 -23.658  0.00  0.00    -0.300 N 
ATOM     26  C   UNL d   1      31.844  19.038 -23.595  0.00  0.00     0.100 A 
ATOM     27  C   UNL d   1      31.227  18.666 -23.987  0.00  0.00     0.100 A 
ATOM     28  N   UNL d   1      31.367  17.994 -24.445  0.00  0.00    -0.299 N 
ATOM     29  C   UNL d   1      32.136  17.695 -24.508  0.00  0.00     0.100 A 
ATOM     30  C   UNL d   1      30.748  17.621 -24.837  0.00  0.00     0.100 C 
ATOM     31  C   UNL d   1      32.765  18.069 -24.113  0.00  0.00     0.100 A 
ENDBRANCH  24  25
ENDBRANCH   5  24
TORSDOF 6
ENDMDL
