MODEL 1
REMARK VINA RESULT:      28.8      0.000      0.000
REMARK  3 active torsions:
REMARK  status: ('A' for Active; 'I' for Inactive)
REMARK    1  A    between atoms: O_9  and  C_1 
REMARK    2  A    between atoms: C_13  and  O_9 
REMARK    3  A    between atoms: C_16  and  C_11 
ROOT
ATOM      1  C   UNL d   1      13.461  12.993  -3.383  0.00  0.00     0.161 A 
ATOM      2  C   UNL d   1      14.101  12.980  -2.107  0.00  0.00     0.064 A 
ATOM      3  C   UNL d   1      13.908  13.379  -2.791  0.00  0.00     0.222 A 
ATOM      4  C   UNL d   1      13.865  12.202  -1.986  0.00  0.00     0.106 A 
ATOM      5  C   UNL d   1      13.221  12.199  -3.260  0.00  0.00     0.126 A 
ATOM      6  O   UNL d   1      13.436  11.822  -2.549  0.00  0.00    -0.305 OA
ATOM      7  C   UNL d   1      14.542  13.382  -1.536  0.00  0.00     0.008 A 
ATOM      8  C   UNL d   1      14.071  11.824  -1.295  0.00  0.00     0.067 A 
ATOM      9  C   UNL d   1      14.507  12.204  -0.718  0.00  0.00     0.198 A 
ATOM     10  C   UNL d   1      14.747  12.997  -0.841  0.00  0.00     0.039 A 
ATOM     11  O   UNL d   1      14.143  14.158  -2.912  0.00  0.00    -0.284 OA
ATOM     12  O   UNL d   1      14.704  11.787  -0.014  0.00  0.00    -0.286 OA
ATOM     13  C   UNL d   1      12.771  11.780  -3.834  0.00  0.00     0.029 C 
ENDROOT
BRANCH   1  14
ATOM     14  O   UNL d   1      13.264  13.410  -4.087  0.00  0.00    -0.302 OA
BRANCH  14  15
ATOM     15  C   UNL d   1      13.440  13.073  -4.829  0.00  0.00     0.100 A 
ATOM     16  C   UNL d   1      13.228  12.293  -4.984  0.00  0.00     0.025 A 
ATOM     17  C   UNL d   1      13.402  11.969  -5.709  0.00  0.00     0.002 A 
ATOM     18  C   UNL d   1      13.795  12.422  -6.301  0.00  0.00     0.000 A 
ATOM     19  C   UNL d   1      14.001  13.201  -6.129  0.00  0.00     0.002 A 
ATOM     20  C   UNL d   1      13.822  13.528  -5.389  0.00  0.00     0.025 A 
ENDBRANCH  14  15
ENDBRANCH   1  14
BRANCH  10  21
ATOM     21  C   UNL d   1      15.197  13.417  -0.267  0.00  0.00     0.003 C 
ATOM     22  C   UNL d   1      15.012  14.214  -0.083  0.00  0.00     0.000 C 
ENDBRANCH  10  21
TORSDOF 3
ENDMDL
