MODEL 1
REMARK VINA RESULT:      -6.9      0.000      0.000
REMARK  5 active torsions:
REMARK  status: ('A' for Active; 'I' for Inactive)
REMARK    1  A    between atoms: N_14  and  C_6 
REMARK    2  A    between atoms: C_20  and  N_14 
REMARK    3  A    between atoms: N_15  and  C_21 
REMARK    4  A    between atoms: C_17  and  C_20 
REMARK    5  A    between atoms: C_21  and  C_17 
ROOT
ATOM      1  N   UNL d   1     -47.627  12.838  22.933  0.00  0.00    -0.183 N 
ATOM      2  C   UNL d   1     -47.928  13.564  22.668  0.00  0.00     0.169 A 
ATOM      3  C   UNL d   1     -48.710  13.633  22.439  0.00  0.00     0.073 A 
ATOM      4  C   UNL d   1     -49.190  12.972  22.477  0.00  0.00     0.185 A 
ATOM      5  N   UNL d   1     -48.889  12.246  22.742  0.00  0.00    -0.142 NA
ATOM      6  C   UNL d   1     -46.843  12.788  23.158  0.00  0.00     0.218 A 
ATOM      7  N   UNL d   1     -47.436  14.221  22.634  0.00  0.00    -0.226 NA
ATOM      8  C   UNL d   1     -49.007  14.352  22.176  0.00  0.00     0.007 A 
ATOM      9  N   UNL d   1     -49.984  13.026  22.248  0.00  0.00    -0.225 NA
ATOM     10  C   UNL d   1     -46.352  13.435  23.126  0.00  0.00     0.071 A 
ATOM     11  C   UNL d   1     -49.789  14.421  21.948  0.00  0.00     0.019 A 
ATOM     12  C   UNL d   1     -46.653  14.162  22.861  0.00  0.00     0.087 A 
ATOM     13  C   UNL d   1     -50.285  13.753  21.983  0.00  0.00     0.083 A 
ATOM     14  C   UNL d   1     -48.512  15.012  22.143  0.00  0.00     0.000 C 
ATOM     15  C   UNL d   1     -46.139  14.843  22.827  0.00  0.00     0.021 C 
ATOM     16  C   UNL d   1     -51.064  13.815  21.757  0.00  0.00     0.021 C 
ENDROOT
BRANCH   6  17
ATOM     17  N   UNL d   1     -46.541  12.035  23.430  0.00  0.00    -0.380 NA
BRANCH  17  18
ATOM     18  C   UNL d   1     -46.189  11.319  23.698  0.00  0.00     0.164 C 
BRANCH  18  19
ATOM     19  C   UNL d   1     -45.423  11.093  23.405  0.00  0.00     0.054 C 
BRANCH  19  20
ATOM     20  C   UNL d   1     -45.059  10.377  23.694  0.00  0.00     0.083 C 
BRANCH  20  21
ATOM     21  N   UNL d   1     -44.231  10.231  23.560  0.00  0.00    -0.300 N 
ATOM     22  C   UNL d   1     -44.337   9.389  23.635  0.00  0.00     0.100 C 
ATOM     23  C   UNL d   1     -43.451  10.533  23.404  0.00  0.00     0.100 C 
ENDBRANCH  20  21
ENDBRANCH  19  20
ENDBRANCH  18  19
ENDBRANCH  17  18
ENDBRANCH   6  17
TORSDOF 5
ENDMDL
MODEL 2
REMARK VINA RESULT:      -6.4      1.729      2.444
REMARK  5 active torsions:
REMARK  status: ('A' for Active; 'I' for Inactive)
REMARK    1  A    between atoms: N_14  and  C_6 
REMARK    2  A    between atoms: C_20  and  N_14 
REMARK    3  A    between atoms: N_15  and  C_21 
REMARK    4  A    between atoms: C_17  and  C_20 
REMARK    5  A    between atoms: C_21  and  C_17 
ROOT
ATOM      1  N   UNL d   1     -47.939  13.722  22.877  0.00  0.00    -0.183 N 
ATOM      2  C   UNL d   1     -48.700  13.533  23.152  0.00  0.00     0.169 A 
ATOM      3  C   UNL d   1     -49.275  14.111  23.215  0.00  0.00     0.073 A 
ATOM      4  C   UNL d   1     -49.087  14.878  23.003  0.00  0.00     0.185 A 
ATOM      5  N   UNL d   1     -48.326  15.066  22.728  0.00  0.00    -0.142 NA
ATOM      6  C   UNL d   1     -47.378  13.131  22.821  0.00  0.00     0.218 A 
ATOM      7  N   UNL d   1     -48.877  12.759  23.362  0.00  0.00    -0.226 NA
ATOM      8  C   UNL d   1     -50.027  13.925  23.486  0.00  0.00     0.007 A 
ATOM      9  N   UNL d   1     -49.659  15.474  23.061  0.00  0.00    -0.225 NA
ATOM     10  C   UNL d   1     -47.549  12.364  23.027  0.00  0.00     0.071 A 
ATOM     11  C   UNL d   1     -50.603  14.502  23.550  0.00  0.00     0.019 A 
ATOM     12  C   UNL d   1     -48.309  12.175  23.302  0.00  0.00     0.087 A 
ATOM     13  C   UNL d   1     -50.419  15.286  23.336  0.00  0.00     0.083 A 
ATOM     14  C   UNL d   1     -50.205  13.147  23.697  0.00  0.00     0.000 C 
ATOM     15  C   UNL d   1     -48.490  11.370  23.520  0.00  0.00     0.021 C 
ATOM     16  C   UNL d   1     -50.987  15.866  23.397  0.00  0.00     0.021 C 
ENDROOT
BRANCH   6  17
ATOM     17  N   UNL d   1     -46.596  13.334  22.537  0.00  0.00    -0.380 NA
BRANCH  17  18
ATOM     18  C   UNL d   1     -45.845  13.516  22.203  0.00  0.00     0.164 C 
BRANCH  18  19
ATOM     19  C   UNL d   1     -45.232  12.927  22.203  0.00  0.00     0.054 C 
BRANCH  19  20
ATOM     20  C   UNL d   1     -44.518  13.067  21.756  0.00  0.00     0.083 C 
BRANCH  20  21
ATOM     21  N   UNL d   1     -43.849  12.548  21.842  0.00  0.00    -0.300 N 
ATOM     22  C   UNL d   1     -43.424  12.944  21.219  0.00  0.00     0.100 C 
ATOM     23  C   UNL d   1     -43.478  11.890  22.236  0.00  0.00     0.100 C 
ENDBRANCH  20  21
ENDBRANCH  19  20
ENDBRANCH  18  19
ENDBRANCH  17  18
ENDBRANCH   6  17
TORSDOF 5
ENDMDL
MODEL 3
REMARK VINA RESULT:      -6.3      1.091      1.484
REMARK  5 active torsions:
REMARK  status: ('A' for Active; 'I' for Inactive)
REMARK    1  A    between atoms: N_14  and  C_6 
REMARK    2  A    between atoms: C_20  and  N_14 
REMARK    3  A    between atoms: N_15  and  C_21 
REMARK    4  A    between atoms: C_17  and  C_20 
REMARK    5  A    between atoms: C_21  and  C_17 
ROOT
ATOM      1  N   UNL d   1     -47.249  12.721  23.024  0.00  0.00    -0.183 N 
ATOM      2  C   UNL d   1     -47.970  13.128  23.074  0.00  0.00     0.169 A 
ATOM      3  C   UNL d   1     -48.666  12.726  23.230  0.00  0.00     0.073 A 
ATOM      4  C   UNL d   1     -48.636  11.916  23.335  0.00  0.00     0.185 A 
ATOM      5  N   UNL d   1     -47.914  11.509  23.284  0.00  0.00    -0.142 NA
ATOM      6  C   UNL d   1     -46.565  13.140  22.868  0.00  0.00     0.218 A 
ATOM      7  N   UNL d   1     -47.988  13.943  22.967  0.00  0.00    -0.226 NA
ATOM      8  C   UNL d   1     -49.380  13.129  23.279  0.00  0.00     0.007 A 
ATOM      9  N   UNL d   1     -49.331  11.495  23.493  0.00  0.00    -0.225 NA
ATOM     10  C   UNL d   1     -46.577  13.946  22.761  0.00  0.00     0.071 A 
ATOM     11  C   UNL d   1     -50.075  12.727  23.435  0.00  0.00     0.019 A 
ATOM     12  C   UNL d   1     -47.298  14.352  22.811  0.00  0.00     0.087 A 
ATOM     13  C   UNL d   1     -50.053  11.902  23.543  0.00  0.00     0.083 A 
ATOM     14  C   UNL d   1     -49.396  13.947  23.171  0.00  0.00     0.000 C 
ATOM     15  C   UNL d   1     -47.313  15.199  22.699  0.00  0.00     0.021 C 
ATOM     16  C   UNL d   1     -50.741  11.496  23.698  0.00  0.00     0.021 C 
ENDROOT
BRANCH   6  17
ATOM     17  N   UNL d   1     -45.825  12.713  22.818  0.00  0.00    -0.380 NA
BRANCH  17  18
ATOM     18  C   UNL d   1     -45.097  12.303  22.709  0.00  0.00     0.164 C 
BRANCH  18  19
ATOM     19  C   UNL d   1     -44.974  11.558  23.099  0.00  0.00     0.054 C 
BRANCH  19  20
ATOM     20  C   UNL d   1     -44.203  11.192  23.067  0.00  0.00     0.083 C 
BRANCH  20  21
ATOM     21  N   UNL d   1     -44.086  10.408  23.379  0.00  0.00    -0.300 N 
ATOM     22  C   UNL d   1     -43.240  10.474  23.308  0.00  0.00     0.100 C 
ATOM     23  C   UNL d   1     -44.416   9.686  23.688  0.00  0.00     0.100 C 
ENDBRANCH  20  21
ENDBRANCH  19  20
ENDBRANCH  18  19
ENDBRANCH  17  18
ENDBRANCH   6  17
TORSDOF 5
ENDMDL
MODEL 4
REMARK VINA RESULT:      -5.8      1.693      2.120
REMARK  5 active torsions:
REMARK  status: ('A' for Active; 'I' for Inactive)
REMARK    1  A    between atoms: N_14  and  C_6 
REMARK    2  A    between atoms: C_20  and  N_14 
REMARK    3  A    between atoms: N_15  and  C_21 
REMARK    4  A    between atoms: C_17  and  C_20 
REMARK    5  A    between atoms: C_21  and  C_17 
ROOT
ATOM      1  N   UNL d   1     -47.675  13.075  22.892  0.00  0.00    -0.183 N 
ATOM      2  C   UNL d   1     -48.442  13.388  22.947  0.00  0.00     0.169 A 
ATOM      3  C   UNL d   1     -49.077  12.907  23.134  0.00  0.00     0.073 A 
ATOM      4  C   UNL d   1     -48.941  12.112  23.265  0.00  0.00     0.185 A 
ATOM      5  N   UNL d   1     -48.175  11.798  23.210  0.00  0.00    -0.142 NA
ATOM      6  C   UNL d   1     -47.054  13.570  22.704  0.00  0.00     0.218 A 
ATOM      7  N   UNL d   1     -48.565  14.189  22.813  0.00  0.00    -0.226 NA
ATOM      8  C   UNL d   1     -49.835  13.218  23.189  0.00  0.00     0.007 A 
ATOM      9  N   UNL d   1     -49.574  11.612  23.455  0.00  0.00    -0.225 NA
ATOM     10  C   UNL d   1     -47.171  14.364  22.570  0.00  0.00     0.071 A 
ATOM     11  C   UNL d   1     -50.469  12.738  23.375  0.00  0.00     0.019 A 
ATOM     12  C   UNL d   1     -47.937  14.677  22.626  0.00  0.00     0.087 A 
ATOM     13  C   UNL d   1     -50.340  11.926  23.511  0.00  0.00     0.083 A 
ATOM     14  C   UNL d   1     -49.958  14.023  23.054  0.00  0.00     0.000 C 
ATOM     15  C   UNL d   1     -48.062  15.511  22.486  0.00  0.00     0.021 C 
ATOM     16  C   UNL d   1     -50.968  11.442  23.697  0.00  0.00     0.021 C 
ENDROOT
BRANCH   6  17
ATOM     17  N   UNL d   1     -46.266  13.239  22.649  0.00  0.00    -0.380 NA
BRANCH  17  18
ATOM     18  C   UNL d   1     -45.489  12.916  22.655  0.00  0.00     0.164 C 
BRANCH  18  19
ATOM     19  C   UNL d   1     -44.959  13.088  22.012  0.00  0.00     0.054 C 
BRANCH  19  20
ATOM     20  C   UNL d   1     -44.333  12.537  21.828  0.00  0.00     0.083 C 
BRANCH  20  21
ATOM     21  N   UNL d   1     -43.592  12.818  21.518  0.00  0.00    -0.300 N 
ATOM     22  C   UNL d   1     -43.169  12.156  21.849  0.00  0.00     0.100 C 
ATOM     23  C   UNL d   1     -43.156  13.402  21.077  0.00  0.00     0.100 C 
ENDBRANCH  20  21
ENDBRANCH  19  20
ENDBRANCH  18  19
ENDBRANCH  17  18
ENDBRANCH   6  17
TORSDOF 5
ENDMDL
MODEL 5
REMARK VINA RESULT:      -5.0      8.567      9.232
REMARK  5 active torsions:
REMARK  status: ('A' for Active; 'I' for Inactive)
REMARK    1  A    between atoms: N_14  and  C_6 
REMARK    2  A    between atoms: C_20  and  N_14 
REMARK    3  A    between atoms: N_15  and  C_21 
REMARK    4  A    between atoms: C_17  and  C_20 
REMARK    5  A    between atoms: C_21  and  C_17 
ROOT
ATOM      1  N   UNL d   1     -39.450  14.755  19.177  0.00  0.00    -0.183 N 
ATOM      2  C   UNL d   1     -39.525  14.515  18.386  0.00  0.00     0.169 A 
ATOM      3  C   UNL d   1     -40.079  14.862  17.896  0.00  0.00     0.073 A 
ATOM      4  C   UNL d   1     -40.558  15.451  18.200  0.00  0.00     0.185 A 
ATOM      5  N   UNL d   1     -40.483  15.691  18.991  0.00  0.00    -0.142 NA
ATOM      6  C   UNL d   1     -38.890  14.396  19.652  0.00  0.00     0.218 A 
ATOM      7  N   UNL d   1     -39.038  13.922  18.092  0.00  0.00    -0.226 NA
ATOM      8  C   UNL d   1     -40.154  14.625  17.113  0.00  0.00     0.007 A 
ATOM      9  N   UNL d   1     -41.125  15.812  17.715  0.00  0.00    -0.225 NA
ATOM     10  C   UNL d   1     -38.406  13.810  19.366  0.00  0.00     0.071 A 
ATOM     11  C   UNL d   1     -40.708  14.971  16.623  0.00  0.00     0.019 A 
ATOM     12  C   UNL d   1     -38.481  13.569  18.575  0.00  0.00     0.087 A 
ATOM     13  C   UNL d   1     -41.200  15.572  16.925  0.00  0.00     0.083 A 
ATOM     14  C   UNL d   1     -39.664  14.029  16.819  0.00  0.00     0.000 C 
ATOM     15  C   UNL d   1     -37.973  12.953  18.272  0.00  0.00     0.021 C 
ATOM     16  C   UNL d   1     -41.754  15.922  16.441  0.00  0.00     0.021 C 
ENDROOT
BRANCH   6  17
ATOM     17  N   UNL d   1     -38.819  14.650  20.466  0.00  0.00    -0.380 NA
BRANCH  17  18
ATOM     18  C   UNL d   1     -38.771  14.954  21.250  0.00  0.00     0.164 C 
BRANCH  18  19
ATOM     19  C   UNL d   1     -38.939  14.442  21.908  0.00  0.00     0.054 C 
BRANCH  19  20
ATOM     20  C   UNL d   1     -38.650  14.651  22.684  0.00  0.00     0.083 C 
BRANCH  20  21
ATOM     21  N   UNL d   1     -38.519  14.048  23.270  0.00  0.00    -0.300 N 
ATOM     22  C   UNL d   1     -37.971  14.541  23.698  0.00  0.00     0.100 C 
ATOM     23  C   UNL d   1     -38.684  13.267  23.567  0.00  0.00     0.100 C 
ENDBRANCH  20  21
ENDBRANCH  19  20
ENDBRANCH  18  19
ENDBRANCH  17  18
ENDBRANCH   6  17
TORSDOF 5
ENDMDL
MODEL 6
REMARK VINA RESULT:      -4.9      8.544      9.904
REMARK  5 active torsions:
REMARK  status: ('A' for Active; 'I' for Inactive)
REMARK    1  A    between atoms: N_14  and  C_6 
REMARK    2  A    between atoms: C_20  and  N_14 
REMARK    3  A    between atoms: N_15  and  C_21 
REMARK    4  A    between atoms: C_17  and  C_20 
REMARK    5  A    between atoms: C_21  and  C_17 
ROOT
ATOM      1  N   UNL d   1     -38.955  14.156  18.822  0.00  0.00    -0.183 N 
ATOM      2  C   UNL d   1     -39.217  14.525  18.126  0.00  0.00     0.169 A 
ATOM      3  C   UNL d   1     -38.902  14.316  17.400  0.00  0.00     0.073 A 
ATOM      4  C   UNL d   1     -38.325  13.738  17.374  0.00  0.00     0.185 A 
ATOM      5  N   UNL d   1     -38.063  13.369  18.070  0.00  0.00    -0.142 NA
ATOM      6  C   UNL d   1     -39.281  14.377  19.538  0.00  0.00     0.218 A 
ATOM      7  N   UNL d   1     -39.797  15.105  18.165  0.00  0.00    -0.226 NA
ATOM      8  C   UNL d   1     -39.161  14.681  16.712  0.00  0.00     0.007 A 
ATOM      9  N   UNL d   1     -37.997  13.516  16.647  0.00  0.00    -0.225 NA
ATOM     10  C   UNL d   1     -39.856  14.951  19.581  0.00  0.00     0.071 A 
ATOM     11  C   UNL d   1     -38.847  14.473  15.986  0.00  0.00     0.019 A 
ATOM     12  C   UNL d   1     -40.117  15.319  18.885  0.00  0.00     0.087 A 
ATOM     13  C   UNL d   1     -38.258  13.884  15.950  0.00  0.00     0.083 A 
ATOM     14  C   UNL d   1     -39.744  15.264  16.752  0.00  0.00     0.000 C 
ATOM     15  C   UNL d   1     -40.721  15.922  18.929  0.00  0.00     0.021 C 
ATOM     16  C   UNL d   1     -37.941  13.672  15.231  0.00  0.00     0.021 C 
ENDROOT
BRANCH   6  17
ATOM     17  N   UNL d   1     -39.006  13.992  20.251  0.00  0.00    -0.380 NA
BRANCH  17  18
ATOM     18  C   UNL d   1     -38.690  13.653  20.954  0.00  0.00     0.164 C 
BRANCH  18  19
ATOM     19  C   UNL d   1     -38.791  14.056  21.695  0.00  0.00     0.054 C 
BRANCH  19  20
ATOM     20  C   UNL d   1     -38.631  13.639  22.423  0.00  0.00     0.083 C 
BRANCH  20  21
ATOM     21  N   UNL d   1     -38.652  14.051  23.168  0.00  0.00    -0.300 N 
ATOM     22  C   UNL d   1     -38.682  13.320  23.605  0.00  0.00     0.100 C 
ATOM     23  C   UNL d   1     -38.654  14.786  23.599  0.00  0.00     0.100 C 
ENDBRANCH  20  21
ENDBRANCH  19  20
ENDBRANCH  18  19
ENDBRANCH  17  18
ENDBRANCH   6  17
TORSDOF 5
ENDMDL
MODEL 7
REMARK VINA RESULT:      -4.5      6.345      8.067
REMARK  5 active torsions:
REMARK  status: ('A' for Active; 'I' for Inactive)
REMARK    1  A    between atoms: N_14  and  C_6 
REMARK    2  A    between atoms: C_20  and  N_14 
REMARK    3  A    between atoms: N_15  and  C_21 
REMARK    4  A    between atoms: C_17  and  C_20 
REMARK    5  A    between atoms: C_21  and  C_17 
ROOT
ATOM      1  N   UNL d   1     -40.897  14.232  19.779  0.00  0.00    -0.183 N 
ATOM      2  C   UNL d   1     -40.342  14.797  19.530  0.00  0.00     0.169 A 
ATOM      3  C   UNL d   1     -40.086  14.816  18.753  0.00  0.00     0.073 A 
ATOM      4  C   UNL d   1     -40.389  14.269  18.227  0.00  0.00     0.185 A 
ATOM      5  N   UNL d   1     -40.944  13.704  18.475  0.00  0.00    -0.142 NA
ATOM      6  C   UNL d   1     -41.140  14.228  20.559  0.00  0.00     0.218 A 
ATOM      7  N   UNL d   1     -40.045  15.342  20.068  0.00  0.00    -0.226 NA
ATOM      8  C   UNL d   1     -39.537  15.375  18.507  0.00  0.00     0.007 A 
ATOM      9  N   UNL d   1     -40.139  14.276  17.437  0.00  0.00    -0.225 NA
ATOM     10  C   UNL d   1     -40.850  14.765  21.095  0.00  0.00     0.071 A 
ATOM     11  C   UNL d   1     -39.281  15.395  17.731  0.00  0.00     0.019 A 
ATOM     12  C   UNL d   1     -40.295  15.330  20.846  0.00  0.00     0.087 A 
ATOM     13  C   UNL d   1     -39.584  14.840  17.188  0.00  0.00     0.083 A 
ATOM     14  C   UNL d   1     -39.240  15.922  19.049  0.00  0.00     0.000 C 
ATOM     15  C   UNL d   1     -39.988  15.895  21.408  0.00  0.00     0.021 C 
ATOM     16  C   UNL d   1     -39.334  14.854  16.413  0.00  0.00     0.021 C 
ENDROOT
BRANCH   6  17
ATOM     17  N   UNL d   1     -41.713  13.642  20.807  0.00  0.00    -0.380 NA
BRANCH  17  18
ATOM     18  C   UNL d   1     -42.232  13.039  21.081  0.00  0.00     0.164 C 
BRANCH  18  19
ATOM     19  C   UNL d   1     -43.043  13.230  21.251  0.00  0.00     0.054 C 
BRANCH  19  20
ATOM     20  C   UNL d   1     -43.559  12.623  21.560  0.00  0.00     0.083 C 
BRANCH  20  21
ATOM     21  N   UNL d   1     -44.332  12.826  21.855  0.00  0.00    -0.300 N 
ATOM     22  C   UNL d   1     -44.344  12.149  22.372  0.00  0.00     0.100 C 
ATOM     23  C   UNL d   1     -45.003  13.350  21.851  0.00  0.00     0.100 C 
ENDBRANCH  20  21
ENDBRANCH  19  20
ENDBRANCH  18  19
ENDBRANCH  17  18
ENDBRANCH   6  17
TORSDOF 5
ENDMDL
MODEL 8
REMARK VINA RESULT:      -4.3      8.360     10.238
REMARK  5 active torsions:
REMARK  status: ('A' for Active; 'I' for Inactive)
REMARK    1  A    between atoms: N_14  and  C_6 
REMARK    2  A    between atoms: C_20  and  N_14 
REMARK    3  A    between atoms: N_15  and  C_21 
REMARK    4  A    between atoms: C_17  and  C_20 
REMARK    5  A    between atoms: C_21  and  C_17 
ROOT
ATOM      1  N   UNL d   1     -39.117  14.468  18.353  0.00  0.00    -0.183 N 
ATOM      2  C   UNL d   1     -39.716  14.625  18.905  0.00  0.00     0.169 A 
ATOM      3  C   UNL d   1     -39.604  14.464  19.700  0.00  0.00     0.073 A 
ATOM      4  C   UNL d   1     -38.890  14.146  19.939  0.00  0.00     0.185 A 
ATOM      5  N   UNL d   1     -38.290  13.989  19.386  0.00  0.00    -0.142 NA
ATOM      6  C   UNL d   1     -39.247  14.635  17.564  0.00  0.00     0.218 A 
ATOM      7  N   UNL d   1     -40.430  14.945  18.653  0.00  0.00    -0.226 NA
ATOM      8  C   UNL d   1     -40.197  14.620  20.246  0.00  0.00     0.007 A 
ATOM      9  N   UNL d   1     -38.761  13.978  20.740  0.00  0.00    -0.225 NA
ATOM     10  C   UNL d   1     -39.951  14.951  17.310  0.00  0.00     0.071 A 
ATOM     11  C   UNL d   1     -40.085  14.459  21.040  0.00  0.00     0.019 A 
ATOM     12  C   UNL d   1     -40.551  15.108  17.862  0.00  0.00     0.087 A 
ATOM     13  C   UNL d   1     -39.360  14.135  21.292  0.00  0.00     0.083 A 
ATOM     14  C   UNL d   1     -40.913  14.941  19.992  0.00  0.00     0.000 C 
ATOM     15  C   UNL d   1     -41.291  15.441  17.597  0.00  0.00     0.021 C 
ATOM     16  C   UNL d   1     -39.242  13.973  22.081  0.00  0.00     0.021 C 
ENDROOT
BRANCH   6  17
ATOM     17  N   UNL d   1     -38.624  14.470  17.001  0.00  0.00    -0.380 NA
BRANCH  17  18
ATOM     18  C   UNL d   1     -38.038  14.255  16.436  0.00  0.00     0.164 C 
BRANCH  18  19
ATOM     19  C   UNL d   1     -38.214  14.315  15.607  0.00  0.00     0.054 C 
BRANCH  19  20
ATOM     20  C   UNL d   1     -37.940  13.706  15.075  0.00  0.00     0.083 C 
BRANCH  20  21
ATOM     21  N   UNL d   1     -37.942  13.837  14.234  0.00  0.00    -0.300 N 
ATOM     22  C   UNL d   1     -37.950  12.999  14.075  0.00  0.00     0.100 C 
ATOM     23  C   UNL d   1     -37.940  14.378  13.577  0.00  0.00     0.100 C 
ENDBRANCH  20  21
ENDBRANCH  19  20
ENDBRANCH  18  19
ENDBRANCH  17  18
ENDBRANCH   6  17
TORSDOF 5
ENDMDL
MODEL 9
REMARK VINA RESULT:      -4.0      2.729      3.978
REMARK  5 active torsions:
REMARK  status: ('A' for Active; 'I' for Inactive)
REMARK    1  A    between atoms: N_14  and  C_6 
REMARK    2  A    between atoms: C_20  and  N_14 
REMARK    3  A    between atoms: N_15  and  C_21 
REMARK    4  A    between atoms: C_17  and  C_20 
REMARK    5  A    between atoms: C_21  and  C_17 
ROOT
ATOM      1  N   UNL d   1     -44.865  12.817  22.258  0.00  0.00    -0.183 N 
ATOM      2  C   UNL d   1     -45.407  12.413  22.740  0.00  0.00     0.169 A 
ATOM      3  C   UNL d   1     -46.154  12.718  22.875  0.00  0.00     0.073 A 
ATOM      4  C   UNL d   1     -46.356  13.429  22.526  0.00  0.00     0.185 A 
ATOM      5  N   UNL d   1     -45.814  13.834  22.045  0.00  0.00    -0.142 NA
ATOM      6  C   UNL d   1     -44.124  12.496  22.135  0.00  0.00     0.218 A 
ATOM      7  N   UNL d   1     -45.192  11.699  23.085  0.00  0.00    -0.226 NA
ATOM      8  C   UNL d   1     -46.689  12.318  23.351  0.00  0.00     0.007 A 
ATOM      9  N   UNL d   1     -47.108  13.751  22.654  0.00  0.00    -0.225 NA
ATOM     10  C   UNL d   1     -43.906  11.790  22.474  0.00  0.00     0.071 A 
ATOM     11  C   UNL d   1     -47.436  12.622  23.486  0.00  0.00     0.019 A 
ATOM     12  C   UNL d   1     -44.448  11.386  22.955  0.00  0.00     0.087 A 
ATOM     13  C   UNL d   1     -47.650  13.347  23.135  0.00  0.00     0.083 A 
ATOM     14  C   UNL d   1     -46.473  11.600  23.697  0.00  0.00     0.000 C 
ATOM     15  C   UNL d   1     -44.222  10.644  23.312  0.00  0.00     0.021 C 
ATOM     16  C   UNL d   1     -48.392  13.656  23.266  0.00  0.00     0.021 C 
ENDROOT
BRANCH   6  17
ATOM     17  N   UNL d   1     -43.571  12.920  21.637  0.00  0.00    -0.380 NA
BRANCH  17  18
ATOM     18  C   UNL d   1     -43.028  13.289  21.111  0.00  0.00     0.164 C 
BRANCH  18  19
ATOM     19  C   UNL d   1     -42.217  13.389  21.347  0.00  0.00     0.054 C 
BRANCH  19  20
ATOM     20  C   UNL d   1     -41.642  13.645  20.770  0.00  0.00     0.083 C 
BRANCH  20  21
ATOM     21  N   UNL d   1     -40.891  13.957  21.022  0.00  0.00    -0.300 N 
ATOM     22  C   UNL d   1     -41.025  14.692  20.612  0.00  0.00     0.100 C 
ATOM     23  C   UNL d   1     -40.163  13.856  21.452  0.00  0.00     0.100 C 
ENDBRANCH  20  21
ENDBRANCH  19  20
ENDBRANCH  18  19
ENDBRANCH  17  18
ENDBRANCH   6  17
TORSDOF 5
ENDMDL
