MODEL 1
REMARK VINA RESULT:      70.1      0.000      0.000
REMARK  5 active torsions:
REMARK  status: ('A' for Active; 'I' for Inactive)
REMARK    1  A    between atoms: C_14  and  N_4 
REMARK    2  A    between atoms: C_15  and  C_9 
REMARK    3  A    between atoms: O_18  and  C_12 
REMARK    4  A    between atoms: O_19  and  C_13 
REMARK    5  A    between atoms: C_16  and  C_14 
ROOT
ATOM      1  C   UNL d   1      14.006  14.311  -3.421  0.00  0.00     0.056 A 
ATOM      2  C   UNL d   1      14.316  15.073  -3.536  0.00  0.00     0.107 A 
ATOM      3  C   UNL d   1      14.521  15.538  -2.888  0.00  0.00     0.038 A 
ATOM      4  N   UNL d   1      14.112  14.494  -2.004  0.00  0.00    -0.304 N 
ATOM      5  N   UNL d   1      14.353  15.206  -4.347  0.00  0.00    -0.148 NA
ATOM      6  C   UNL d   1      13.904  14.021  -2.656  0.00  0.00     0.083 A 
ATOM      7  N   UNL d   1      14.069  14.532  -4.730  0.00  0.00    -0.148 NA
ATOM      8  C   UNL d   1      14.419  15.248  -2.123  0.00  0.00     0.068 A 
ATOM      9  C   UNL d   1      13.854  13.977  -4.165  0.00  0.00     0.106 A 
ATOM     10  C   UNL d   1      14.623  15.714  -1.474  0.00  0.00     0.044 A 
ATOM     11  C   UNL d   1      14.828  16.293  -3.006  0.00  0.00     0.029 A 
ATOM     12  C   UNL d   1      14.930  16.468  -1.593  0.00  0.00     0.118 A 
ATOM     13  C   UNL d   1      15.032  16.758  -2.359  0.00  0.00     0.116 A 
ENDROOT
BRANCH   4  14
ATOM     14  C   UNL d   1      14.010  14.204  -1.239  0.00  0.00     0.080 C 
BRANCH  14  15
ATOM     15  C   UNL d   1      14.498  13.603  -0.957  0.00  0.00     0.018 A 
ATOM     16  C   UNL d   1      15.047  13.762  -0.351  0.00  0.00     0.004 A 
ATOM     17  C   UNL d   1      15.535  13.163  -0.068  0.00  0.00     0.030 A 
ATOM     18  C   UNL d   1      15.483  12.393  -0.387  0.00  0.00     0.140 A 
ATOM     19  C   UNL d   1      14.934  12.235  -0.993  0.00  0.00     0.030 A 
ATOM     20  F   UNL d   1      15.978  11.782  -0.102  0.00  0.00    -0.204 F 
ATOM     21  C   UNL d   1      14.445  12.838  -1.275  0.00  0.00     0.004 A 
ENDBRANCH  14  15
ENDBRANCH   4  14
BRANCH   9  22
ATOM     22  C   UNL d   1      13.549  13.247  -4.397  0.00  0.00     0.019 A 
ATOM     23  C   UNL d   1      13.718  12.950  -5.147  0.00  0.00     0.002 A 
ATOM     24  C   UNL d   1      13.411  12.216  -5.376  0.00  0.00     0.000 A 
ATOM     25  C   UNL d   1      12.934  11.779  -4.855  0.00  0.00     0.000 A 
ATOM     26  C   UNL d   1      12.769  12.084  -4.103  0.00  0.00     0.000 A 
ATOM     27  C   UNL d   1      13.075  12.814  -3.875  0.00  0.00     0.002 A 
ENDBRANCH   9  22
BRANCH  12  28
ATOM     28  O   UNL d   1      15.137  16.940  -0.929  0.00  0.00    -0.326 OA
ATOM     29  C   UNL d   1      15.934  17.062  -0.746  0.00  0.00     0.181 C 
ENDBRANCH  12  28
BRANCH  13  30
ATOM     30  O   UNL d   1      15.343  17.523  -2.471  0.00  0.00    -0.326 OA
ATOM     31  C   UNL d   1      15.405  17.834  -3.236  0.00  0.00     0.181 C 
ENDBRANCH  13  30
TORSDOF 5
ENDMDL
MODEL 2
REMARK VINA RESULT:      71.9      1.507      3.489
REMARK  5 active torsions:
REMARK  status: ('A' for Active; 'I' for Inactive)
REMARK    1  A    between atoms: C_14  and  N_4 
REMARK    2  A    between atoms: C_15  and  C_9 
REMARK    3  A    between atoms: O_18  and  C_12 
REMARK    4  A    between atoms: O_19  and  C_13 
REMARK    5  A    between atoms: C_16  and  C_14 
ROOT
ATOM      1  C   UNL d   1      14.442  14.227  -1.924  0.00  0.00     0.056 A 
ATOM      2  C   UNL d   1      14.857  14.933  -2.061  0.00  0.00     0.107 A 
ATOM      3  C   UNL d   1      14.669  15.405  -2.709  0.00  0.00     0.038 A 
ATOM      4  N   UNL d   1      13.653  14.478  -3.093  0.00  0.00    -0.304 N 
ATOM      5  N   UNL d   1      15.416  15.011  -1.462  0.00  0.00    -0.148 NA
ATOM      6  C   UNL d   1      13.840  14.000  -2.440  0.00  0.00     0.083 A 
ATOM      7  N   UNL d   1      15.347  14.360  -0.960  0.00  0.00    -0.148 NA
ATOM      8  C   UNL d   1      14.067  15.177  -3.225  0.00  0.00     0.068 A 
ATOM      9  C   UNL d   1      14.748  13.873  -1.240  0.00  0.00     0.106 A 
ATOM     10  C   UNL d   1      13.879  15.649  -3.874  0.00  0.00     0.044 A 
ATOM     11  C   UNL d   1      15.083  16.104  -2.842  0.00  0.00     0.029 A 
ATOM     12  C   UNL d   1      14.293  16.348  -4.005  0.00  0.00     0.118 A 
ATOM     13  C   UNL d   1      14.895  16.575  -3.489  0.00  0.00     0.116 A 
ENDROOT
BRANCH   4  14
ATOM     14  C   UNL d   1      13.051  14.250  -3.609  0.00  0.00     0.080 C 
BRANCH  14  15
ATOM     15  C   UNL d   1      13.177  13.638  -4.145  0.00  0.00     0.018 A 
ATOM     16  C   UNL d   1      13.696  13.746  -4.787  0.00  0.00     0.004 A 
ATOM     17  C   UNL d   1      13.823  13.134  -5.323  0.00  0.00     0.030 A 
ATOM     18  C   UNL d   1      13.433  12.403  -5.226  0.00  0.00     0.140 A 
ATOM     19  C   UNL d   1      12.913  12.295  -4.584  0.00  0.00     0.030 A 
ATOM     20  F   UNL d   1      13.560  11.780  -5.769  0.00  0.00    -0.204 F 
ATOM     21  C   UNL d   1      12.788  12.911  -4.047  0.00  0.00     0.004 A 
ENDBRANCH  14  15
ENDBRANCH   4  14
BRANCH   9  22
ATOM     22  C   UNL d   1      14.560  13.177  -0.840  0.00  0.00     0.019 A 
ATOM     23  C   UNL d   1      15.102  12.557  -0.817  0.00  0.00     0.002 A 
ATOM     24  C   UNL d   1      14.910  11.859  -0.414  0.00  0.00     0.000 A 
ATOM     25  C   UNL d   1      14.175  11.782  -0.034  0.00  0.00     0.000 A 
ATOM     26  C   UNL d   1      13.636  12.410  -0.062  0.00  0.00     0.000 A 
ATOM     27  C   UNL d   1      13.827  13.104  -0.462  0.00  0.00     0.002 A 
ENDBRANCH   9  22
BRANCH  12  28
ATOM     28  O   UNL d   1      14.098  16.826  -4.668  0.00  0.00    -0.326 OA
ATOM     29  C   UNL d   1      14.263  16.556  -5.432  0.00  0.00     0.181 C 
ENDBRANCH  12  28
BRANCH  13  30
ATOM     30  O   UNL d   1      15.311  17.285  -3.628  0.00  0.00    -0.326 OA
ATOM     31  C   UNL d   1      15.691  17.669  -3.001  0.00  0.00     0.181 C 
ENDBRANCH  13  30
TORSDOF 5
ENDMDL
MODEL 3
REMARK VINA RESULT:      71.9      1.901      3.708
REMARK  5 active torsions:
REMARK  status: ('A' for Active; 'I' for Inactive)
REMARK    1  A    between atoms: C_14  and  N_4 
REMARK    2  A    between atoms: C_15  and  C_9 
REMARK    3  A    between atoms: O_18  and  C_12 
REMARK    4  A    between atoms: O_19  and  C_13 
REMARK    5  A    between atoms: C_16  and  C_14 
ROOT
ATOM      1  C   UNL d   1      14.003  13.092  -2.739  0.00  0.00     0.056 A 
ATOM      2  C   UNL d   1      13.852  12.942  -3.542  0.00  0.00     0.107 A 
ATOM      3  C   UNL d   1      13.688  13.563  -4.055  0.00  0.00     0.038 A 
ATOM      4  N   UNL d   1      13.823  14.492  -2.979  0.00  0.00    -0.304 N 
ATOM      5  N   UNL d   1      13.905  12.128  -3.655  0.00  0.00    -0.148 NA
ATOM      6  C   UNL d   1      13.989  13.867  -2.458  0.00  0.00     0.083 A 
ATOM      7  N   UNL d   1      14.087  11.779  -2.930  0.00  0.00    -0.148 NA
ATOM      8  C   UNL d   1      13.673  14.338  -3.774  0.00  0.00     0.068 A 
ATOM      9  C   UNL d   1      14.149  12.368  -2.361  0.00  0.00     0.106 A 
ATOM     10  C   UNL d   1      13.509  14.961  -4.288  0.00  0.00     0.044 A 
ATOM     11  C   UNL d   1      13.538  13.410  -4.850  0.00  0.00     0.029 A 
ATOM     12  C   UNL d   1      13.360  14.807  -5.082  0.00  0.00     0.118 A 
ATOM     13  C   UNL d   1      13.374  14.032  -5.364  0.00  0.00     0.116 A 
ENDROOT
BRANCH   4  14
ATOM     14  C   UNL d   1      13.808  15.268  -2.698  0.00  0.00     0.080 C 
BRANCH  14  15
ATOM     15  C   UNL d   1      14.362  15.514  -2.140  0.00  0.00     0.018 A 
ATOM     16  C   UNL d   1      14.380  15.159  -1.386  0.00  0.00     0.004 A 
ATOM     17  C   UNL d   1      14.933  15.404  -0.828  0.00  0.00     0.030 A 
ATOM     18  C   UNL d   1      15.477  16.009  -1.013  0.00  0.00     0.140 A 
ATOM     19  C   UNL d   1      15.458  16.365  -1.766  0.00  0.00     0.030 A 
ATOM     20  F   UNL d   1      16.039  16.261  -0.447  0.00  0.00    -0.204 F 
ATOM     21  C   UNL d   1      14.902  16.116  -2.325  0.00  0.00     0.004 A 
ENDBRANCH  14  15
ENDBRANCH   4  14
BRANCH   9  22
ATOM     22  C   UNL d   1      14.328  12.172  -1.580  0.00  0.00     0.019 A 
ATOM     23  C   UNL d   1      13.721  12.016  -1.046  0.00  0.00     0.002 A 
ATOM     24  C   UNL d   1      13.905  11.820  -0.262  0.00  0.00     0.000 A 
ATOM     25  C   UNL d   1      14.697  11.780  -0.015  0.00  0.00     0.000 A 
ATOM     26  C   UNL d   1      15.301  11.937  -0.558  0.00  0.00     0.000 A 
ATOM     27  C   UNL d   1      15.118  12.133  -1.336  0.00  0.00     0.002 A 
ENDBRANCH   9  22
BRANCH  12  28
ATOM     28  O   UNL d   1      13.193  15.445  -5.603  0.00  0.00    -0.326 OA
ATOM     29  C   UNL d   1      13.812  15.908  -5.897  0.00  0.00     0.181 C 
ENDBRANCH  12  28
BRANCH  13  30
ATOM     30  O   UNL d   1      13.222  13.883  -6.170  0.00  0.00    -0.326 OA
ATOM     31  C   UNL d   1      12.769  13.226  -6.389  0.00  0.00     0.181 C 
ENDBRANCH  13  30
TORSDOF 5
ENDMDL
