MODEL 1
REMARK VINA RESULT:      -6.0      0.000      0.000
REMARK  2 active torsions:
REMARK  status: ('A' for Active; 'I' for Inactive)
REMARK    1  A    between atoms: C_6  and  C_1 
REMARK    2  A    between atoms: C_7  and  C_5 
ROOT
ATOM      1  C   UNL d   1      58.655   0.404  30.167  0.00  0.00     0.169 A 
ATOM      2  C   UNL d   1      58.643   0.682  30.949  0.00  0.00     0.048 A 
ATOM      3  N   UNL d   1      57.398  -0.216  30.365  0.00  0.00    -0.148 NA
ATOM      4  N   UNL d   1      58.032  -0.047  29.872  0.00  0.00    -0.142 NA
ATOM      5  C   UNL d   1      57.383   0.059  31.144  0.00  0.00     0.105 A 
ENDROOT
BRANCH   5   6
ATOM      6  C   UNL d   1      56.857  -0.001  31.775  0.00  0.00     0.019 A 
ATOM      7  C   UNL d   1      56.636  -0.747  32.050  0.00  0.00     0.002 A 
ATOM      8  C   UNL d   1      56.110  -0.807  32.681  0.00  0.00     0.000 A 
ATOM      9  C   UNL d   1      55.877  -1.580  32.972  0.00  0.00     0.000 C 
ATOM     10  C   UNL d   1      55.805  -0.122  33.035  0.00  0.00     0.000 A 
ATOM     11  C   UNL d   1      56.031   0.618  32.753  0.00  0.00     0.000 A 
ATOM     12  C   UNL d   1      55.278  -0.185  33.668  0.00  0.00     0.000 C 
ATOM     13  C   UNL d   1      56.554   0.681  32.126  0.00  0.00     0.002 A 
ENDBRANCH   5   6
BRANCH   1  14
ATOM     14  C   UNL d   1      59.300   0.582  29.681  0.00  0.00     0.231 C 
ATOM     15  O   UNL d   1      60.049   0.664  30.011  0.00  0.00    -0.643 OA
ATOM     16  O   UNL d   1      59.194   0.676  28.874  0.00  0.00    -0.643 OA
ENDBRANCH   1  14
TORSDOF 2
ENDMDL
MODEL 2
REMARK VINA RESULT:      -4.6      2.704      4.064
REMARK  2 active torsions:
REMARK  status: ('A' for Active; 'I' for Inactive)
REMARK    1  A    between atoms: C_6  and  C_1 
REMARK    2  A    between atoms: C_7  and  C_5 
ROOT
ATOM      1  C   UNL d   1      55.612   0.043  33.317  0.00  0.00     0.169 A 
ATOM      2  C   UNL d   1      55.913   0.682  32.881  0.00  0.00     0.048 A 
ATOM      3  N   UNL d   1      56.328  -0.859  32.495  0.00  0.00    -0.148 NA
ATOM      4  N   UNL d   1      55.819  -0.730  33.125  0.00  0.00    -0.142 NA
ATOM      5  C   UNL d   1      56.630  -0.226  32.058  0.00  0.00     0.105 A 
ENDROOT
BRANCH   5   6
ATOM      6  C   UNL d   1      57.136  -0.148  31.413  0.00  0.00     0.019 A 
ATOM      7  C   UNL d   1      57.423  -0.825  31.038  0.00  0.00     0.002 A 
ATOM      8  C   UNL d   1      57.929  -0.748  30.394  0.00  0.00     0.000 A 
ATOM      9  C   UNL d   1      58.230  -1.449  29.999  0.00  0.00     0.000 C 
ATOM     10  C   UNL d   1      58.148   0.005  30.124  0.00  0.00     0.000 A 
ATOM     11  C   UNL d   1      57.857   0.675  30.504  0.00  0.00     0.000 A 
ATOM     12  C   UNL d   1      58.656   0.079  29.477  0.00  0.00     0.000 C 
ATOM     13  C   UNL d   1      57.353   0.601  31.146  0.00  0.00     0.002 A 
ENDBRANCH   5   6
BRANCH   1  14
ATOM     14  C   UNL d   1      55.100   0.187  33.950  0.00  0.00     0.231 C 
ATOM     15  O   UNL d   1      54.294   0.274  33.812  0.00  0.00    -0.643 OA
ATOM     16  O   UNL d   1      55.395   0.244  34.713  0.00  0.00    -0.643 OA
ENDBRANCH   1  14
TORSDOF 2
ENDMDL
MODEL 3
REMARK VINA RESULT:      -4.5      2.319      4.040
REMARK  2 active torsions:
REMARK  status: ('A' for Active; 'I' for Inactive)
REMARK    1  A    between atoms: C_6  and  C_1 
REMARK    2  A    between atoms: C_7  and  C_5 
ROOT
ATOM      1  C   UNL d   1      56.382  -0.558  32.356  0.00  0.00     0.169 A 
ATOM      2  C   UNL d   1      56.668  -1.120  31.816  0.00  0.00     0.048 A 
ATOM      3  N   UNL d   1      57.069   0.464  31.660  0.00  0.00    -0.148 NA
ATOM      4  N   UNL d   1      56.582   0.236  32.279  0.00  0.00    -0.142 NA
ATOM      5  C   UNL d   1      57.356  -0.092  31.121  0.00  0.00     0.105 A 
ENDROOT
BRANCH   5   6
ATOM      6  C   UNL d   1      57.841  -0.066  30.455  0.00  0.00     0.019 A 
ATOM      7  C   UNL d   1      58.148  -0.767  30.148  0.00  0.00     0.002 A 
ATOM      8  C   UNL d   1      58.632  -0.742  29.483  0.00  0.00     0.000 A 
ATOM      9  C   UNL d   1      58.954  -1.469  29.159  0.00  0.00     0.000 C 
ATOM     10  C   UNL d   1      58.809  -0.015  29.125  0.00  0.00     0.000 A 
ATOM     11  C   UNL d   1      58.497   0.680  29.438  0.00  0.00     0.000 A 
ATOM     12  C   UNL d   1      59.295   0.008  28.457  0.00  0.00     0.000 C 
ATOM     13  C   UNL d   1      58.016   0.657  30.100  0.00  0.00     0.002 A 
ENDBRANCH   5   6
BRANCH   1  14
ATOM     14  C   UNL d   1      55.891  -0.802  32.976  0.00  0.00     0.231 C 
ATOM     15  O   UNL d   1      55.983  -1.552  33.299  0.00  0.00    -0.643 OA
ATOM     16  O   UNL d   1      55.315  -0.297  33.266  0.00  0.00    -0.643 OA
ENDBRANCH   1  14
TORSDOF 2
ENDMDL
MODEL 4
REMARK VINA RESULT:      -3.2      2.265      4.144
REMARK  2 active torsions:
REMARK  status: ('A' for Active; 'I' for Inactive)
REMARK    1  A    between atoms: C_6  and  C_1 
REMARK    2  A    between atoms: C_7  and  C_5 
ROOT
ATOM      1  C   UNL d   1      56.540  -0.201  32.384  0.00  0.00     0.169 A 
ATOM      2  C   UNL d   1      56.957  -0.875  32.138  0.00  0.00     0.048 A 
ATOM      3  N   UNL d   1      57.046   0.520  31.277  0.00  0.00    -0.148 NA
ATOM      4  N   UNL d   1      56.583   0.499  31.954  0.00  0.00    -0.142 NA
ATOM      5  C   UNL d   1      57.463  -0.148  31.029  0.00  0.00     0.105 A 
ENDROOT
BRANCH   5   6
ATOM      6  C   UNL d   1      57.965  -0.325  30.400  0.00  0.00     0.019 A 
ATOM      7  C   UNL d   1      58.038   0.210  29.776  0.00  0.00     0.002 A 
ATOM      8  C   UNL d   1      58.539   0.035  29.147  0.00  0.00     0.000 A 
ATOM      9  C   UNL d   1      58.620   0.588  28.496  0.00  0.00     0.000 C 
ATOM     10  C   UNL d   1      58.967  -0.676  29.142  0.00  0.00     0.000 A 
ATOM     11  C   UNL d   1      58.887  -1.204  29.769  0.00  0.00     0.000 A 
ATOM     12  C   UNL d   1      59.469  -0.850  28.510  0.00  0.00     0.000 C 
ATOM     13  C   UNL d   1      58.389  -1.032  30.395  0.00  0.00     0.002 A 
ENDBRANCH   5   6
BRANCH   1  14
ATOM     14  C   UNL d   1      56.077  -0.236  33.069  0.00  0.00     0.231 C 
ATOM     15  O   UNL d   1      55.418  -0.727  33.091  0.00  0.00    -0.643 OA
ATOM     16  O   UNL d   1      56.275   0.217  33.722  0.00  0.00    -0.643 OA
ENDBRANCH   1  14
TORSDOF 2
ENDMDL
