MODEL 1
REMARK VINA RESULT:      -5.7      0.000      0.000
REMARK  4 active torsions:
REMARK  status: ('A' for Active; 'I' for Inactive)
REMARK    1  A    between atoms: C_6  and  C_2 
REMARK    2  A    between atoms: C_7  and  C_5 
REMARK    3  A    between atoms: O_8  and  C_7 
REMARK    4  A    between atoms: C_9  and  O_8 
ROOT
ATOM      1  N   UNL d   1      56.950   0.539  30.943  0.00  0.00    -0.121 NA
ATOM      2  C   UNL d   1      56.961  -0.113  31.439  0.00  0.00     0.204 A 
ATOM      3  O   UNL d   1      57.540  -0.638  31.155  0.00  0.00    -0.267 OA
ATOM      4  N   UNL d   1      57.514   0.427  30.352  0.00  0.00    -0.119 NA
ATOM      5  C   UNL d   1      57.880  -0.301  30.483  0.00  0.00     0.230 A 
ENDROOT
BRANCH   5   6
ATOM      6  C   UNL d   1      58.478  -0.629  30.020  0.00  0.00     0.169 C 
BRANCH   6   7
ATOM      7  O   UNL d   1      58.293  -1.168  29.420  0.00  0.00    -0.301 OA
BRANCH   7   8
ATOM      8  C   UNL d   1      58.892  -1.642  29.098  0.00  0.00     0.100 A 
ATOM      9  C   UNL d   1      58.815  -2.463  29.095  0.00  0.00     0.025 A 
ATOM     10  C   UNL d   1      59.413  -2.927  28.774  0.00  0.00     0.002 A 
ATOM     11  C   UNL d   1      60.087  -2.577  28.455  0.00  0.00     0.000 A 
ATOM     12  C   UNL d   1      60.161  -1.752  28.459  0.00  0.00     0.002 A 
ATOM     13  C   UNL d   1      59.567  -1.277  28.779  0.00  0.00     0.025 A 
ENDBRANCH   7   8
ENDBRANCH   6   7
ENDBRANCH   5   6
BRANCH   2  14
ATOM     14  C   UNL d   1      56.487  -0.233  32.103  0.00  0.00     0.043 A 
ATOM     15  C   UNL d   1      56.315  -1.001  32.356  0.00  0.00     0.004 A 
ATOM     16  C   UNL d   1      55.840  -1.121  33.020  0.00  0.00     0.000 A 
ATOM     17  C   UNL d   1      55.537  -0.473  33.432  0.00  0.00     0.000 A 
ATOM     18  C   UNL d   1      55.709   0.295  33.178  0.00  0.00     0.000 A 
ATOM     19  C   UNL d   1      56.184   0.415  32.514  0.00  0.00     0.004 A 
ENDBRANCH   2  14
TORSDOF 4
ENDMDL
MODEL 2
REMARK VINA RESULT:      -5.4      0.973      4.746
REMARK  4 active torsions:
REMARK  status: ('A' for Active; 'I' for Inactive)
REMARK    1  A    between atoms: C_6  and  C_2 
REMARK    2  A    between atoms: C_7  and  C_5 
REMARK    3  A    between atoms: O_8  and  C_7 
REMARK    4  A    between atoms: C_9  and  O_8 
ROOT
ATOM      1  N   UNL d   1      58.120   0.441  29.308  0.00  0.00    -0.121 NA
ATOM      2  C   UNL d   1      58.764   0.059  29.642  0.00  0.00     0.204 A 
ATOM      3  O   UNL d   1      58.580  -0.098  30.437  0.00  0.00    -0.267 OA
ATOM      4  N   UNL d   1      57.537   0.524  29.886  0.00  0.00    -0.119 NA
ATOM      5  C   UNL d   1      57.821   0.191  30.585  0.00  0.00     0.230 A 
ENDROOT
BRANCH   5   6
ATOM      6  C   UNL d   1      57.414   0.155  31.301  0.00  0.00     0.169 C 
BRANCH   6   7
ATOM      7  O   UNL d   1      56.717  -0.287  31.363  0.00  0.00    -0.301 OA
BRANCH   7   8
ATOM      8  C   UNL d   1      56.353  -0.374  32.102  0.00  0.00     0.100 A 
ATOM      9  C   UNL d   1      56.058   0.286  32.498  0.00  0.00     0.025 A 
ATOM     10  C   UNL d   1      55.697   0.194  33.232  0.00  0.00     0.002 A 
ATOM     11  C   UNL d   1      55.630  -0.554  33.572  0.00  0.00     0.000 A 
ATOM     12  C   UNL d   1      55.928  -1.215  33.171  0.00  0.00     0.002 A 
ATOM     13  C   UNL d   1      56.292  -1.133  32.434  0.00  0.00     0.025 A 
ENDBRANCH   7   8
ENDBRANCH   6   7
ENDBRANCH   5   6
BRANCH   2  14
ATOM     14  C   UNL d   1      59.469  -0.137  29.263  0.00  0.00     0.043 A 
ATOM     15  C   UNL d   1      59.528  -0.842  28.835  0.00  0.00     0.004 A 
ATOM     16  C   UNL d   1      60.233  -1.038  28.456  0.00  0.00     0.000 A 
ATOM     17  C   UNL d   1      60.881  -0.530  28.503  0.00  0.00     0.000 A 
ATOM     18  C   UNL d   1      60.822   0.176  28.930  0.00  0.00     0.000 A 
ATOM     19  C   UNL d   1      60.117   0.372  29.310  0.00  0.00     0.004 A 
ENDBRANCH   2  14
TORSDOF 4
ENDMDL
MODEL 3
REMARK VINA RESULT:      -3.6      1.770      2.528
REMARK  4 active torsions:
REMARK  status: ('A' for Active; 'I' for Inactive)
REMARK    1  A    between atoms: C_6  and  C_2 
REMARK    2  A    between atoms: C_7  and  C_5 
REMARK    3  A    between atoms: O_8  and  C_7 
REMARK    4  A    between atoms: C_9  and  O_8 
ROOT
ATOM      1  N   UNL d   1      57.282   0.648  33.819  0.00  0.00    -0.121 NA
ATOM      2  C   UNL d   1      56.530   0.665  33.493  0.00  0.00     0.204 A 
ATOM      3  O   UNL d   1      56.614   0.679  32.666  0.00  0.00    -0.267 OA
ATOM      4  N   UNL d   1      57.833   0.651  33.206  0.00  0.00    -0.119 NA
ATOM      5  C   UNL d   1      57.420   0.670  32.491  0.00  0.00     0.230 A 
ENDROOT
BRANCH   5   6
ATOM      6  C   UNL d   1      57.759   0.679  31.740  0.00  0.00     0.169 C 
BRANCH   6   7
ATOM      7  O   UNL d   1      57.818  -0.020  31.301  0.00  0.00    -0.301 OA
BRANCH   7   8
ATOM      8  C   UNL d   1      58.049   0.015  30.506  0.00  0.00     0.100 A 
ATOM      9  C   UNL d   1      57.696   0.558  29.996  0.00  0.00     0.025 A 
ATOM     10  C   UNL d   1      57.929   0.588  29.208  0.00  0.00     0.002 A 
ATOM     11  C   UNL d   1      58.513   0.079  28.927  0.00  0.00     0.000 A 
ATOM     12  C   UNL d   1      58.866  -0.466  29.442  0.00  0.00     0.002 A 
ATOM     13  C   UNL d   1      58.639  -0.504  30.235  0.00  0.00     0.025 A 
ENDBRANCH   7   8
ENDBRANCH   6   7
ENDBRANCH   5   6
BRANCH   2  14
ATOM     14  C   UNL d   1      55.816   0.668  33.905  0.00  0.00     0.043 A 
ATOM     15  C   UNL d   1      55.815   0.676  34.732  0.00  0.00     0.004 A 
ATOM     16  C   UNL d   1      55.101   0.679  35.144  0.00  0.00     0.000 A 
ATOM     17  C   UNL d   1      54.387   0.675  34.731  0.00  0.00     0.000 A 
ATOM     18  C   UNL d   1      54.388   0.667  33.904  0.00  0.00     0.000 A 
ATOM     19  C   UNL d   1      55.102   0.664  33.491  0.00  0.00     0.004 A 
ENDBRANCH   2  14
TORSDOF 4
ENDMDL
MODEL 4
REMARK VINA RESULT:      -3.0      9.091      9.771
REMARK  4 active torsions:
REMARK  status: ('A' for Active; 'I' for Inactive)
REMARK    1  A    between atoms: C_6  and  C_2 
REMARK    2  A    between atoms: C_7  and  C_5 
REMARK    3  A    between atoms: O_8  and  C_7 
REMARK    4  A    between atoms: C_9  and  O_8 
ROOT
ATOM      1  N   UNL d   1      57.388  -9.807  31.626  0.00  0.00    -0.121 NA
ATOM      2  C   UNL d   1      57.957  -9.803  31.037  0.00  0.00     0.204 A 
ATOM      3  O   UNL d   1      58.702  -9.805  31.405  0.00  0.00    -0.267 OA
ATOM      4  N   UNL d   1      57.769  -9.812  32.358  0.00  0.00    -0.119 NA
ATOM      5  C   UNL d   1      58.583  -9.811  32.221  0.00  0.00     0.230 A 
ENDROOT
BRANCH   5   6
ATOM      6  C   UNL d   1      59.168  -9.816  32.802  0.00  0.00     0.169 C 
BRANCH   6   7
ATOM      7  O   UNL d   1      59.099  -9.328  33.467  0.00  0.00    -0.301 OA
BRANCH   7   8
ATOM      8  C   UNL d   1      59.726  -9.282  34.006  0.00  0.00     0.100 A 
ATOM      9  C   UNL d   1      60.497  -9.439  33.758  0.00  0.00     0.025 A 
ATOM     10  C   UNL d   1      61.116  -9.391  34.299  0.00  0.00     0.002 A 
ATOM     11  C   UNL d   1      60.969  -9.187  35.084  0.00  0.00     0.000 A 
ATOM     12  C   UNL d   1      60.194  -9.030  35.328  0.00  0.00     0.002 A 
ATOM     13  C   UNL d   1      59.566  -9.075  34.794  0.00  0.00     0.025 A 
ENDBRANCH   7   8
ENDBRANCH   6   7
ENDBRANCH   5   6
BRANCH   2  14
ATOM     14  C   UNL d   1      57.821  -9.797  30.223  0.00  0.00     0.043 A 
ATOM     15  C   UNL d   1      58.459  -9.770  29.697  0.00  0.00     0.004 A 
ATOM     16  C   UNL d   1      58.323  -9.764  28.883  0.00  0.00     0.000 A 
ATOM     17  C   UNL d   1      57.550  -9.785  28.595  0.00  0.00     0.000 A 
ATOM     18  C   UNL d   1      56.913  -9.811  29.121  0.00  0.00     0.000 A 
ATOM     19  C   UNL d   1      57.049  -9.817  29.935  0.00  0.00     0.004 A 
ENDBRANCH   2  14
TORSDOF 4
ENDMDL
