MODEL 1
REMARK VINA RESULT:      -3.3      0.000      0.000
REMARK  3 active torsions:
REMARK  status: ('A' for Active; 'I' for Inactive)
REMARK    1  A    between atoms: C_6  and  C_3 
REMARK    2  A    between atoms: C_9  and  C_6 
REMARK    3  A    between atoms: O_15  and  C_10 
ROOT
ATOM      1  C   UNL d   1      32.825  23.136 -19.046  0.00  0.00     0.001 A 
ATOM      2  C   UNL d   1      32.742  23.127 -17.391  0.00  0.00     0.094 A 
ATOM      3  C   UNL d   1      32.366  23.702 -18.662  0.00  0.00     0.002 A 
ATOM      4  C   UNL d   1      33.241  22.569 -18.615  0.00  0.00     0.002 A 
ATOM      5  C   UNL d   1      32.326  23.695 -17.822  0.00  0.00     0.024 A 
ATOM      6  C   UNL d   1      33.207  22.557 -17.812  0.00  0.00     0.024 A 
ENDROOT
BRANCH   1   7
ATOM      7  C   UNL d   1      32.835  23.182 -19.870  0.00  0.00     0.011 C 
BRANCH   7   8
ATOM      8  C   UNL d   1      32.487  22.611 -20.374  0.00  0.00     0.092 A 
ATOM      9  C   UNL d   1      31.897  22.707 -20.904  0.00  0.00     0.288 A 
ATOM     10  N   UNL d   1      31.749  22.006 -21.258  0.00  0.00    -0.163 NA
ATOM     11  O   UNL d   1      31.496  23.455 -21.055  0.00  0.00    -0.265 OA
ATOM     12  C   UNL d   1      32.289  21.460 -20.914  0.00  0.00     0.313 A 
ATOM     13  S   UNL d   1      32.724  21.871 -20.376  0.00  0.00    -0.021 SA
ATOM     14  O   UNL d   1      32.342  20.641 -21.114  0.00  0.00    -0.258 OA
ENDBRANCH   7   8
ENDBRANCH   1   7
BRANCH   2  15
ATOM     15  O   UNL d   1      32.695  23.130 -16.566  0.00  0.00    -0.328 OA
ATOM     16  C   UNL d   1      33.237  22.718 -16.130  0.00  0.00     0.181 C 
ENDBRANCH   2  15
TORSDOF 3
ENDMDL
MODEL 2
REMARK VINA RESULT:      -3.1      5.496      7.518
REMARK  3 active torsions:
REMARK  status: ('A' for Active; 'I' for Inactive)
REMARK    1  A    between atoms: C_6  and  C_3 
REMARK    2  A    between atoms: C_9  and  C_6 
REMARK    3  A    between atoms: O_15  and  C_10 
ROOT
ATOM      1  C   UNL d   1      31.722  17.041 -24.123  0.00  0.00     0.001 A 
ATOM      2  C   UNL d   1      30.375  16.138 -23.784  0.00  0.00     0.094 A 
ATOM      3  C   UNL d   1      31.808  16.313 -23.746  0.00  0.00     0.002 A 
ATOM      4  C   UNL d   1      30.974  17.321 -24.331  0.00  0.00     0.002 A 
ATOM      5  C   UNL d   1      31.122  15.858 -23.576  0.00  0.00     0.024 A 
ATOM      6  C   UNL d   1      30.316  16.890 -24.171  0.00  0.00     0.024 A 
ENDROOT
BRANCH   1   7
ATOM      7  C   UNL d   1      32.422  17.454 -24.270  0.00  0.00     0.011 C 
BRANCH   7   8
ATOM      8  C   UNL d   1      32.652  18.147 -23.860  0.00  0.00     0.092 A 
ATOM      9  C   UNL d   1      32.864  18.855 -24.159  0.00  0.00     0.288 A 
ATOM     10  N   UNL d   1      33.038  19.351 -23.556  0.00  0.00    -0.163 NA
ATOM     11  O   UNL d   1      32.894  19.039 -25.002  0.00  0.00    -0.265 OA
ATOM     12  C   UNL d   1      32.920  18.903 -22.854  0.00  0.00     0.313 A 
ATOM     13  S   UNL d   1      32.684  18.169 -23.083  0.00  0.00    -0.021 SA
ATOM     14  O   UNL d   1      33.036  19.193 -22.070  0.00  0.00    -0.258 OA
ENDBRANCH   7   8
ENDBRANCH   1   7
BRANCH   2  15
ATOM     15  O   UNL d   1      29.708  15.681 -23.612  0.00  0.00    -0.328 OA
ATOM     16  C   UNL d   1      29.516  15.522 -22.843  0.00  0.00     0.181 C 
ENDBRANCH   2  15
TORSDOF 3
ENDMDL
MODEL 3
REMARK VINA RESULT:      -3.1      5.742      7.619
REMARK  3 active torsions:
REMARK  status: ('A' for Active; 'I' for Inactive)
REMARK    1  A    between atoms: C_6  and  C_3 
REMARK    2  A    between atoms: C_9  and  C_6 
REMARK    3  A    between atoms: O_15  and  C_10 
ROOT
ATOM      1  C   UNL d   1      31.590  17.310 -24.394  0.00  0.00     0.001 A 
ATOM      2  C   UNL d   1      32.691  18.091 -23.433  0.00  0.00     0.094 A 
ATOM      3  C   UNL d   1      31.884  18.044 -24.630  0.00  0.00     0.002 A 
ATOM      4  C   UNL d   1      31.839  16.965 -23.688  0.00  0.00     0.002 A 
ATOM      5  C   UNL d   1      32.442  18.436 -24.139  0.00  0.00     0.024 A 
ATOM      6  C   UNL d   1      32.373  17.336 -23.216  0.00  0.00     0.024 A 
ENDROOT
BRANCH   1   7
ATOM      7  C   UNL d   1      31.044  16.962 -24.907  0.00  0.00     0.011 C 
BRANCH   7   8
ATOM      8  C   UNL d   1      30.226  16.892 -24.742  0.00  0.00     0.092 A 
ATOM      9  C   UNL d   1      29.768  16.239 -24.766  0.00  0.00     0.288 A 
ATOM     10  N   UNL d   1      29.020  16.439 -24.564  0.00  0.00    -0.163 NA
ATOM     11  O   UNL d   1      30.051  15.453 -24.978  0.00  0.00    -0.265 OA
ATOM     12  C   UNL d   1      29.041  17.266 -24.411  0.00  0.00     0.313 A 
ATOM     13  S   UNL d   1      29.799  17.506 -24.531  0.00  0.00    -0.021 SA
ATOM     14  O   UNL d   1      28.376  17.731 -24.177  0.00  0.00    -0.258 OA
ENDBRANCH   7   8
ENDBRANCH   1   7
BRANCH   2  15
ATOM     15  O   UNL d   1      33.241  18.487 -22.959  0.00  0.00    -0.328 OA
ATOM     16  C   UNL d   1      32.992  19.056 -22.442  0.00  0.00     0.181 C 
ENDBRANCH   2  15
TORSDOF 3
ENDMDL
MODEL 4
REMARK VINA RESULT:      -3.1      6.428      8.221
REMARK  3 active torsions:
REMARK  status: ('A' for Active; 'I' for Inactive)
REMARK    1  A    between atoms: C_6  and  C_3 
REMARK    2  A    between atoms: C_9  and  C_6 
REMARK    3  A    between atoms: O_15  and  C_10 
ROOT
ATOM      1  C   UNL d   1      30.838  16.328 -24.028  0.00  0.00     0.001 A 
ATOM      2  C   UNL d   1      29.227  16.194 -23.664  0.00  0.00     0.094 A 
ATOM      3  C   UNL d   1      30.288  16.759 -24.466  0.00  0.00     0.002 A 
ATOM      4  C   UNL d   1      30.593  15.834 -23.414  0.00  0.00     0.002 A 
ATOM      5  C   UNL d   1      29.471  16.688 -24.278  0.00  0.00     0.024 A 
ATOM      6  C   UNL d   1      29.814  15.763 -23.231  0.00  0.00     0.024 A 
ENDROOT
BRANCH   1   7
ATOM      7  C   UNL d   1      31.628  16.429 -24.247  0.00  0.00     0.011 C 
BRANCH   7   8
ATOM      8  C   UNL d   1      32.187  16.858 -23.796  0.00  0.00     0.092 A 
ATOM      9  C   UNL d   1      32.889  16.610 -23.507  0.00  0.00     0.288 A 
ATOM     10  N   UNL d   1      33.234  17.212 -23.110  0.00  0.00    -0.163 NA
ATOM     11  O   UNL d   1      33.208  15.817 -23.617  0.00  0.00    -0.265 OA
ATOM     12  C   UNL d   1      32.698  17.858 -23.168  0.00  0.00     0.313 A 
ATOM     13  S   UNL d   1      32.068  17.600 -23.597  0.00  0.00    -0.021 SA
ATOM     14  O   UNL d   1      32.822  18.622 -22.831  0.00  0.00    -0.258 OA
ENDBRANCH   7   8
ENDBRANCH   1   7
BRANCH   2  15
ATOM     15  O   UNL d   1      28.421  16.133 -23.489  0.00  0.00    -0.328 OA
ATOM     16  C   UNL d   1      28.021  15.453 -23.665  0.00  0.00     0.181 C 
ENDBRANCH   2  15
TORSDOF 3
ENDMDL
MODEL 5
REMARK VINA RESULT:      -2.8      4.705      6.640
REMARK  3 active torsions:
REMARK  status: ('A' for Active; 'I' for Inactive)
REMARK    1  A    between atoms: C_6  and  C_3 
REMARK    2  A    between atoms: C_9  and  C_6 
REMARK    3  A    between atoms: O_15  and  C_10 
ROOT
ATOM      1  C   UNL d   1      33.014  18.072 -23.517  0.00  0.00     0.001 A 
ATOM      2  C   UNL d   1      33.160  19.563 -22.809  0.00  0.00     0.094 A 
ATOM      3  C   UNL d   1      32.931  18.749 -23.980  0.00  0.00     0.002 A 
ATOM      4  C   UNL d   1      33.168  18.132 -22.709  0.00  0.00     0.002 A 
ATOM      5  C   UNL d   1      33.006  19.504 -23.617  0.00  0.00     0.024 A 
ATOM      6  C   UNL d   1      33.241  18.851 -22.358  0.00  0.00     0.024 A 
ENDROOT
BRANCH   1   7
ATOM      7  C   UNL d   1      32.932  17.354 -23.916  0.00  0.00     0.011 C 
BRANCH   7   8
ATOM      8  C   UNL d   1      32.263  16.855 -23.848  0.00  0.00     0.092 A 
ATOM      9  C   UNL d   1      32.233  16.091 -23.618  0.00  0.00     0.288 A 
ATOM     10  N   UNL d   1      31.473  15.844 -23.639  0.00  0.00    -0.163 NA
ATOM     11  O   UNL d   1      32.920  15.625 -23.386  0.00  0.00    -0.265 OA
ATOM     12  C   UNL d   1      31.026  16.507 -23.900  0.00  0.00     0.313 A 
ATOM     13  S   UNL d   1      31.548  17.107 -24.018  0.00  0.00    -0.021 SA
ATOM     14  O   UNL d   1      30.189  16.513 -24.010  0.00  0.00    -0.258 OA
ENDBRANCH   7   8
ENDBRANCH   1   7
BRANCH   2  15
ATOM     15  O   UNL d   1      33.232  20.311 -22.464  0.00  0.00    -0.328 OA
ATOM     16  C   UNL d   1      32.827  20.482 -21.785  0.00  0.00     0.181 C 
ENDBRANCH   2  15
TORSDOF 3
ENDMDL
MODEL 6
REMARK VINA RESULT:      -2.6      2.944      4.013
REMARK  3 active torsions:
REMARK  status: ('A' for Active; 'I' for Inactive)
REMARK    1  A    between atoms: C_6  and  C_3 
REMARK    2  A    between atoms: C_9  and  C_6 
REMARK    3  A    between atoms: O_15  and  C_10 
ROOT
ATOM      1  C   UNL d   1      32.895  20.725 -21.523  0.00  0.00     0.001 A 
ATOM      2  C   UNL d   1      32.122  22.102 -21.021  0.00  0.00     0.094 A 
ATOM      3  C   UNL d   1      32.164  20.663 -21.145  0.00  0.00     0.002 A 
ATOM      4  C   UNL d   1      33.241  21.462 -21.651  0.00  0.00     0.002 A 
ATOM      5  C   UNL d   1      31.776  21.365 -20.892  0.00  0.00     0.024 A 
ATOM      6  C   UNL d   1      32.874  22.135 -21.411  0.00  0.00     0.024 A 
ENDROOT
BRANCH   1   7
ATOM      7  C   UNL d   1      33.239  20.011 -21.753  0.00  0.00     0.011 C 
BRANCH   7   8
ATOM      8  C   UNL d   1      33.189  19.696 -22.527  0.00  0.00     0.092 A 
ATOM      9  C   UNL d   1      33.087  18.936 -22.751  0.00  0.00     0.288 A 
ATOM     10  N   UNL d   1      33.072  18.900 -23.549  0.00  0.00    -0.163 NA
ATOM     11  O   UNL d   1      33.006  18.275 -22.203  0.00  0.00    -0.265 OA
ATOM     12  C   UNL d   1      33.173  19.691 -23.814  0.00  0.00     0.313 A 
ATOM     13  S   UNL d   1      33.241  20.150 -23.156  0.00  0.00    -0.021 SA
ATOM     14  O   UNL d   1      33.195  19.932 -24.623  0.00  0.00    -0.258 OA
ENDBRANCH   7   8
ENDBRANCH   1   7
BRANCH   2  15
ATOM     15  O   UNL d   1      31.730  22.784 -20.768  0.00  0.00    -0.328 OA
ATOM     16  C   UNL d   1      31.850  23.485 -21.153  0.00  0.00     0.181 C 
ENDBRANCH   2  15
TORSDOF 3
ENDMDL
