MODEL 1
REMARK VINA RESULT:      -8.4      0.000      0.000
REMARK  7 active torsions:
REMARK  status: ('A' for Active; 'I' for Inactive)
REMARK    1  A    between atoms: S_7  and  C_1 
REMARK    2  A    between atoms: C_6  and  C_8 
REMARK       I    between atoms: N_10  and  C_6 
REMARK    3  A    between atoms: C_13  and  S_7 
REMARK    4  A    between atoms: C_21  and  N_10 
REMARK    5  A    between atoms: C_14  and  C_13 
REMARK    6  A    between atoms: C_17  and  C_21 
REMARK    7  A    between atoms: C_22  and  C_17 
ROOT
ATOM      1  C   UNL d   1      52.366  32.807  52.940  0.00  0.00     0.058 A 
ATOM      2  C   UNL d   1      51.663  32.649  53.323  0.00  0.00     0.005 A 
ATOM      3  C   UNL d   1      52.473  33.553  52.570  0.00  0.00     0.005 A 
ATOM      4  C   UNL d   1      51.164  33.956  52.980  0.00  0.00     0.007 A 
ATOM      5  C   UNL d   1      51.895  34.106  52.589  0.00  0.00     0.001 A 
ATOM      6  C   UNL d   1      51.070  33.216  53.342  0.00  0.00     0.001 A 
ENDROOT
BRANCH   4   7
ATOM      7  C   UNL d   1      50.586  34.508  52.999  0.00  0.00     0.038 C 
BRANCH   7   8
ATOM      8  S   UNL d   1      49.889  34.410  52.536  0.00  0.00    -0.048 SA
BRANCH   8   9
ATOM      9  C   UNL d   1      49.249  34.933  52.626  0.00  0.00     0.194 A 
ATOM     10  N   UNL d   1      48.665  35.072  52.058  0.00  0.00    -0.220 NA
ATOM     11  C   UNL d   1      48.146  35.622  52.372  0.00  0.00     0.101 A 
ATOM     12  C   UNL d   1      47.473  35.972  52.084  0.00  0.00     0.021 A 
ATOM     13  C   UNL d   1      48.412  35.818  53.129  0.00  0.00     0.101 A 
ATOM     14  C   UNL d   1      47.074  36.498  52.523  0.00  0.00     0.002 A 
ATOM     15  C   UNL d   1      47.341  36.693  53.280  0.00  0.00     0.002 A 
ATOM     16  C   UNL d   1      48.006  36.364  53.599  0.00  0.00     0.021 A 
ATOM     17  N   UNL d   1      49.093  35.387  53.275  0.00  0.00    -0.220 NA
ENDBRANCH   8   9
ENDBRANCH   7   8
ENDBRANCH   4   7
BRANCH   1  18
ATOM     18  C   UNL d   1      52.945  32.216  52.937  0.00  0.00     0.279 C 
ATOM     19  O   UNL d   1      52.857  31.570  52.428  0.00  0.00    -0.265 OA
ATOM     20  N   UNL d   1      53.602  32.263  53.432  0.00  0.00    -0.206 NA
BRANCH  20  21
ATOM     21  C   UNL d   1      53.694  32.903  53.941  0.00  0.00     0.106 C 
BRANCH  21  22
ATOM     22  C   UNL d   1      54.405  33.007  54.356  0.00  0.00     0.066 C 
BRANCH  22  23
ATOM     23  C   UNL d   1      54.404  33.393  55.079  0.00  0.00     0.236 C 
ATOM     24  O   UNL d   1      54.949  33.998  55.230  0.00  0.00    -0.283 OA
ENDBRANCH  22  23
ENDBRANCH  21  22
ENDBRANCH  20  21
ENDBRANCH   1  18
TORSDOF 7
ENDMDL
MODEL 2
REMARK VINA RESULT:      -8.0      1.036      1.879
REMARK  7 active torsions:
REMARK  status: ('A' for Active; 'I' for Inactive)
REMARK    1  A    between atoms: S_7  and  C_1 
REMARK    2  A    between atoms: C_6  and  C_8 
REMARK       I    between atoms: N_10  and  C_6 
REMARK    3  A    between atoms: C_13  and  S_7 
REMARK    4  A    between atoms: C_21  and  N_10 
REMARK    5  A    between atoms: C_14  and  C_13 
REMARK    6  A    between atoms: C_17  and  C_21 
REMARK    7  A    between atoms: C_22  and  C_17 
ROOT
ATOM      1  C   UNL d   1      53.388  33.135  53.576  0.00  0.00     0.058 A 
ATOM      2  C   UNL d   1      52.888  33.357  54.180  0.00  0.00     0.005 A 
ATOM      3  C   UNL d   1      53.203  33.355  52.787  0.00  0.00     0.005 A 
ATOM      4  C   UNL d   1      52.017  34.013  53.240  0.00  0.00     0.007 A 
ATOM      5  C   UNL d   1      52.543  33.778  52.625  0.00  0.00     0.001 A 
ATOM      6  C   UNL d   1      52.211  33.790  54.014  0.00  0.00     0.001 A 
ENDROOT
BRANCH   4   7
ATOM      7  C   UNL d   1      51.357  34.436  53.078  0.00  0.00     0.038 C 
BRANCH   7   8
ATOM      8  S   UNL d   1      50.665  34.049  52.795  0.00  0.00    -0.048 SA
BRANCH   8   9
ATOM      9  C   UNL d   1      49.965  34.481  52.669  0.00  0.00     0.194 A 
ATOM     10  N   UNL d   1      49.518  34.470  51.975  0.00  0.00    -0.220 NA
ATOM     11  C   UNL d   1      48.880  34.971  52.087  0.00  0.00     0.101 A 
ATOM     12  C   UNL d   1      48.258  35.187  51.613  0.00  0.00     0.021 A 
ATOM     13  C   UNL d   1      48.939  35.288  52.848  0.00  0.00     0.101 A 
ATOM     14  C   UNL d   1      47.710  35.695  51.876  0.00  0.00     0.002 A 
ATOM     15  C   UNL d   1      47.769  36.012  52.636  0.00  0.00     0.002 A 
ATOM     16  C   UNL d   1      48.375  35.820  53.136  0.00  0.00     0.021 A 
ATOM     17  N   UNL d   1      49.611  34.979  53.198  0.00  0.00    -0.220 NA
ENDBRANCH   8   9
ENDBRANCH   7   8
ENDBRANCH   4   7
BRANCH   1  18
ATOM     18  C   UNL d   1      54.063  32.698  53.775  0.00  0.00     0.279 C 
ATOM     19  O   UNL d   1      54.748  33.101  54.005  0.00  0.00    -0.265 OA
ATOM     20  N   UNL d   1      54.060  31.875  53.745  0.00  0.00    -0.206 NA
BRANCH  20  21
ATOM     21  C   UNL d   1      53.380  31.471  53.516  0.00  0.00     0.106 C 
BRANCH  21  22
ATOM     22  C   UNL d   1      53.335  30.646  53.606  0.00  0.00     0.066 C 
BRANCH  22  23
ATOM     23  C   UNL d   1      52.882  30.202  53.089  0.00  0.00     0.236 C 
ATOM     24  O   UNL d   1      52.400  29.592  53.374  0.00  0.00    -0.283 OA
ENDBRANCH  22  23
ENDBRANCH  21  22
ENDBRANCH  20  21
ENDBRANCH   1  18
TORSDOF 7
ENDMDL
MODEL 3
REMARK VINA RESULT:      -7.0      2.189      5.652
REMARK  7 active torsions:
REMARK  status: ('A' for Active; 'I' for Inactive)
REMARK    1  A    between atoms: S_7  and  C_1 
REMARK    2  A    between atoms: C_6  and  C_8 
REMARK       I    between atoms: N_10  and  C_6 
REMARK    3  A    between atoms: C_13  and  S_7 
REMARK    4  A    between atoms: C_21  and  N_10 
REMARK    5  A    between atoms: C_14  and  C_13 
REMARK    6  A    between atoms: C_17  and  C_21 
REMARK    7  A    between atoms: C_22  and  C_17 
ROOT
ATOM      1  C   UNL d   1      49.278  34.470  51.692  0.00  0.00     0.058 A 
ATOM      2  C   UNL d   1      49.968  34.526  51.260  0.00  0.00     0.005 A 
ATOM      3  C   UNL d   1      49.323  34.341  52.521  0.00  0.00     0.005 A 
ATOM      4  C   UNL d   1      50.751  34.329  52.452  0.00  0.00     0.007 A 
ATOM      5  C   UNL d   1      50.031  34.273  52.887  0.00  0.00     0.001 A 
ATOM      6  C   UNL d   1      50.695  34.456  51.635  0.00  0.00     0.001 A 
ENDROOT
BRANCH   4   7
ATOM      7  C   UNL d   1      51.459  34.261  52.818  0.00  0.00     0.038 C 
BRANCH   7   8
ATOM      8  S   UNL d   1      51.719  33.512  53.103  0.00  0.00    -0.048 SA
BRANCH   8   9
ATOM      9  C   UNL d   1      52.459  33.439  53.476  0.00  0.00     0.194 A 
ATOM     10  N   UNL d   1      53.137  33.116  53.132  0.00  0.00    -0.220 NA
ATOM     11  C   UNL d   1      53.735  33.153  53.689  0.00  0.00     0.101 A 
ATOM     12  C   UNL d   1      54.514  32.926  53.677  0.00  0.00     0.021 A 
ATOM     13  C   UNL d   1      53.424  33.499  54.372  0.00  0.00     0.101 A 
ATOM     14  C   UNL d   1      54.973  33.033  54.314  0.00  0.00     0.002 A 
ATOM     15  C   UNL d   1      54.662  33.378  54.996  0.00  0.00     0.002 A 
ATOM     16  C   UNL d   1      53.892  33.617  55.044  0.00  0.00     0.021 A 
ATOM     17  N   UNL d   1      52.637  33.671  54.230  0.00  0.00    -0.220 NA
ENDBRANCH   8   9
ENDBRANCH   7   8
ENDBRANCH   4   7
BRANCH   1  18
ATOM     18  C   UNL d   1      48.561  34.544  51.287  0.00  0.00     0.279 C 
ATOM     19  O   UNL d   1      48.387  34.011  50.679  0.00  0.00    -0.265 OA
ATOM     20  N   UNL d   1      48.023  35.138  51.480  0.00  0.00    -0.206 NA
BRANCH  20  21
ATOM     21  C   UNL d   1      48.193  35.670  52.085  0.00  0.00     0.106 C 
BRANCH  21  22
ATOM     22  C   UNL d   1      47.700  36.327  52.212  0.00  0.00     0.066 C 
BRANCH  22  23
ATOM     23  C   UNL d   1      47.560  36.591  52.974  0.00  0.00     0.236 C 
ATOM     24  O   UNL d   1      46.784  36.705  53.240  0.00  0.00    -0.283 OA
ENDBRANCH  22  23
ENDBRANCH  21  22
ENDBRANCH  20  21
ENDBRANCH   1  18
TORSDOF 7
ENDMDL
MODEL 4
REMARK VINA RESULT:      -6.1      2.574      5.850
REMARK  7 active torsions:
REMARK  status: ('A' for Active; 'I' for Inactive)
REMARK    1  A    between atoms: S_7  and  C_1 
REMARK    2  A    between atoms: C_6  and  C_8 
REMARK       I    between atoms: N_10  and  C_6 
REMARK    3  A    between atoms: C_13  and  S_7 
REMARK    4  A    between atoms: C_21  and  N_10 
REMARK    5  A    between atoms: C_14  and  C_13 
REMARK    6  A    between atoms: C_17  and  C_21 
REMARK    7  A    between atoms: C_22  and  C_17 
ROOT
ATOM      1  C   UNL d   1      48.248  35.627  52.415  0.00  0.00     0.058 A 
ATOM      2  C   UNL d   1      48.451  35.009  51.923  0.00  0.00     0.005 A 
ATOM      3  C   UNL d   1      48.700  35.766  53.109  0.00  0.00     0.005 A 
ATOM      4  C   UNL d   1      49.545  34.658  52.791  0.00  0.00     0.007 A 
ATOM      5  C   UNL d   1      49.324  35.299  53.290  0.00  0.00     0.001 A 
ATOM      6  C   UNL d   1      49.092  34.531  52.109  0.00  0.00     0.001 A 
ENDROOT
BRANCH   4   7
ATOM      7  C   UNL d   1      50.170  34.191  52.972  0.00  0.00     0.038 C 
BRANCH   7   8
ATOM      8  S   UNL d   1      50.940  34.387  52.693  0.00  0.00    -0.048 SA
BRANCH   8   9
ATOM      9  C   UNL d   1      51.603  33.960  52.960  0.00  0.00     0.194 A 
ATOM     10  N   UNL d   1      51.840  33.222  52.674  0.00  0.00    -0.220 NA
ATOM     11  C   UNL d   1      52.513  33.006  53.087  0.00  0.00     0.101 A 
ATOM     12  C   UNL d   1      52.993  32.353  53.055  0.00  0.00     0.021 A 
ATOM     13  C   UNL d   1      52.687  33.611  53.622  0.00  0.00     0.101 A 
ATOM     14  C   UNL d   1      53.622  32.292  53.533  0.00  0.00     0.002 A 
ATOM     15  C   UNL d   1      53.795  32.897  54.069  0.00  0.00     0.002 A 
ATOM     16  C   UNL d   1      53.340  33.562  54.127  0.00  0.00     0.021 A 
ATOM     17  N   UNL d   1      52.119  34.194  53.536  0.00  0.00    -0.220 NA
ENDBRANCH   8   9
ENDBRANCH   7   8
ENDBRANCH   4   7
BRANCH   1  18
ATOM     18  C   UNL d   1      47.597  36.093  52.201  0.00  0.00     0.279 C 
ATOM     19  O   UNL d   1      47.598  36.470  51.466  0.00  0.00    -0.265 OA
ATOM     20  N   UNL d   1      46.955  36.183  52.709  0.00  0.00    -0.206 NA
BRANCH  20  21
ATOM     21  C   UNL d   1      46.950  35.809  53.442  0.00  0.00     0.106 C 
BRANCH  21  22
ATOM     22  C   UNL d   1      46.402  36.037  54.023  0.00  0.00     0.066 C 
BRANCH  22  23
ATOM     23  C   UNL d   1      45.756  35.562  54.185  0.00  0.00     0.236 C 
ATOM     24  O   UNL d   1      45.408  35.572  54.937  0.00  0.00    -0.283 OA
ENDBRANCH  22  23
ENDBRANCH  21  22
ENDBRANCH  20  21
ENDBRANCH   1  18
TORSDOF 7
ENDMDL
MODEL 5
REMARK VINA RESULT:      -5.5      2.235      5.669
REMARK  7 active torsions:
REMARK  status: ('A' for Active; 'I' for Inactive)
REMARK    1  A    between atoms: S_7  and  C_1 
REMARK    2  A    between atoms: C_6  and  C_8 
REMARK       I    between atoms: N_10  and  C_6 
REMARK    3  A    between atoms: C_13  and  S_7 
REMARK    4  A    between atoms: C_21  and  N_10 
REMARK    5  A    between atoms: C_14  and  C_13 
REMARK    6  A    between atoms: C_17  and  C_21 
REMARK    7  A    between atoms: C_22  and  C_17 
ROOT
ATOM      1  C   UNL d   1      49.576  34.547  52.167  0.00  0.00     0.058 A 
ATOM      2  C   UNL d   1      50.314  34.729  51.873  0.00  0.00     0.005 A 
ATOM      3  C   UNL d   1      49.512  34.023  52.821  0.00  0.00     0.005 A 
ATOM      4  C   UNL d   1      50.934  33.884  52.859  0.00  0.00     0.007 A 
ATOM      5  C   UNL d   1      50.166  33.704  53.154  0.00  0.00     0.001 A 
ATOM      6  C   UNL d   1      50.985  34.402  52.214  0.00  0.00     0.001 A 
ENDROOT
BRANCH   4   7
ATOM      7  C   UNL d   1      51.588  33.564  53.192  0.00  0.00     0.038 C 
BRANCH   7   8
ATOM      8  S   UNL d   1      52.186  33.220  52.708  0.00  0.00    -0.048 SA
BRANCH   8   9
ATOM      9  C   UNL d   1      52.550  32.508  52.937  0.00  0.00     0.194 A 
ATOM     10  N   UNL d   1      52.380  31.764  52.622  0.00  0.00    -0.220 NA
ATOM     11  C   UNL d   1      52.863  31.222  53.001  0.00  0.00     0.101 A 
ATOM     12  C   UNL d   1      52.949  30.419  52.932  0.00  0.00     0.021 A 
ATOM     13  C   UNL d   1      53.327  31.635  53.546  0.00  0.00     0.101 A 
ATOM     14  C   UNL d   1      53.473  30.031  53.382  0.00  0.00     0.002 A 
ATOM     15  C   UNL d   1      53.937  30.443  53.927  0.00  0.00     0.002 A 
ATOM     16  C   UNL d   1      53.878  31.244  54.023  0.00  0.00     0.021 A 
ATOM     17  N   UNL d   1      53.126  32.427  53.498  0.00  0.00    -0.220 NA
ENDBRANCH   8   9
ENDBRANCH   7   8
ENDBRANCH   4   7
BRANCH   1  18
ATOM     18  C   UNL d   1      48.918  34.892  51.802  0.00  0.00     0.279 C 
ATOM     19  O   UNL d   1      48.742  34.691  51.019  0.00  0.00    -0.265 OA
ATOM     20  N   UNL d   1      48.442  35.430  52.206  0.00  0.00    -0.206 NA
BRANCH  20  21
ATOM     21  C   UNL d   1      48.613  35.633  52.985  0.00  0.00     0.106 C 
BRANCH  21  22
ATOM     22  C   UNL d   1      48.185  36.236  53.363  0.00  0.00     0.066 C 
BRANCH  22  23
ATOM     23  C   UNL d   1      48.102  36.230  54.177  0.00  0.00     0.236 C 
ATOM     24  O   UNL d   1      47.353  36.302  54.521  0.00  0.00    -0.283 OA
ENDBRANCH  22  23
ENDBRANCH  21  22
ENDBRANCH  20  21
ENDBRANCH   1  18
TORSDOF 7
ENDMDL
