MODEL 1
REMARK VINA RESULT:      19.7      0.000      0.000
REMARK  1 active torsions:
REMARK  status: ('A' for Active; 'I' for Inactive)
REMARK    1  A    between atoms: C_7  and  C_2 
ROOT
ATOM      1  C   UNL d   1      14.015  13.408  -2.508  0.00  0.00     0.257 A 
ATOM      2  C   UNL d   1      13.942  12.617  -2.293  0.00  0.00     0.142 A 
ATOM      3  C   UNL d   1      13.759  13.660  -3.255  0.00  0.00     0.238 A 
ATOM      4  O   UNL d   1      13.619  12.086  -2.818  0.00  0.00    -0.304 OA
ATOM      5  C   UNL d   1      13.427  13.101  -3.787  0.00  0.00     0.065 A 
ATOM      6  C   UNL d   1      13.354  12.310  -3.572  0.00  0.00     0.103 A 
ATOM      7  O   UNL d   1      13.836  14.469  -3.466  0.00  0.00    -0.283 OA
ATOM      8  O   UNL d   1      14.347  13.967  -1.976  0.00  0.00    -0.281 OA
ATOM      9  C   UNL d   1      13.169  13.354  -4.539  0.00  0.00     0.005 A 
ATOM     10  C   UNL d   1      13.031  11.779  -4.097  0.00  0.00     0.025 A 
ATOM     11  C   UNL d   1      12.843  12.814  -5.066  0.00  0.00     0.000 A 
ATOM     12  C   UNL d   1      12.773  12.033  -4.849  0.00  0.00     0.002 A 
ENDROOT
BRANCH   2  13
ATOM     13  C   UNL d   1      14.194  12.345  -1.546  0.00  0.00     0.026 A 
ATOM     14  C   UNL d   1      13.613  12.049  -1.012  0.00  0.00     0.002 A 
ATOM     15  C   UNL d   1      13.867  11.782  -0.276  0.00  0.00     0.000 A 
ATOM     16  C   UNL d   1      14.658  11.794  -0.047  0.00  0.00     0.000 A 
ATOM     17  C   UNL d   1      15.218  12.087  -0.582  0.00  0.00     0.000 A 
ATOM     18  C   UNL d   1      14.989  12.360  -1.323  0.00  0.00     0.002 A 
ENDBRANCH   2  13
TORSDOF 1
ENDMDL
