MODEL 1
REMARK VINA RESULT:     -11.5      0.000      0.000
REMARK  3 active torsions:
REMARK  status: ('A' for Active; 'I' for Inactive)
REMARK    1  A    between atoms: C_2  and  C_1 
REMARK    2  A    between atoms: C_13  and  C_8 
REMARK    3  A    between atoms: O_23  and  C_20 
ROOT
ATOM      1  C   UNL d   1      52.129  33.677  52.921  0.00  0.00     0.106 A 
ATOM      2  C   UNL d   1      52.583  34.193  53.420  0.00  0.00     0.304 A 
ATOM      3  C   UNL d   1      52.281  32.868  52.924  0.00  0.00     0.011 A 
ATOM      4  C   UNL d   1      52.861  32.568  53.400  0.00  0.00     0.023 A 
ATOM      5  O   UNL d   1      53.174  33.882  53.905  0.00  0.00    -0.273 OA
ATOM      6  C   UNL d   1      53.315  33.085  53.899  0.00  0.00     0.103 A 
ATOM      7  C   UNL d   1      53.014  31.760  53.402  0.00  0.00     0.002 A 
ATOM      8  O   UNL d   1      52.421  35.021  53.413  0.00  0.00    -0.259 OA
ATOM      9  C   UNL d   1      53.906  32.774  54.384  0.00  0.00     0.025 A 
ATOM     10  C   UNL d   1      53.605  31.443  53.886  0.00  0.00     0.000 A 
ATOM     11  C   UNL d   1      54.059  31.959  54.386  0.00  0.00     0.002 A 
ATOM     12  C   UNL d   1      52.559  31.275  52.908  0.00  0.00     0.000 A 
ATOM     13  C   UNL d   1      53.746  30.651  53.881  0.00  0.00     0.000 A 
ATOM     14  C   UNL d   1      52.713  30.460  52.911  0.00  0.00     0.000 A 
ATOM     15  C   UNL d   1      53.304  30.149  53.395  0.00  0.00     0.000 A 
ENDROOT
BRANCH   1  16
ATOM     16  C   UNL d   1      51.538  33.993  52.437  0.00  0.00     0.210 A 
ATOM     17  O   UNL d   1      50.795  34.158  52.741  0.00  0.00    -0.268 OA
ATOM     18  C   UNL d   1      50.332  34.463  52.141  0.00  0.00     0.204 A 
ATOM     19  N   UNL d   1      50.796  34.480  51.478  0.00  0.00    -0.121 NA
ATOM     20  N   UNL d   1      51.536  34.192  51.658  0.00  0.00    -0.121 NA
BRANCH  18  21
ATOM     21  C   UNL d   1      49.546  34.730  52.102  0.00  0.00     0.043 A 
ATOM     22  C   UNL d   1      49.218  35.128  52.739  0.00  0.00     0.006 A 
ATOM     23  C   UNL d   1      48.458  35.394  52.720  0.00  0.00     0.024 A 
ATOM     24  C   UNL d   1      48.000  35.253  52.023  0.00  0.00     0.094 A 
ATOM     25  C   UNL d   1      48.331  34.854  51.386  0.00  0.00     0.024 A 
ATOM     26  C   UNL d   1      49.109  34.593  51.432  0.00  0.00     0.006 A 
BRANCH  24  27
ATOM     27  O   UNL d   1      47.217  35.509  51.964  0.00  0.00    -0.328 OA
ATOM     28  C   UNL d   1      47.024  36.288  52.111  0.00  0.00     0.181 C 
ENDBRANCH  24  27
ENDBRANCH  18  21
ENDBRANCH   1  16
TORSDOF 3
ENDMDL
MODEL 2
REMARK VINA RESULT:     -10.4      0.983      2.012
REMARK  3 active torsions:
REMARK  status: ('A' for Active; 'I' for Inactive)
REMARK    1  A    between atoms: C_2  and  C_1 
REMARK    2  A    between atoms: C_13  and  C_8 
REMARK    3  A    between atoms: O_23  and  C_20 
ROOT
ATOM      1  C   UNL d   1      52.137  33.233  52.985  0.00  0.00     0.106 A 
ATOM      2  C   UNL d   1      52.185  32.396  52.840  0.00  0.00     0.304 A 
ATOM      3  C   UNL d   1      52.651  33.584  53.523  0.00  0.00     0.011 A 
ATOM      4  C   UNL d   1      53.197  33.133  53.912  0.00  0.00     0.023 A 
ATOM      5  O   UNL d   1      52.745  31.941  53.240  0.00  0.00    -0.273 OA
ATOM      6  C   UNL d   1      53.245  32.297  53.767  0.00  0.00     0.103 A 
ATOM      7  C   UNL d   1      53.711  33.485  54.450  0.00  0.00     0.002 A 
ATOM      8  O   UNL d   1      51.655  32.043  52.287  0.00  0.00    -0.259 OA
ATOM      9  C   UNL d   1      53.806  31.842  54.167  0.00  0.00     0.025 A 
ATOM     10  C   UNL d   1      54.274  33.033  54.853  0.00  0.00     0.000 A 
ATOM     11  C   UNL d   1      54.322  32.196  54.709  0.00  0.00     0.002 A 
ATOM     12  C   UNL d   1      53.647  34.301  54.576  0.00  0.00     0.000 A 
ATOM     13  C   UNL d   1      54.772  33.385  55.377  0.00  0.00     0.000 A 
ATOM     14  C   UNL d   1      54.165  34.655  55.118  0.00  0.00     0.000 A 
ATOM     15  C   UNL d   1      54.725  34.200  55.518  0.00  0.00     0.000 A 
ENDROOT
BRANCH   1  16
ATOM     16  C   UNL d   1      51.574  33.685  52.582  0.00  0.00     0.210 A 
ATOM     17  O   UNL d   1      50.881  33.914  52.954  0.00  0.00    -0.268 OA
ATOM     18  C   UNL d   1      50.436  34.350  52.425  0.00  0.00     0.204 A 
ATOM     19  N   UNL d   1      50.862  34.383  51.737  0.00  0.00    -0.121 NA
ATOM     20  N   UNL d   1      51.560  33.975  51.832  0.00  0.00    -0.121 NA
BRANCH  18  21
ATOM     21  C   UNL d   1      49.697  34.727  52.472  0.00  0.00     0.043 A 
ATOM     22  C   UNL d   1      49.181  34.694  51.835  0.00  0.00     0.006 A 
ATOM     23  C   UNL d   1      48.461  35.052  51.861  0.00  0.00     0.024 A 
ATOM     24  C   UNL d   1      48.243  35.468  52.565  0.00  0.00     0.094 A 
ATOM     25  C   UNL d   1      48.763  35.499  53.201  0.00  0.00     0.024 A 
ATOM     26  C   UNL d   1      49.491  35.125  53.148  0.00  0.00     0.006 A 
BRANCH  24  27
ATOM     27  O   UNL d   1      47.514  35.849  52.632  0.00  0.00    -0.328 OA
ATOM     28  C   UNL d   1      47.173  36.207  51.984  0.00  0.00     0.181 C 
ENDBRANCH  24  27
ENDBRANCH  18  21
ENDBRANCH   1  16
TORSDOF 3
ENDMDL
MODEL 3
REMARK VINA RESULT:      -9.5      1.626      5.765
REMARK  3 active torsions:
REMARK  status: ('A' for Active; 'I' for Inactive)
REMARK    1  A    between atoms: C_2  and  C_1 
REMARK    2  A    between atoms: C_13  and  C_8 
REMARK    3  A    between atoms: O_23  and  C_20 
ROOT
ATOM      1  C   UNL d   1      49.668  34.552  52.461  0.00  0.00     0.106 A 
ATOM      2  C   UNL d   1      49.531  34.484  51.624  0.00  0.00     0.304 A 
ATOM      3  C   UNL d   1      49.155  35.001  52.923  0.00  0.00     0.011 A 
ATOM      4  C   UNL d   1      48.525  35.374  52.581  0.00  0.00     0.023 A 
ATOM      5  O   UNL d   1      48.886  34.867  51.280  0.00  0.00    -0.273 OA
ATOM      6  C   UNL d   1      48.388  35.306  51.745  0.00  0.00     0.103 A 
ATOM      7  C   UNL d   1      48.013  35.822  53.043  0.00  0.00     0.002 A 
ATOM      8  O   UNL d   1      50.060  34.023  51.156  0.00  0.00    -0.259 OA
ATOM      9  C   UNL d   1      47.744  35.689  51.401  0.00  0.00     0.025 A 
ATOM     10  C   UNL d   1      47.366  36.208  52.704  0.00  0.00     0.000 A 
ATOM     11  C   UNL d   1      47.229  36.140  51.867  0.00  0.00     0.002 A 
ATOM     12  C   UNL d   1      48.165  35.875  53.856  0.00  0.00     0.000 A 
ATOM     13  C   UNL d   1      46.871  36.643  53.164  0.00  0.00     0.000 A 
ATOM     14  C   UNL d   1      47.649  36.326  54.322  0.00  0.00     0.000 A 
ATOM     15  C   UNL d   1      47.004  36.709  53.978  0.00  0.00     0.000 A 
ENDROOT
BRANCH   1  16
ATOM     16  C   UNL d   1      50.315  34.166  52.801  0.00  0.00     0.210 A 
ATOM     17  O   UNL d   1      50.950  34.595  53.091  0.00  0.00    -0.268 OA
ATOM     18  C   UNL d   1      51.501  34.071  53.391  0.00  0.00     0.204 A 
ATOM     19  N   UNL d   1      51.196  33.329  53.280  0.00  0.00    -0.121 NA
ATOM     20  N   UNL d   1      50.469  33.386  52.919  0.00  0.00    -0.121 NA
BRANCH  18  21
ATOM     21  C   UNL d   1      52.243  34.164  53.752  0.00  0.00     0.043 A 
ATOM     22  C   UNL d   1      52.634  33.511  54.056  0.00  0.00     0.006 A 
ATOM     23  C   UNL d   1      53.354  33.581  54.409  0.00  0.00     0.024 A 
ATOM     24  C   UNL d   1      53.703  34.349  54.462  0.00  0.00     0.094 A 
ATOM     25  C   UNL d   1      53.309  35.002  54.156  0.00  0.00     0.024 A 
ATOM     26  C   UNL d   1      52.576  34.902  53.800  0.00  0.00     0.006 A 
BRANCH  24  27
ATOM     27  O   UNL d   1      54.440  34.464  54.816  0.00  0.00    -0.328 OA
ATOM     28  C   UNL d   1      54.850  33.833  55.132  0.00  0.00     0.181 C 
ENDBRANCH  24  27
ENDBRANCH  18  21
ENDBRANCH   1  16
TORSDOF 3
ENDMDL
