MODEL 1
REMARK VINA RESULT:      16.1      0.000      0.000
REMARK  3 active torsions:
REMARK  status: ('A' for Active; 'I' for Inactive)
REMARK    1  A    between atoms: N_3  and  C_1 
REMARK       I    between atoms: C_5  and  N_3 
REMARK    2  A    between atoms: C_14  and  C_4 
REMARK       I    between atoms: N_8  and  C_5 
REMARK    3  A    between atoms: C_11  and  N_8 
ROOT
ATOM      1  N   UNL d   1      45.570 -15.842  44.371  0.00  0.00    -0.166 NA
ATOM      2  C   UNL d   1      44.863 -15.727  44.706  0.00  0.00     0.370 C 
ATOM      3  N   UNL d   1      44.576 -14.981  44.810  0.00  0.00    -0.191 NA
ATOM      4  O   UNL d   1      44.404 -16.367  44.955  0.00  0.00    -0.242 OA
ENDROOT
BRANCH   1   5
ATOM      5  C   UNL d   1      45.854 -16.591  44.268  0.00  0.00     0.199 A 
ATOM      6  N   UNL d   1      45.895 -16.980  43.564  0.00  0.00    -0.221 NA
ATOM      7  C   UNL d   1      46.217 -17.720  43.708  0.00  0.00     0.090 A 
ATOM      8  C   UNL d   1      46.370 -17.769  44.517  0.00  0.00     0.058 A 
ATOM      9  S   UNL d   1      46.137 -17.055  44.849  0.00  0.00    -0.046 SA
BRANCH   7  10
ATOM     10  C   UNL d   1      46.358 -18.296  43.157  0.00  0.00     0.018 A 
ATOM     11  C   UNL d   1      46.414 -19.095  43.379  0.00  0.00     0.002 A 
ATOM     12  C   UNL d   1      46.558 -19.680  42.815  0.00  0.00     0.000 A 
ATOM     13  C   UNL d   1      46.647 -19.481  42.033  0.00  0.00     0.000 A 
ATOM     14  C   UNL d   1      46.592 -18.685  41.796  0.00  0.00     0.000 A 
ATOM     15  C   UNL d   1      46.447 -18.086  42.359  0.00  0.00     0.002 A 
ENDBRANCH   7  10
ENDBRANCH   1   5
BRANCH   3  16
ATOM     16  C   UNL d   1      45.025 -14.326  44.566  0.00  0.00     0.087 A 
ATOM     17  C   UNL d   1      44.775 -13.881  43.958  0.00  0.00     0.032 A 
ATOM     18  C   UNL d   1      45.197 -13.244  43.709  0.00  0.00     0.070 A 
ATOM     19 CL   UNL d   1      44.926 -12.777  43.065  0.00  0.00    -0.081 Cl
ATOM     20  C   UNL d   1      45.878 -13.041  44.063  0.00  0.00     0.068 A 
ATOM     21  C   UNL d   1      46.162 -13.494  44.705  0.00  0.00     0.014 A 
ATOM     22 CL   UNL d   1      46.305 -12.397  43.811  0.00  0.00    -0.082 Cl
ATOM     23  C   UNL d   1      45.739 -14.131  44.954  0.00  0.00     0.020 A 
ENDBRANCH   3  16
TORSDOF 3
ENDMDL
MODEL 2
REMARK VINA RESULT:      17.6      2.307      4.902
REMARK  3 active torsions:
REMARK  status: ('A' for Active; 'I' for Inactive)
REMARK    1  A    between atoms: N_3  and  C_1 
REMARK       I    between atoms: C_5  and  N_3 
REMARK    2  A    between atoms: C_14  and  C_4 
REMARK       I    between atoms: N_8  and  C_5 
REMARK    3  A    between atoms: C_11  and  N_8 
ROOT
ATOM      1  N   UNL d   1      46.097 -17.358  43.701  0.00  0.00    -0.166 NA
ATOM      2  C   UNL d   1      46.364 -17.966  44.129  0.00  0.00     0.370 C 
ATOM      3  N   UNL d   1      46.636 -18.633  43.768  0.00  0.00    -0.191 NA
ATOM      4  O   UNL d   1      46.370 -17.932  44.955  0.00  0.00    -0.242 OA
ENDROOT
BRANCH   1   5
ATOM      5  C   UNL d   1      45.826 -16.690  44.067  0.00  0.00     0.199 A 
ATOM      6  N   UNL d   1      46.002 -15.936  43.849  0.00  0.00    -0.221 NA
ATOM      7  C   UNL d   1      45.614 -15.431  44.365  0.00  0.00     0.090 A 
ATOM      8  C   UNL d   1      45.196 -15.900  44.901  0.00  0.00     0.058 A 
ATOM      9  S   UNL d   1      45.341 -16.682  44.699  0.00  0.00    -0.046 SA
BRANCH   7  10
ATOM     10  C   UNL d   1      45.635 -14.622  44.351  0.00  0.00     0.018 A 
ATOM     11  C   UNL d   1      45.181 -14.193  43.804  0.00  0.00     0.002 A 
ATOM     12  C   UNL d   1      45.204 -13.368  43.791  0.00  0.00     0.000 A 
ATOM     13  C   UNL d   1      45.675 -12.965  44.316  0.00  0.00     0.000 A 
ATOM     14  C   UNL d   1      46.136 -13.381  44.869  0.00  0.00     0.000 A 
ATOM     15  C   UNL d   1      46.118 -14.216  44.890  0.00  0.00     0.002 A 
ENDBRANCH   7  10
ENDBRANCH   1   5
BRANCH   3  16
ATOM     16  C   UNL d   1      46.637 -18.684  42.938  0.00  0.00     0.087 A 
ATOM     17  C   UNL d   1      46.641 -19.395  42.587  0.00  0.00     0.032 A 
ATOM     18  C   UNL d   1      46.642 -19.462  41.785  0.00  0.00     0.070 A 
ATOM     19 CL   UNL d   1      46.646 -20.219  41.420  0.00  0.00    -0.081 Cl
ATOM     20  C   UNL d   1      46.638 -18.818  41.321  0.00  0.00     0.068 A 
ATOM     21  C   UNL d   1      46.634 -18.058  41.669  0.00  0.00     0.014 A 
ATOM     22 CL   UNL d   1      46.639 -18.885  40.511  0.00  0.00    -0.082 Cl
ATOM     23  C   UNL d   1      46.633 -17.991  42.470  0.00  0.00     0.020 A 
ENDBRANCH   3  16
TORSDOF 3
ENDMDL
