MODEL 1
REMARK VINA RESULT:      -3.5      0.000      0.000
REMARK  8 active torsions:
REMARK  status: ('A' for Active; 'I' for Inactive)
REMARK    1  A    between atoms: C_2  and  S_1 
REMARK    2  A    between atoms: N_11  and  S_1 
REMARK    3  A    between atoms: C_10  and  C_3 
REMARK    4  A    between atoms: N_6  and  C_18 
REMARK    5  A    between atoms: C_20  and  N_11 
REMARK    6  A    between atoms: O_17  and  C_12 
REMARK    7  A    between atoms: C_18  and  C_19 
REMARK    8  A    between atoms: C_19  and  C_20 
ROOT
ATOM      1  C   UNL d   1      58.522  -0.147  30.136  0.00  0.00     0.105 A 
ATOM      2  C   UNL d   1      59.079  -1.221  29.377  0.00  0.00     0.000 A 
ATOM      3  C   UNL d   1      58.494  -0.932  29.880  0.00  0.00     0.011 A 
ATOM      4  C   UNL d   1      59.693  -0.725  29.131  0.00  0.00     0.090 A 
ATOM      5  C   UNL d   1      59.137   0.353  29.890  0.00  0.00     0.015 A 
ATOM      6  C   UNL d   1      59.722   0.063  29.387  0.00  0.00     0.025 A 
ENDROOT
BRANCH   1   7
ATOM      7  S   UNL d   1      57.936   0.143  30.638  0.00  0.00     0.285 S 
ATOM      8  O   UNL d   1      58.477   0.160  31.259  0.00  0.00    -0.198 OA
ATOM      9  O   UNL d   1      57.395   0.126  30.017  0.00  0.00    -0.198 OA
BRANCH   7  10
ATOM     10  N   UNL d   1      57.347   0.433  31.143  0.00  0.00    -0.157 NA
BRANCH  10  11
ATOM     11  C   UNL d   1      57.218   0.070  31.877  0.00  0.00     0.114 C 
BRANCH  11  12
ATOM     12  C   UNL d   1      56.659   0.382  32.396  0.00  0.00     0.041 C 
BRANCH  12  13
ATOM     13  C   UNL d   1      56.171  -0.117  32.837  0.00  0.00     0.083 C 
BRANCH  13  14
ATOM     14  N   UNL d   1      55.694   0.187  33.437  0.00  0.00    -0.285 N 
ATOM     15  C   UNL d   1      55.929   0.317  34.216  0.00  0.00     0.183 A 
ATOM     16  N   UNL d   1      55.278   0.624  34.624  0.00  0.00    -0.222 NA
ATOM     17  C   UNL d   1      54.648   0.682  34.095  0.00  0.00     0.120 A 
ATOM     18  C   UNL d   1      54.909   0.410  33.359  0.00  0.00     0.102 A 
ENDBRANCH  13  14
ENDBRANCH  12  13
ENDBRANCH  11  12
ENDBRANCH  10  11
ENDBRANCH   7  10
ENDBRANCH   1   7
BRANCH   2  19
ATOM     19  C   UNL d   1      59.054  -2.002  29.121  0.00  0.00     0.021 C 
ATOM     20  C   UNL d   1      59.026  -2.780  28.864  0.00  0.00     0.004 C 
ATOM     21  C   UNL d   1      59.592  -2.212  29.707  0.00  0.00     0.004 C 
ATOM     22  C   UNL d   1      58.513  -1.799  28.531  0.00  0.00     0.004 C 
ENDBRANCH   2  19
BRANCH   4  23
ATOM     23  O   UNL d   1      60.279  -1.015  28.628  0.00  0.00    -0.328 OA
ATOM     24  C   UNL d   1      60.940  -0.550  28.455  0.00  0.00     0.181 C 
ENDBRANCH   4  23
TORSDOF 8
ENDMDL
MODEL 2
REMARK VINA RESULT:      -2.9      1.704      5.254
REMARK  8 active torsions:
REMARK  status: ('A' for Active; 'I' for Inactive)
REMARK    1  A    between atoms: C_2  and  S_1 
REMARK    2  A    between atoms: N_11  and  S_1 
REMARK    3  A    between atoms: C_10  and  C_3 
REMARK    4  A    between atoms: N_6  and  C_18 
REMARK    5  A    between atoms: C_20  and  N_11 
REMARK    6  A    between atoms: O_17  and  C_12 
REMARK    7  A    between atoms: C_18  and  C_19 
REMARK    8  A    between atoms: C_19  and  C_20 
ROOT
ATOM      1  C   UNL d   1      57.327   0.130  31.848  0.00  0.00     0.105 A 
ATOM      2  C   UNL d   1      56.348  -0.041  32.874  0.00  0.00     0.000 A 
ATOM      3  C   UNL d   1      56.598  -0.167  32.099  0.00  0.00     0.011 A 
ATOM      4  C   UNL d   1      56.826   0.383  33.398  0.00  0.00     0.090 A 
ATOM      5  C   UNL d   1      57.809   0.556  32.373  0.00  0.00     0.015 A 
ATOM      6  C   UNL d   1      57.558   0.682  33.148  0.00  0.00     0.025 A 
ENDROOT
BRANCH   1   7
ATOM      7  S   UNL d   1      57.577   0.004  31.073  0.00  0.00     0.285 S 
ATOM      8  O   UNL d   1      58.268  -0.347  31.354  0.00  0.00    -0.198 OA
ATOM      9  O   UNL d   1      56.887   0.356  30.793  0.00  0.00    -0.198 OA
BRANCH   7  10
ATOM     10  N   UNL d   1      57.829  -0.122  30.295  0.00  0.00    -0.157 NA
BRANCH  10  11
ATOM     11  C   UNL d   1      58.215  -0.829  30.096  0.00  0.00     0.114 C 
BRANCH  11  12
ATOM     12  C   UNL d   1      58.640  -0.880  29.392  0.00  0.00     0.041 C 
BRANCH  12  13
ATOM     13  C   UNL d   1      58.544  -1.528  28.889  0.00  0.00     0.083 C 
BRANCH  13  14
ATOM     14  N   UNL d   1      59.178  -2.027  28.723  0.00  0.00    -0.285 N 
ATOM     15  C   UNL d   1      59.963  -1.792  28.639  0.00  0.00     0.183 A 
ATOM     16  N   UNL d   1      60.408  -2.471  28.475  0.00  0.00    -0.222 NA
ATOM     17  C   UNL d   1      59.896  -3.116  28.459  0.00  0.00     0.120 A 
ATOM     18  C   UNL d   1      59.133  -2.838  28.613  0.00  0.00     0.102 A 
ENDBRANCH  13  14
ENDBRANCH  12  13
ENDBRANCH  11  12
ENDBRANCH  10  11
ENDBRANCH   7  10
ENDBRANCH   1   7
BRANCH   2  19
ATOM     19  C   UNL d   1      55.623  -0.336  33.126  0.00  0.00     0.021 C 
ATOM     20  C   UNL d   1      54.899  -0.627  33.377  0.00  0.00     0.004 C 
ATOM     21  C   UNL d   1      55.930  -1.099  33.117  0.00  0.00     0.004 C 
ATOM     22  C   UNL d   1      55.307   0.427  33.137  0.00  0.00     0.004 C 
ENDBRANCH   2  19
BRANCH   4  23
ATOM     23  O   UNL d   1      56.576   0.509  34.174  0.00  0.00    -0.328 OA
ATOM     24  C   UNL d   1      57.129   0.682  34.762  0.00  0.00     0.181 C 
ENDBRANCH   4  23
TORSDOF 8
ENDMDL
