MODEL 1
REMARK VINA RESULT:      -3.3      0.000      0.000
REMARK  5 active torsions:
REMARK  status: ('A' for Active; 'I' for Inactive)
REMARK    1  A    between atoms: N_2  and  S_1 
REMARK    2  A    between atoms: C_4  and  S_1 
REMARK    3  A    between atoms: C_5  and  C_9 
REMARK       I    between atoms: N_8  and  C_5 
REMARK    4  A    between atoms: C_17  and  N_8 
REMARK    5  A    between atoms: C_18  and  C_17 
ROOT
ATOM      1  C   UNL d   1      32.787  18.852 -23.487  0.00  0.00     0.104 A 
ATOM      2  C   UNL d   1      33.010  20.412 -23.236  0.00  0.00     0.058 A 
ATOM      3  C   UNL d   1      32.943  19.335 -24.108  0.00  0.00     0.013 A 
ATOM      4  C   UNL d   1      32.740  19.148 -22.728  0.00  0.00     0.013 A 
ATOM      5  C   UNL d   1      33.055  20.117 -23.982  0.00  0.00     0.005 A 
ATOM      6  C   UNL d   1      32.855  19.938 -22.617  0.00  0.00     0.005 A 
ENDROOT
BRANCH   1   7
ATOM      7  S   UNL d   1      32.673  18.065 -23.604  0.00  0.00     0.271 S 
ATOM      8  O   UNL d   1      32.577  18.180 -24.382  0.00  0.00    -0.200 OA
ATOM      9  O   UNL d   1      32.798  18.000 -22.670  0.00  0.00    -0.200 OA
BRANCH   7  10
ATOM     10  N   UNL d   1      32.561  17.197 -23.641  0.00  0.00    -0.231 N 
ATOM     11  C   UNL d   1      31.770  16.881 -23.853  0.00  0.00     0.075 A 
ATOM     12  C   UNL d   1      31.652  16.015 -23.892  0.00  0.00     0.017 A 
ATOM     13  C   UNL d   1      31.104  17.404 -24.023  0.00  0.00     0.018 A 
ATOM     14  C   UNL d   1      30.872  15.681 -24.100  0.00  0.00     0.002 A 
ATOM     15  C   UNL d   1      32.320  15.465 -23.721  0.00  0.00     0.003 A 
ATOM     16  C   UNL d   1      30.211  16.215 -24.269  0.00  0.00     0.000 A 
ATOM     17  C   UNL d   1      30.324  17.084 -24.231  0.00  0.00     0.002 A 
ATOM     18  C   UNL d   1      33.103  15.791 -23.512  0.00  0.00     0.020 A 
ATOM     19  C   UNL d   1      33.222  16.663 -23.472  0.00  0.00     0.092 A 
ENDBRANCH   7  10
ENDBRANCH   1   7
BRANCH   2  20
ATOM     20  C   UNL d   1      33.123  21.202 -23.112  0.00  0.00     0.279 C 
ATOM     21  N   UNL d   1      33.122  21.495 -22.360  0.00  0.00    -0.206 NA
ATOM     22  O   UNL d   1      33.236  21.699 -23.727  0.00  0.00    -0.265 OA
BRANCH  21  23
ATOM     23  C   UNL d   1      33.233  22.277 -22.233  0.00  0.00     0.102 C 
BRANCH  23  24
ATOM     24  C   UNL d   1      32.908  22.647 -21.571  0.00  0.00     0.019 A 
ATOM     25  C   UNL d   1      32.299  23.188 -21.673  0.00  0.00     0.002 A 
ATOM     26  C   UNL d   1      31.969  23.561 -21.017  0.00  0.00     0.000 A 
ATOM     27  C   UNL d   1      32.254  23.389 -20.249  0.00  0.00     0.000 A 
ATOM     28  C   UNL d   1      32.866  22.844 -20.160  0.00  0.00     0.000 A 
ATOM     29  C   UNL d   1      33.196  22.471 -20.822  0.00  0.00     0.002 A 
ENDBRANCH  23  24
ENDBRANCH  21  23
ENDBRANCH   2  20
TORSDOF 5
ENDMDL
MODEL 2
REMARK VINA RESULT:      -1.1      1.080      5.893
REMARK  5 active torsions:
REMARK  status: ('A' for Active; 'I' for Inactive)
REMARK    1  A    between atoms: N_2  and  S_1 
REMARK    2  A    between atoms: C_4  and  S_1 
REMARK    3  A    between atoms: C_5  and  C_9 
REMARK       I    between atoms: N_8  and  C_5 
REMARK    4  A    between atoms: C_17  and  N_8 
REMARK    5  A    between atoms: C_18  and  C_17 
ROOT
ATOM      1  C   UNL d   1      32.834  20.201 -22.522  0.00  0.00     0.104 A 
ATOM      2  C   UNL d   1      32.681  18.705 -23.057  0.00  0.00     0.058 A 
ATOM      3  C   UNL d   1      33.241  19.609 -22.165  0.00  0.00     0.013 A 
ATOM      4  C   UNL d   1      32.343  20.049 -23.155  0.00  0.00     0.013 A 
ATOM      5  C   UNL d   1      33.164  18.859 -22.433  0.00  0.00     0.005 A 
ATOM      6  C   UNL d   1      32.276  19.289 -23.414  0.00  0.00     0.005 A 
ENDROOT
BRANCH   1   7
ATOM      7  S   UNL d   1      32.905  20.957 -22.259  0.00  0.00     0.271 S 
ATOM      8  O   UNL d   1      32.750  20.729 -21.516  0.00  0.00    -0.200 OA
ATOM      9  O   UNL d   1      33.082  21.160 -23.164  0.00  0.00    -0.200 OA
BRANCH   7  10
ATOM     10  N   UNL d   1      33.000  21.805 -22.059  0.00  0.00    -0.231 N 
ATOM     11  C   UNL d   1      32.982  22.046 -21.215  0.00  0.00     0.075 A 
ATOM     12  C   UNL d   1      33.076  22.891 -21.009  0.00  0.00     0.017 A 
ATOM     13  C   UNL d   1      32.875  21.468 -20.581  0.00  0.00     0.018 A 
ATOM     14  C   UNL d   1      33.062  23.150 -20.175  0.00  0.00     0.002 A 
ATOM     15  C   UNL d   1      33.187  23.494 -21.643  0.00  0.00     0.003 A 
ATOM     16  C   UNL d   1      32.954  22.562 -19.548  0.00  0.00     0.000 A 
ATOM     17  C   UNL d   1      32.859  21.713 -19.748  0.00  0.00     0.002 A 
ATOM     18  C   UNL d   1      33.202  23.243 -22.478  0.00  0.00     0.020 A 
ATOM     19  C   UNL d   1      33.108  22.392 -22.687  0.00  0.00     0.092 A 
ENDBRANCH   7  10
ENDBRANCH   1   7
BRANCH   2  20
ATOM     20  C   UNL d   1      32.605  17.947 -23.325  0.00  0.00     0.279 C 
ATOM     21  N   UNL d   1      31.881  17.671 -23.550  0.00  0.00    -0.206 NA
ATOM     22  O   UNL d   1      33.241  17.467 -23.372  0.00  0.00    -0.265 OA
BRANCH  21  23
ATOM     23  C   UNL d   1      31.802  16.921 -23.817  0.00  0.00     0.102 C 
BRANCH  23  24
ATOM     24  C   UNL d   1      31.056  16.574 -23.884  0.00  0.00     0.019 A 
ATOM     25  C   UNL d   1      30.817  16.023 -23.323  0.00  0.00     0.002 A 
ATOM     26  C   UNL d   1      30.074  15.673 -23.384  0.00  0.00     0.000 A 
ATOM     27  C   UNL d   1      29.564  15.878 -24.016  0.00  0.00     0.000 A 
ATOM     28  C   UNL d   1      29.815  16.432 -24.572  0.00  0.00     0.000 A 
ATOM     29  C   UNL d   1      30.563  16.783 -24.508  0.00  0.00     0.002 A 
ENDBRANCH  23  24
ENDBRANCH  21  23
ENDBRANCH   2  20
TORSDOF 5
ENDMDL
MODEL 3
REMARK VINA RESULT:      -0.5      2.137      3.634
REMARK  5 active torsions:
REMARK  status: ('A' for Active; 'I' for Inactive)
REMARK    1  A    between atoms: N_2  and  S_1 
REMARK    2  A    between atoms: C_4  and  S_1 
REMARK    3  A    between atoms: C_5  and  C_9 
REMARK       I    between atoms: N_8  and  C_5 
REMARK    4  A    between atoms: C_17  and  N_8 
REMARK    5  A    between atoms: C_18  and  C_17 
ROOT
ATOM      1  C   UNL d   1      32.675  21.076 -21.369  0.00  0.00     0.104 A 
ATOM      2  C   UNL d   1      32.732  22.328 -20.382  0.00  0.00     0.058 A 
ATOM      3  C   UNL d   1      32.946  20.978 -20.620  0.00  0.00     0.013 A 
ATOM      4  C   UNL d   1      32.428  21.807 -21.633  0.00  0.00     0.013 A 
ATOM      5  C   UNL d   1      32.975  21.606 -20.126  0.00  0.00     0.005 A 
ATOM      6  C   UNL d   1      32.463  22.430 -21.124  0.00  0.00     0.005 A 
ENDROOT
BRANCH   1   7
ATOM      7  S   UNL d   1      32.642  20.450 -21.873  0.00  0.00     0.271 S 
ATOM      8  O   UNL d   1      32.139  20.840 -22.346  0.00  0.00    -0.200 OA
ATOM      9  O   UNL d   1      33.240  20.044 -21.267  0.00  0.00    -0.200 OA
BRANCH   7  10
ATOM     10  N   UNL d   1      32.663  19.727 -22.367  0.00  0.00    -0.231 N 
ATOM     11  C   UNL d   1      32.812  19.806 -23.228  0.00  0.00     0.075 A 
ATOM     12  C   UNL d   1      32.834  19.087 -23.726  0.00  0.00     0.017 A 
ATOM     13  C   UNL d   1      32.937  20.577 -23.598  0.00  0.00     0.018 A 
ATOM     14  C   UNL d   1      32.981  19.145 -24.585  0.00  0.00     0.002 A 
ATOM     15  C   UNL d   1      32.709  18.292 -23.367  0.00  0.00     0.003 A 
ATOM     16  C   UNL d   1      33.105  19.924 -24.945  0.00  0.00     0.000 A 
ATOM     17  C   UNL d   1      33.083  20.648 -24.450  0.00  0.00     0.002 A 
ATOM     18  C   UNL d   1      32.562  18.225 -22.509  0.00  0.00     0.020 A 
ATOM     19  C   UNL d   1      32.539  18.949 -22.007  0.00  0.00     0.092 A 
ENDBRANCH   7  10
ENDBRANCH   1   7
BRANCH   2  20
ATOM     20  C   UNL d   1      32.763  22.961 -19.881  0.00  0.00     0.279 C 
ATOM     21  N   UNL d   1      32.705  22.846 -19.084  0.00  0.00    -0.206 NA
ATOM     22  O   UNL d   1      32.849  23.702 -20.166  0.00  0.00    -0.265 OA
BRANCH  21  23
ATOM     23  C   UNL d   1      32.735  23.470 -18.584  0.00  0.00     0.102 C 
BRANCH  23  24
ATOM     24  C   UNL d   1      32.650  23.363 -17.771  0.00  0.00     0.019 A 
ATOM     25  C   UNL d   1      33.235  22.964 -17.355  0.00  0.00     0.002 A 
ATOM     26  C   UNL d   1      33.157  22.853 -16.543  0.00  0.00     0.000 A 
ATOM     27  C   UNL d   1      32.483  23.146 -16.142  0.00  0.00     0.000 A 
ATOM     28  C   UNL d   1      31.902  23.545 -16.571  0.00  0.00     0.000 A 
ATOM     29  C   UNL d   1      31.984  23.655 -17.388  0.00  0.00     0.002 A 
ENDBRANCH  23  24
ENDBRANCH  21  23
ENDBRANCH   2  20
TORSDOF 5
ENDMDL
