MODEL 1
REMARK VINA RESULT:      -3.1      0.000      0.000
REMARK  4 active torsions:
REMARK  status: ('A' for Active; 'I' for Inactive)
REMARK    1  A    between atoms: C_10  and  C_1 
REMARK    2  A    between atoms: N_7  and  C_4 
REMARK    3  A    between atoms: N_16  and  C_9 
REMARK    4  A    between atoms: C_15  and  C_10 
ROOT
ATOM      1  C   UNL d   1      29.720  16.846 -24.319  0.00  0.00     0.143 A 
ATOM      2  C   UNL d   1      29.637  16.048 -24.109  0.00  0.00     0.086 A 
ATOM      3  C   UNL d   1      30.467  17.158 -24.480  0.00  0.00     0.025 A 
ATOM      4  C   UNL d   1      30.310  15.568 -24.062  0.00  0.00     0.019 A 
ATOM      5  C   UNL d   1      31.129  16.671 -24.431  0.00  0.00     0.002 A 
ATOM      6  C   UNL d   1      31.046  15.873 -24.221  0.00  0.00     0.002 A 
ENDROOT
BRANCH   5   7
ATOM      7  C   UNL d   1      31.873  16.983 -24.592  0.00  0.00     0.010 C 
BRANCH   7   8
ATOM      8  C   UNL d   1      32.219  17.508 -24.040  0.00  0.00     0.116 A 
ATOM      9  C   UNL d   1      32.193  18.310 -24.197  0.00  0.00     0.288 A 
ATOM     10  N   UNL d   1      32.531  18.833 -23.658  0.00  0.00    -0.152 NA
ATOM     11  O   UNL d   1      31.837  18.591 -24.879  0.00  0.00    -0.265 OA
ATOM     12  C   UNL d   1      32.890  18.550 -22.969  0.00  0.00     0.374 A 
ATOM     13  N   UNL d   1      32.908  17.746 -22.826  0.00  0.00    -0.152 NA
ATOM     14  O   UNL d   1      33.232  19.070 -22.423  0.00  0.00    -0.242 OA
ATOM     15  C   UNL d   1      32.578  17.225 -23.351  0.00  0.00     0.288 A 
ATOM     16  O   UNL d   1      32.604  16.406 -23.191  0.00  0.00    -0.265 OA
ENDBRANCH   7   8
ENDBRANCH   5   7
BRANCH   1  17
ATOM     17  N   UNL d   1      29.060  17.325 -24.366  0.00  0.00    -0.112 N 
ATOM     18  O   UNL d   1      28.749  17.645 -23.679  0.00  0.00    -0.532 OA
ATOM     19  O   UNL d   1      28.731  17.469 -25.097  0.00  0.00    -0.532 OA
ENDBRANCH   1  17
BRANCH   2  20
ATOM     20  N   UNL d   1      28.897  15.744 -23.950  0.00  0.00    -0.300 N 
ATOM     21  C   UNL d   1      28.611  15.736 -23.172  0.00  0.00     0.100 C 
ATOM     22  C   UNL d   1      28.454  15.455 -24.559  0.00  0.00     0.100 C 
ENDBRANCH   2  20
TORSDOF 4
ENDMDL
MODEL 2
REMARK VINA RESULT:      -2.2      1.242      1.959
REMARK  4 active torsions:
REMARK  status: ('A' for Active; 'I' for Inactive)
REMARK    1  A    between atoms: C_10  and  C_1 
REMARK    2  A    between atoms: N_7  and  C_4 
REMARK    3  A    between atoms: N_16  and  C_9 
REMARK    4  A    between atoms: C_15  and  C_10 
ROOT
ATOM      1  C   UNL d   1      30.821  16.789 -23.977  0.00  0.00     0.143 A 
ATOM      2  C   UNL d   1      30.445  17.125 -24.635  0.00  0.00     0.086 A 
ATOM      3  C   UNL d   1      31.594  17.005 -23.785  0.00  0.00     0.025 A 
ATOM      4  C   UNL d   1      30.852  17.679 -25.097  0.00  0.00     0.019 A 
ATOM      5  C   UNL d   1      31.988  17.557 -24.251  0.00  0.00     0.002 A 
ATOM      6  C   UNL d   1      31.613  17.893 -24.909  0.00  0.00     0.002 A 
ENDROOT
BRANCH   5   7
ATOM      7  C   UNL d   1      32.759  17.772 -24.058  0.00  0.00     0.010 C 
BRANCH   7   8
ATOM      8  C   UNL d   1      32.881  18.439 -23.567  0.00  0.00     0.116 A 
ATOM      9  C   UNL d   1      32.985  18.319 -22.766  0.00  0.00     0.288 A 
ATOM     10  N   UNL d   1      33.105  18.971 -22.277  0.00  0.00    -0.152 NA
ATOM     11  O   UNL d   1      32.970  17.563 -22.451  0.00  0.00    -0.265 OA
ATOM     12  C   UNL d   1      33.121  19.735 -22.594  0.00  0.00     0.374 A 
ATOM     13  N   UNL d   1      33.015  19.838 -23.397  0.00  0.00    -0.152 NA
ATOM     14  O   UNL d   1      33.241  20.394 -22.109  0.00  0.00    -0.242 OA
ATOM     15  C   UNL d   1      32.896  19.203 -23.885  0.00  0.00     0.288 A 
ATOM     16  O   UNL d   1      32.790  19.325 -24.703  0.00  0.00    -0.265 OA
ENDBRANCH   7   8
ENDBRANCH   5   7
BRANCH   1  17
ATOM     17  N   UNL d   1      30.425  16.241 -23.518  0.00  0.00    -0.112 N 
ATOM     18  O   UNL d   1      29.856  16.502 -22.988  0.00  0.00    -0.532 OA
ATOM     19  O   UNL d   1      30.609  15.453 -23.601  0.00  0.00    -0.532 OA
ENDBRANCH   1  17
BRANCH   2  20
ATOM     20  N   UNL d   1      29.681  16.908 -24.822  0.00  0.00    -0.300 N 
ATOM     21  C   UNL d   1      29.093  17.488 -24.897  0.00  0.00     0.100 C 
ATOM     22  C   UNL d   1      29.512  16.127 -24.931  0.00  0.00     0.100 C 
ENDBRANCH   2  20
TORSDOF 4
ENDMDL
MODEL 3
REMARK VINA RESULT:      -2.2      1.699      2.443
REMARK  4 active torsions:
REMARK  status: ('A' for Active; 'I' for Inactive)
REMARK    1  A    between atoms: C_10  and  C_1 
REMARK    2  A    between atoms: N_7  and  C_4 
REMARK    3  A    between atoms: N_16  and  C_9 
REMARK    4  A    between atoms: C_15  and  C_10 
ROOT
ATOM      1  C   UNL d   1      31.744  17.103 -23.885  0.00  0.00     0.143 A 
ATOM      2  C   UNL d   1      31.101  17.519 -24.202  0.00  0.00     0.086 A 
ATOM      3  C   UNL d   1      32.454  17.494 -23.730  0.00  0.00     0.025 A 
ATOM      4  C   UNL d   1      31.177  18.328 -24.362  0.00  0.00     0.019 A 
ATOM      5  C   UNL d   1      32.519  18.298 -23.892  0.00  0.00     0.002 A 
ATOM      6  C   UNL d   1      31.876  18.714 -24.210  0.00  0.00     0.002 A 
ENDROOT
BRANCH   5   7
ATOM      7  C   UNL d   1      33.228  18.687 -23.737  0.00  0.00     0.010 C 
BRANCH   7   8
ATOM      8  C   UNL d   1      33.230  19.317 -23.187  0.00  0.00     0.116 A 
ATOM      9  C   UNL d   1      33.231  20.083 -23.473  0.00  0.00     0.288 A 
ATOM     10  N   UNL d   1      33.233  20.709 -22.936  0.00  0.00    -0.152 NA
ATOM     11  O   UNL d   1      33.229  20.228 -24.279  0.00  0.00    -0.265 OA
ATOM     12  C   UNL d   1      33.235  20.562 -22.122  0.00  0.00     0.374 A 
ATOM     13  N   UNL d   1      33.234  19.791 -21.853  0.00  0.00    -0.152 NA
ATOM     14  O   UNL d   1      33.237  21.186 -21.578  0.00  0.00    -0.242 OA
ATOM     15  C   UNL d   1      33.232  19.171 -22.373  0.00  0.00     0.288 A 
ATOM     16  O   UNL d   1      33.232  18.389 -22.082  0.00  0.00    -0.265 OA
ENDBRANCH   7   8
ENDBRANCH   5   7
BRANCH   1  17
ATOM     17  N   UNL d   1      31.674  16.306 -23.726  0.00  0.00    -0.112 N 
ATOM     18  O   UNL d   1      31.359  16.068 -23.007  0.00  0.00    -0.532 OA
ATOM     19  O   UNL d   1      31.921  15.770 -24.287  0.00  0.00    -0.532 OA
ENDBRANCH   1  17
BRANCH   2  20
ATOM     20  N   UNL d   1      30.399  17.129 -24.355  0.00  0.00    -0.300 N 
ATOM     21  C   UNL d   1      29.817  17.081 -23.766  0.00  0.00     0.100 C 
ATOM     22  C   UNL d   1      30.288  16.796 -25.080  0.00  0.00     0.100 C 
ENDBRANCH   2  20
TORSDOF 4
ENDMDL
MODEL 4
REMARK VINA RESULT:      -0.8      2.397      5.052
REMARK  4 active torsions:
REMARK  status: ('A' for Active; 'I' for Inactive)
REMARK    1  A    between atoms: C_10  and  C_1 
REMARK    2  A    between atoms: N_7  and  C_4 
REMARK    3  A    between atoms: N_16  and  C_9 
REMARK    4  A    between atoms: C_15  and  C_10 
ROOT
ATOM      1  C   UNL d   1      32.677  20.820 -21.860  0.00  0.00     0.143 A 
ATOM      2  C   UNL d   1      32.827  21.526 -22.268  0.00  0.00     0.086 A 
ATOM      3  C   UNL d   1      32.808  20.093 -22.228  0.00  0.00     0.025 A 
ATOM      4  C   UNL d   1      33.108  21.496 -23.046  0.00  0.00     0.019 A 
ATOM      5  C   UNL d   1      33.088  20.075 -23.002  0.00  0.00     0.002 A 
ATOM      6  C   UNL d   1      33.238  20.781 -23.409  0.00  0.00     0.002 A 
ENDROOT
BRANCH   5   7
ATOM      7  C   UNL d   1      33.219  19.349 -23.367  0.00  0.00     0.010 C 
BRANCH   7   8
ATOM      8  C   UNL d   1      32.588  18.987 -23.783  0.00  0.00     0.116 A 
ATOM      9  C   UNL d   1      32.157  18.405 -23.405  0.00  0.00     0.288 A 
ATOM     10  N   UNL d   1      31.534  18.045 -23.808  0.00  0.00    -0.152 NA
ATOM     11  O   UNL d   1      32.338  18.182 -22.638  0.00  0.00    -0.265 OA
ATOM     12  C   UNL d   1      31.351  18.270 -24.582  0.00  0.00     0.374 A 
ATOM     13  N   UNL d   1      31.792  18.854 -24.946  0.00  0.00    -0.152 NA
ATOM     14  O   UNL d   1      30.728  17.913 -24.993  0.00  0.00    -0.242 OA
ATOM     15  C   UNL d   1      32.405  19.213 -24.557  0.00  0.00     0.288 A 
ATOM     16  O   UNL d   1      32.846  19.808 -24.942  0.00  0.00    -0.265 OA
ENDBRANCH   7   8
ENDBRANCH   5   7
BRANCH   1  17
ATOM     17  N   UNL d   1      32.399  20.844 -21.093  0.00  0.00    -0.112 N 
ATOM     18  O   UNL d   1      32.928  20.747 -20.473  0.00  0.00    -0.532 OA
ATOM     19  O   UNL d   1      31.604  20.964 -20.966  0.00  0.00    -0.532 OA
ENDBRANCH   1  17
BRANCH   2  20
ATOM     20  N   UNL d   1      32.696  22.244 -21.900  0.00  0.00    -0.300 N 
ATOM     21  C   UNL d   1      33.217  22.508 -21.313  0.00  0.00     0.100 C 
ATOM     22  C   UNL d   1      32.056  22.683 -22.119  0.00  0.00     0.100 C 
ENDBRANCH   2  20
TORSDOF 4
ENDMDL
MODEL 5
REMARK VINA RESULT:      -0.5      2.016      4.665
REMARK  4 active torsions:
REMARK  status: ('A' for Active; 'I' for Inactive)
REMARK    1  A    between atoms: C_10  and  C_1 
REMARK    2  A    between atoms: N_7  and  C_4 
REMARK    3  A    between atoms: N_16  and  C_9 
REMARK    4  A    between atoms: C_15  and  C_10 
ROOT
ATOM      1  C   UNL d   1      32.835  20.290 -22.155  0.00  0.00     0.143 A 
ATOM      2  C   UNL d   1      32.974  20.958 -22.625  0.00  0.00     0.086 A 
ATOM      3  C   UNL d   1      32.895  19.534 -22.480  0.00  0.00     0.025 A 
ATOM      4  C   UNL d   1      33.174  20.860 -23.423  0.00  0.00     0.019 A 
ATOM      5  C   UNL d   1      33.095  19.448 -23.275  0.00  0.00     0.002 A 
ATOM      6  C   UNL d   1      33.234  20.117 -23.745  0.00  0.00     0.002 A 
ENDROOT
BRANCH   5   7
ATOM      7  C   UNL d   1      33.154  18.694 -23.598  0.00  0.00     0.010 C 
BRANCH   7   8
ATOM      8  C   UNL d   1      32.464  18.328 -23.899  0.00  0.00     0.116 A 
ATOM      9  C   UNL d   1      32.209  18.535 -24.647  0.00  0.00     0.288 A 
ATOM     10  N   UNL d   1      31.530  18.178 -24.949  0.00  0.00    -0.152 NA
ATOM     11  O   UNL d   1      32.620  19.087 -25.091  0.00  0.00    -0.265 OA
ATOM     12  C   UNL d   1      31.115  17.621 -24.501  0.00  0.00     0.374 A 
ATOM     13  N   UNL d   1      31.384  17.424 -23.755  0.00  0.00    -0.152 NA
ATOM     14  O   UNL d   1      30.433  17.259 -24.799  0.00  0.00    -0.242 OA
ATOM     15  C   UNL d   1      32.050  17.770 -23.451  0.00  0.00     0.288 A 
ATOM     16  O   UNL d   1      32.311  17.559 -22.687  0.00  0.00    -0.265 OA
ENDBRANCH   7   8
ENDBRANCH   5   7
BRANCH   1  17
ATOM     17  N   UNL d   1      32.638  20.380 -21.368  0.00  0.00    -0.112 N 
ATOM     18  O   UNL d   1      31.909  20.701 -21.173  0.00  0.00    -0.532 OA
ATOM     19  O   UNL d   1      33.173  20.147 -20.800  0.00  0.00    -0.532 OA
ENDBRANCH   1  17
BRANCH   2  20
ATOM     20  N   UNL d   1      32.914  21.704 -22.300  0.00  0.00    -0.300 N 
ATOM     21  C   UNL d   1      32.529  22.308 -22.718  0.00  0.00     0.100 C 
ATOM     22  C   UNL d   1      33.232  21.840 -21.572  0.00  0.00     0.100 C 
ENDBRANCH   2  20
TORSDOF 4
ENDMDL
