MODEL 1
REMARK VINA RESULT:      55.4      0.000      0.000
REMARK  3 active torsions:
REMARK  status: ('A' for Active; 'I' for Inactive)
REMARK    1  A    between atoms: N_5  and  S_1 
REMARK    2  A    between atoms: C_6  and  S_1 
REMARK    3  A    between atoms: C_2  and  C_9 
ROOT
ATOM      1  C   UNL d   1     -54.915-102.079 -41.682  0.00  0.00     0.104 A 
ATOM      2  C   UNL d   1     -55.119-101.504 -42.973  0.00  0.00     0.025 A 
ATOM      3  C   UNL d   1     -55.118-101.431 -42.156  0.00  0.00     0.015 A 
ATOM      4  C   UNL d   1     -54.712-102.801 -42.036  0.00  0.00     0.013 A 
ATOM      5  C   UNL d   1     -54.916-102.227 -43.326  0.00  0.00     0.002 A 
ATOM      6  C   UNL d   1     -54.712-102.878 -42.855  0.00  0.00     0.001 A 
ENDROOT
BRANCH   2   7
ATOM      7  C   UNL d   1     -55.322-100.856 -43.446  0.00  0.00     0.111 A 
ATOM      8  N   UNL d   1     -56.046-100.480 -43.450  0.00  0.00    -0.239 NA
ATOM      9  C   UNL d   1     -56.007 -99.869 -43.999  0.00  0.00     0.088 A 
ATOM     10  C   UNL d   1     -56.554 -99.310 -44.241  0.00  0.00     0.020 A 
ATOM     11  C   UNL d   1     -55.253 -99.871 -44.334  0.00  0.00     0.049 A 
ATOM     12  C   UNL d   1     -56.358 -98.756 -44.811  0.00  0.00     0.002 A 
ATOM     13  C   UNL d   1     -55.604 -98.759 -45.146  0.00  0.00     0.001 A 
ATOM     14  C   UNL d   1     -55.051 -99.323 -44.901  0.00  0.00     0.008 A 
ATOM     15  S   UNL d   1     -54.827-100.486 -43.989  0.00  0.00    -0.066 SA
ENDBRANCH   2   7
BRANCH   1  16
ATOM     16  S   UNL d   1     -54.915-102.007 -40.862  0.00  0.00     0.271 S 
ATOM     17  O   UNL d   1     -55.006-102.787 -40.727  0.00  0.00    -0.200 OA
ATOM     18  O   UNL d   1     -54.806-101.078 -41.055  0.00  0.00    -0.200 OA
BRANCH  16  19
ATOM     19  N   UNL d   1     -54.929-102.068 -40.044  0.00  0.00    -0.229 N 
ATOM     20  C   UNL d   1     -54.719-101.478 -39.499  0.00  0.00     0.092 A 
ATOM     21  C   UNL d   1     -54.819-101.783 -38.737  0.00  0.00     0.021 A 
ATOM     22  C   UNL d   1     -55.089-102.555 -38.800  0.00  0.00     0.021 A 
ATOM     23  C   UNL d   1     -55.157-102.732 -39.605  0.00  0.00     0.092 A 
ENDBRANCH  16  19
ENDBRANCH   1  16
TORSDOF 3
ENDMDL
MODEL 2
REMARK VINA RESULT:      56.4      1.207      1.646
REMARK  3 active torsions:
REMARK  status: ('A' for Active; 'I' for Inactive)
REMARK    1  A    between atoms: N_5  and  S_1 
REMARK    2  A    between atoms: C_6  and  S_1 
REMARK    3  A    between atoms: C_2  and  C_9 
ROOT
ATOM      1  C   UNL d   1     -54.734-101.707 -40.285  0.00  0.00     0.104 A 
ATOM      2  C   UNL d   1     -54.742-101.519 -41.699  0.00  0.00     0.025 A 
ATOM      3  C   UNL d   1     -54.745-101.204 -40.942  0.00  0.00     0.015 A 
ATOM      4  C   UNL d   1     -54.719-102.530 -40.395  0.00  0.00     0.013 A 
ATOM      5  C   UNL d   1     -54.727-102.341 -41.809  0.00  0.00     0.002 A 
ATOM      6  C   UNL d   1     -54.715-102.849 -41.152  0.00  0.00     0.001 A 
ENDROOT
BRANCH   2   7
ATOM      7  C   UNL d   1     -54.753-101.015 -42.356  0.00  0.00     0.111 A 
ATOM      8  N   UNL d   1     -54.714-101.253 -43.136  0.00  0.00    -0.239 NA
ATOM      9  C   UNL d   1     -54.742-100.578 -43.605  0.00  0.00     0.088 A 
ATOM     10  C   UNL d   1     -54.724-100.468 -44.416  0.00  0.00     0.020 A 
ATOM     11  C   UNL d   1     -54.799 -99.922 -43.107  0.00  0.00     0.049 A 
ATOM     12  C   UNL d   1     -54.761 -99.716 -44.735  0.00  0.00     0.002 A 
ATOM     13  C   UNL d   1     -54.819 -99.060 -44.237  0.00  0.00     0.001 A 
ATOM     14  C   UNL d   1     -54.837 -99.170 -43.418  0.00  0.00     0.008 A 
ATOM     15  S   UNL d   1     -54.806-100.195 -42.331  0.00  0.00    -0.066 SA
ENDBRANCH   2   7
BRANCH   1  16
ATOM     16  S   UNL d   1     -54.737-101.393 -39.524  0.00  0.00     0.271 S 
ATOM     17  O   UNL d   1     -54.757-102.102 -39.159  0.00  0.00    -0.200 OA
ATOM     18  O   UNL d   1     -54.714-100.559 -39.988  0.00  0.00    -0.200 OA
BRANCH  16  19
ATOM     19  N   UNL d   1     -54.744-101.208 -38.725  0.00  0.00    -0.229 N 
ATOM     20  C   UNL d   1     -54.774-101.744 -38.091  0.00  0.00     0.092 A 
ATOM     21  C   UNL d   1     -54.770-101.312 -37.387  0.00  0.00     0.021 A 
ATOM     22  C   UNL d   1     -54.738-100.513 -37.572  0.00  0.00     0.021 A 
ATOM     23  C   UNL d   1     -54.722-100.448 -38.396  0.00  0.00     0.092 A 
ENDBRANCH  16  19
ENDBRANCH   1  16
TORSDOF 3
ENDMDL
