MODEL 1
REMARK VINA RESULT:      35.1      0.000      0.000
REMARK  3 active torsions:
REMARK  status: ('A' for Active; 'I' for Inactive)
REMARK    1  A    between atoms: C_6  and  C_3 
REMARK    2  A    between atoms: C_9  and  C_6 
REMARK    3  A    between atoms: O_15  and  C_10 
ROOT
ATOM      1  C   UNL d   1     -47.189  31.758  34.885  0.00  0.00     0.001 A 
ATOM      2  C   UNL d   1     -47.762  32.922  33.854  0.00  0.00     0.094 A 
ATOM      3  C   UNL d   1     -46.664  32.145  34.381  0.00  0.00     0.002 A 
ATOM      4  C   UNL d   1     -47.992  31.945  34.879  0.00  0.00     0.002 A 
ATOM      5  C   UNL d   1     -46.959  32.735  33.859  0.00  0.00     0.024 A 
ATOM      6  C   UNL d   1     -48.279  32.508  34.383  0.00  0.00     0.024 A 
ENDROOT
BRANCH   1   7
ATOM      7  C   UNL d   1     -46.855  31.187  35.379  0.00  0.00     0.011 C 
BRANCH   7   8
ATOM      8  C   UNL d   1     -47.231  30.468  35.584  0.00  0.00     0.092 A 
ATOM      9  C   UNL d   1     -47.295  30.126  36.302  0.00  0.00     0.288 A 
ATOM     10  N   UNL d   1     -47.703  29.442  36.229  0.00  0.00    -0.163 NA
ATOM     11  O   UNL d   1     -46.969  30.456  37.029  0.00  0.00    -0.265 OA
ATOM     12  C   UNL d   1     -47.892  29.378  35.413  0.00  0.00     0.313 A 
ATOM     13  S   UNL d   1     -47.585  30.027  35.050  0.00  0.00    -0.021 SA
ATOM     14  O   UNL d   1     -48.324  28.741  35.065  0.00  0.00    -0.258 OA
ENDBRANCH   7   8
ENDBRANCH   1   7
BRANCH   2  15
ATOM     15  O   UNL d   1     -48.040  33.504  33.337  0.00  0.00    -0.328 OA
ATOM     16  C   UNL d   1     -48.830  33.671  33.306  0.00  0.00     0.181 C 
ENDBRANCH   2  15
TORSDOF 3
ENDMDL
MODEL 2
REMARK VINA RESULT:      35.6      1.629      3.614
REMARK  3 active torsions:
REMARK  status: ('A' for Active; 'I' for Inactive)
REMARK    1  A    between atoms: C_6  and  C_3 
REMARK    2  A    between atoms: C_9  and  C_6 
REMARK    3  A    between atoms: O_15  and  C_10 
ROOT
ATOM      1  C   UNL d   1     -47.273  31.322  35.073  0.00  0.00     0.001 A 
ATOM      2  C   UNL d   1     -47.708  29.812  35.599  0.00  0.00     0.094 A 
ATOM      3  C   UNL d   1     -46.941  31.025  35.767  0.00  0.00     0.002 A 
ATOM      4  C   UNL d   1     -47.817  30.876  34.642  0.00  0.00     0.002 A 
ATOM      5  C   UNL d   1     -47.165  30.258  36.030  0.00  0.00     0.024 A 
ATOM      6  C   UNL d   1     -48.034  30.143  34.889  0.00  0.00     0.024 A 
ENDROOT
BRANCH   1   7
ATOM      7  C   UNL d   1     -47.024  32.078  34.853  0.00  0.00     0.011 C 
BRANCH   7   8
ATOM      8  C   UNL d   1     -47.438  32.568  34.315  0.00  0.00     0.092 A 
ATOM      9  C   UNL d   1     -47.174  32.901  33.639  0.00  0.00     0.288 A 
ATOM     10  N   UNL d   1     -47.766  33.324  33.309  0.00  0.00    -0.163 NA
ATOM     11  O   UNL d   1     -46.374  32.806  33.331  0.00  0.00    -0.265 OA
ATOM     12  C   UNL d   1     -48.424  33.235  33.826  0.00  0.00     0.313 A 
ATOM     13  S   UNL d   1     -48.182  32.764  34.431  0.00  0.00    -0.021 SA
ATOM     14  O   UNL d   1     -49.183  33.585  33.708  0.00  0.00    -0.258 OA
ENDBRANCH   7   8
ENDBRANCH   1   7
BRANCH   2  15
ATOM     15  O   UNL d   1     -47.920  29.060  35.868  0.00  0.00    -0.328 OA
ATOM     16  C   UNL d   1     -48.121  28.484  35.338  0.00  0.00     0.181 C 
ENDBRANCH   2  15
TORSDOF 3
ENDMDL
