MODEL 1
REMARK VINA RESULT:       8.3      0.000      0.000
REMARK  1 active torsions:
REMARK  status: ('A' for Active; 'I' for Inactive)
REMARK    1  A    between atoms: C_7  and  C_3 
ROOT
ATOM      1  C   UNL d   1      24.609  12.033  -1.406  0.00  0.00     0.179 A 
ATOM      2  N   UNL d   1      24.712  11.788  -2.169  0.00  0.00    -0.221 NA
ATOM      3  C   UNL d   1      24.594  12.428  -2.677  0.00  0.00     0.101 A 
ATOM      4  N   UNL d   1      24.426  12.827  -1.430  0.00  0.00    -0.282 N 
ATOM      5  C   UNL d   1      24.420  13.058  -2.217  0.00  0.00     0.101 A 
ATOM      6  S   UNL d   1      24.612  11.813  -0.606  0.00  0.00    -0.048 SA
ATOM      7  C   UNL d   1      24.316  13.093  -0.647  0.00  0.00     0.089 A 
ATOM      8  C   UNL d   1      24.426  12.486  -0.134  0.00  0.00     0.057 A 
ENDROOT
BRANCH   3   9
ATOM      9  C   UNL d   1      24.636  12.461  -3.501  0.00  0.00     0.019 A 
ATOM     10  C   UNL d   1      24.721  11.779  -3.951  0.00  0.00     0.002 A 
ATOM     11  C   UNL d   1      24.763  11.812  -4.779  0.00  0.00     0.011 A 
ATOM     12  C   UNL d   1      24.721  12.518  -5.152  0.00  0.00     0.058 A 
ATOM     13  C   UNL d   1      24.634  13.236  -4.705  0.00  0.00     0.011 A 
ATOM     14 CL   UNL d   1      24.765  12.551  -5.994  0.00  0.00    -0.082 Cl
ATOM     15  C   UNL d   1      24.593  13.193  -3.880  0.00  0.00     0.002 A 
ENDBRANCH   3   9
TORSDOF 1
ENDMDL
MODEL 2
REMARK VINA RESULT:      10.4     10.700     10.792
REMARK  1 active torsions:
REMARK  status: ('A' for Active; 'I' for Inactive)
REMARK    1  A    between atoms: C_7  and  C_3 
ROOT
ATOM      1  C   UNL d   1      14.027  11.966  -1.075  0.00  0.00     0.179 A 
ATOM      2  N   UNL d   1      13.541  11.898  -1.716  0.00  0.00    -0.221 NA
ATOM      3  C   UNL d   1      13.887  12.285  -2.359  0.00  0.00     0.101 A 
ATOM      4  N   UNL d   1      14.680  12.393  -1.309  0.00  0.00    -0.282 N 
ATOM      5  C   UNL d   1      14.582  12.584  -2.101  0.00  0.00     0.101 A 
ATOM      6  S   UNL d   1      14.140  11.780  -0.273  0.00  0.00    -0.048 SA
ATOM      7  C   UNL d   1      15.191  12.470  -0.655  0.00  0.00     0.089 A 
ATOM      8  C   UNL d   1      14.875  12.101  -0.016  0.00  0.00     0.057 A 
ENDROOT
BRANCH   3   9
ATOM      9  C   UNL d   1      13.610  12.372  -3.132  0.00  0.00     0.019 A 
ATOM     10  C   UNL d   1      13.169  11.783  -3.495  0.00  0.00     0.002 A 
ATOM     11  C   UNL d   1      12.890  11.870  -4.272  0.00  0.00     0.011 A 
ATOM     12  C   UNL d   1      13.052  12.538  -4.680  0.00  0.00     0.058 A 
ATOM     13  C   UNL d   1      13.508  13.160  -4.323  0.00  0.00     0.011 A 
ATOM     14 CL   UNL d   1      12.769  12.627  -5.470  0.00  0.00    -0.082 Cl
ATOM     15  C   UNL d   1      13.781  13.065  -3.548  0.00  0.00     0.002 A 
ENDBRANCH   3   9
TORSDOF 1
ENDMDL
