MODEL 1
REMARK VINA RESULT:      -1.2      0.000      0.000
REMARK  6 active torsions:
REMARK  status: ('A' for Active; 'I' for Inactive)
REMARK    1  A    between atoms: C_16  and  N_1 
REMARK    2  A    between atoms: C_11  and  C_2 
REMARK    3  A    between atoms: S_15  and  C_3 
REMARK    4  A    between atoms: C_8  and  C_11 
REMARK    5  A    between atoms: C_13  and  C_17 
REMARK       I    between atoms: N_14  and  C_13 
REMARK    6  A    between atoms: C_17  and  S_15 
ROOT
ATOM      1  N   UNL d   1      32.769  21.643 -21.318  0.00  0.00    -0.269 N 
ATOM      2  C   UNL d   1      32.934  20.890 -21.608  0.00  0.00     0.172 A 
ATOM      3  C   UNL d   1      32.814  21.608 -20.508  0.00  0.00     0.201 A 
ATOM      4  N   UNL d   1      33.079  20.402 -20.967  0.00  0.00    -0.128 NA
ATOM      5  N   UNL d   1      33.004  20.851 -20.278  0.00  0.00    -0.121 NA
ENDROOT
BRANCH   2   6
ATOM      6  C   UNL d   1      32.931  20.753 -22.410  0.00  0.00     0.059 C 
BRANCH   6   7
ATOM      7  C   UNL d   1      33.014  19.983 -22.691  0.00  0.00     0.094 A 
ATOM      8  C   UNL d   1      33.084  19.845 -23.499  0.00  0.00     0.082 A 
ATOM      9  C   UNL d   1      33.168  19.072 -23.778  0.00  0.00     0.285 A 
ATOM     10  O   UNL d   1      33.240  18.924 -24.606  0.00  0.00    -0.265 OA
ATOM     11  N   UNL d   1      33.181  18.440 -23.232  0.00  0.00    -0.152 NA
ATOM     12  C   UNL d   1      33.111  18.580 -22.431  0.00  0.00     0.371 A 
ATOM     13  N   UNL d   1      33.027  19.362 -22.156  0.00  0.00    -0.191 NA
ATOM     14  O   UNL d   1      33.125  17.947 -21.900  0.00  0.00    -0.242 OA
ENDBRANCH   6   7
ENDBRANCH   2   6
BRANCH   1  15
ATOM     15  C   UNL d   1      32.588  22.323 -21.740  0.00  0.00     0.067 A 
ATOM     16  C   UNL d   1      33.200  22.821 -21.998  0.00  0.00     0.018 A 
ATOM     17  C   UNL d   1      33.019  23.513 -22.426  0.00  0.00     0.002 A 
ATOM     18  C   UNL d   1      32.231  23.696 -22.590  0.00  0.00     0.000 A 
ATOM     19  C   UNL d   1      31.624  23.196 -22.330  0.00  0.00     0.002 A 
ATOM     20  C   UNL d   1      31.805  22.512 -21.906  0.00  0.00     0.018 A 
ENDBRANCH   1  15
BRANCH   3  21
ATOM     21  S   UNL d   1      32.683  22.262 -19.989  0.00  0.00    -0.043 SA
BRANCH  21  22
ATOM     22  C   UNL d   1      33.149  22.339 -19.300  0.00  0.00     0.099 C 
BRANCH  22  23
ATOM     23  C   UNL d   1      32.984  22.948 -18.763  0.00  0.00     0.271 C 
ATOM     24  N   UNL d   1      33.038  22.801 -17.949  0.00  0.00    -0.272 N 
ATOM     25  C   UNL d   1      33.240  22.113 -17.524  0.00  0.00     0.083 A 
ATOM     26  C   UNL d   1      32.876  23.403 -17.403  0.00  0.00     0.083 A 
ATOM     27  C   UNL d   1      33.201  22.294 -16.720  0.00  0.00     0.021 A 
ATOM     28  C   UNL d   1      32.976  23.091 -16.649  0.00  0.00     0.021 A 
ATOM     29  O   UNL d   1      32.766  23.702 -19.032  0.00  0.00    -0.266 OA
ENDBRANCH  22  23
ENDBRANCH  21  22
ENDBRANCH   3  21
TORSDOF 6
ENDMDL
MODEL 2
REMARK VINA RESULT:      -0.4      3.493      5.796
REMARK  6 active torsions:
REMARK  status: ('A' for Active; 'I' for Inactive)
REMARK    1  A    between atoms: C_16  and  N_1 
REMARK    2  A    between atoms: C_11  and  C_2 
REMARK    3  A    between atoms: S_15  and  C_3 
REMARK    4  A    between atoms: C_8  and  C_11 
REMARK    5  A    between atoms: C_13  and  C_17 
REMARK       I    between atoms: N_14  and  C_13 
REMARK    6  A    between atoms: C_17  and  S_15 
ROOT
ATOM      1  N   UNL d   1      31.578  17.218 -24.032  0.00  0.00    -0.269 N 
ATOM      2  C   UNL d   1      30.758  17.182 -24.100  0.00  0.00     0.172 A 
ATOM      3  C   UNL d   1      31.769  17.963 -23.769  0.00  0.00     0.201 A 
ATOM      4  N   UNL d   1      30.456  17.909 -23.875  0.00  0.00    -0.128 NA
ATOM      5  N   UNL d   1      31.089  18.398 -23.669  0.00  0.00    -0.121 NA
ENDROOT
BRANCH   2   6
ATOM      6  C   UNL d   1      30.400  16.497 -24.354  0.00  0.00     0.059 C 
BRANCH   6   7
ATOM      7  C   UNL d   1      29.678  16.270 -24.029  0.00  0.00     0.094 A 
ATOM      8  C   UNL d   1      29.010  16.218 -24.506  0.00  0.00     0.082 A 
ATOM      9  C   UNL d   1      28.286  15.991 -24.177  0.00  0.00     0.285 A 
ATOM     10  O   UNL d   1      27.598  15.936 -24.662  0.00  0.00    -0.265 OA
ATOM     11  N   UNL d   1      28.246  15.816 -23.362  0.00  0.00    -0.152 NA
ATOM     12  C   UNL d   1      28.911  15.868 -22.892  0.00  0.00     0.371 A 
ATOM     13  N   UNL d   1      29.637  16.098 -23.228  0.00  0.00    -0.191 NA
ATOM     14  O   UNL d   1      28.859  15.693 -22.085  0.00  0.00    -0.242 OA
ENDBRANCH   6   7
ENDBRANCH   2   6
BRANCH   1  15
ATOM     15  C   UNL d   1      32.129  16.632 -24.192  0.00  0.00     0.067 A 
ATOM     16  C   UNL d   1      32.508  16.614 -24.930  0.00  0.00     0.018 A 
ATOM     17  C   UNL d   1      33.068  16.020 -25.094  0.00  0.00     0.002 A 
ATOM     18  C   UNL d   1      33.241  15.453 -24.520  0.00  0.00     0.000 A 
ATOM     19  C   UNL d   1      32.860  15.475 -23.785  0.00  0.00     0.002 A 
ATOM     20  C   UNL d   1      32.306  16.064 -23.624  0.00  0.00     0.018 A 
ENDBRANCH   1  15
BRANCH   3  21
ATOM     21  S   UNL d   1      32.554  18.236 -23.624  0.00  0.00    -0.043 SA
BRANCH  21  22
ATOM     22  C   UNL d   1      32.672  19.005 -23.317  0.00  0.00     0.099 C 
BRANCH  22  23
ATOM     23  C   UNL d   1      32.949  19.096 -22.542  0.00  0.00     0.271 C 
ATOM     24  N   UNL d   1      32.951  19.848 -22.194  0.00  0.00    -0.272 N 
ATOM     25  C   UNL d   1      32.713  20.592 -22.486  0.00  0.00     0.083 A 
ATOM     26  C   UNL d   1      33.227  19.951 -21.420  0.00  0.00     0.083 A 
ATOM     27  C   UNL d   1      32.843  21.148 -21.890  0.00  0.00     0.021 A 
ATOM     28  C   UNL d   1      33.160  20.750 -21.234  0.00  0.00     0.021 A 
ATOM     29  O   UNL d   1      33.224  18.442 -22.111  0.00  0.00    -0.266 OA
ENDBRANCH  22  23
ENDBRANCH  21  22
ENDBRANCH   3  21
TORSDOF 6
ENDMDL
MODEL 3
REMARK VINA RESULT:       0.9      1.665      2.595
REMARK  6 active torsions:
REMARK  status: ('A' for Active; 'I' for Inactive)
REMARK    1  A    between atoms: C_16  and  N_1 
REMARK    2  A    between atoms: C_11  and  C_2 
REMARK    3  A    between atoms: S_15  and  C_3 
REMARK    4  A    between atoms: C_8  and  C_11 
REMARK    5  A    between atoms: C_13  and  C_17 
REMARK       I    between atoms: N_14  and  C_13 
REMARK    6  A    between atoms: C_17  and  S_15 
ROOT
ATOM      1  N   UNL d   1      33.113  19.991 -22.984  0.00  0.00    -0.269 N 
ATOM      2  C   UNL d   1      33.106  19.169 -22.933  0.00  0.00     0.172 A 
ATOM      3  C   UNL d   1      33.093  20.283 -22.227  0.00  0.00     0.201 A 
ATOM      4  N   UNL d   1      33.082  18.968 -22.139  0.00  0.00    -0.128 NA
ATOM      5  N   UNL d   1      33.073  19.666 -21.697  0.00  0.00    -0.121 NA
ENDROOT
BRANCH   2   6
ATOM      6  C   UNL d   1      33.124  18.718 -23.610  0.00  0.00     0.059 C 
BRANCH   6   7
ATOM      7  C   UNL d   1      32.739  17.990 -23.624  0.00  0.00     0.094 A 
ATOM      8  C   UNL d   1      33.176  17.293 -23.624  0.00  0.00     0.082 A 
ATOM      9  C   UNL d   1      32.787  16.564 -23.638  0.00  0.00     0.285 A 
ATOM     10  O   UNL d   1      33.230  15.846 -23.638  0.00  0.00    -0.265 OA
ATOM     11  N   UNL d   1      31.952  16.547 -23.652  0.00  0.00    -0.152 NA
ATOM     12  C   UNL d   1      31.522  17.240 -23.652  0.00  0.00     0.371 A 
ATOM     13  N   UNL d   1      31.919  17.972 -23.638  0.00  0.00    -0.191 NA
ATOM     14  O   UNL d   1      30.695  17.211 -23.666  0.00  0.00    -0.242 OA
ENDBRANCH   6   7
ENDBRANCH   2   6
BRANCH   1  15
ATOM     15  C   UNL d   1      33.136  20.459 -23.657  0.00  0.00     0.067 A 
ATOM     16  C   UNL d   1      33.076  21.283 -23.586  0.00  0.00     0.018 A 
ATOM     17  C   UNL d   1      33.099  21.761 -24.269  0.00  0.00     0.002 A 
ATOM     18  C   UNL d   1      33.181  21.409 -25.011  0.00  0.00     0.000 A 
ATOM     19  C   UNL d   1      33.241  20.585 -25.076  0.00  0.00     0.002 A 
ATOM     20  C   UNL d   1      33.218  20.114 -24.400  0.00  0.00     0.018 A 
ENDBRANCH   1  15
BRANCH   3  21
ATOM     21  S   UNL d   1      33.092  21.104 -22.027  0.00  0.00    -0.043 SA
BRANCH  21  22
ATOM     22  C   UNL d   1      33.098  21.330 -21.222  0.00  0.00     0.099 C 
BRANCH  22  23
ATOM     23  C   UNL d   1      32.903  22.108 -21.016  0.00  0.00     0.271 C 
ATOM     24  N   UNL d   1      32.983  22.356 -20.229  0.00  0.00    -0.272 N 
ATOM     25  C   UNL d   1      33.240  21.952 -19.546  0.00  0.00     0.083 A 
ATOM     26  C   UNL d   1      32.791  23.132 -20.013  0.00  0.00     0.083 A 
ATOM     27  C   UNL d   1      33.205  22.480 -18.915  0.00  0.00     0.021 A 
ATOM     28  C   UNL d   1      32.927  23.207 -19.205  0.00  0.00     0.021 A 
ATOM     29  O   UNL d   1      32.628  22.642 -21.589  0.00  0.00    -0.266 OA
ENDBRANCH  22  23
ENDBRANCH  21  22
ENDBRANCH   3  21
TORSDOF 6
ENDMDL
MODEL 4
REMARK VINA RESULT:       1.6      2.048      5.532
REMARK  6 active torsions:
REMARK  status: ('A' for Active; 'I' for Inactive)
REMARK    1  A    between atoms: C_16  and  N_1 
REMARK    2  A    between atoms: C_11  and  C_2 
REMARK    3  A    between atoms: S_15  and  C_3 
REMARK    4  A    between atoms: C_8  and  C_11 
REMARK    5  A    between atoms: C_13  and  C_17 
REMARK       I    between atoms: N_14  and  C_13 
REMARK    6  A    between atoms: C_17  and  S_15 
ROOT
ATOM      1  N   UNL d   1      33.084  19.808 -22.851  0.00  0.00    -0.269 N 
ATOM      2  C   UNL d   1      33.148  20.177 -22.117  0.00  0.00     0.172 A 
ATOM      3  C   UNL d   1      32.999  19.012 -22.717  0.00  0.00     0.201 A 
ATOM      4  N   UNL d   1      33.101  19.597 -21.541  0.00  0.00    -0.128 NA
ATOM      5  N   UNL d   1      33.007  18.868 -21.917  0.00  0.00    -0.121 NA
ENDROOT
BRANCH   2   6
ATOM      6  C   UNL d   1      33.241  20.984 -22.074  0.00  0.00     0.059 C 
BRANCH   6   7
ATOM      7  C   UNL d   1      32.993  21.387 -21.399  0.00  0.00     0.094 A 
ATOM      8  C   UNL d   1      32.527  22.061 -21.469  0.00  0.00     0.082 A 
ATOM      9  C   UNL d   1      32.280  22.463 -20.791  0.00  0.00     0.285 A 
ATOM     10  O   UNL d   1      31.802  23.155 -20.857  0.00  0.00    -0.265 OA
ATOM     11  N   UNL d   1      32.508  22.175 -20.041  0.00  0.00    -0.152 NA
ATOM     12  C   UNL d   1      32.970  21.505 -19.975  0.00  0.00     0.371 A 
ATOM     13  N   UNL d   1      33.216  21.105 -20.662  0.00  0.00    -0.191 NA
ATOM     14  O   UNL d   1      33.189  21.229 -19.226  0.00  0.00    -0.242 OA
ENDBRANCH   6   7
ENDBRANCH   2   6
BRANCH   1  15
ATOM     15  C   UNL d   1      33.100  20.150 -23.596  0.00  0.00     0.067 A 
ATOM     16  C   UNL d   1      33.002  20.970 -23.674  0.00  0.00     0.018 A 
ATOM     17  C   UNL d   1      33.018  21.320 -24.431  0.00  0.00     0.002 A 
ATOM     18  C   UNL d   1      33.131  20.846 -25.097  0.00  0.00     0.000 A 
ATOM     19  C   UNL d   1      33.229  20.027 -25.013  0.00  0.00     0.002 A 
ATOM     20  C   UNL d   1      33.213  19.683 -24.264  0.00  0.00     0.018 A 
ENDBRANCH   1  15
BRANCH   3  21
ATOM     21  S   UNL d   1      32.915  18.428 -23.321  0.00  0.00    -0.043 SA
BRANCH  21  22
ATOM     22  C   UNL d   1      32.415  17.770 -23.191  0.00  0.00     0.099 C 
BRANCH  22  23
ATOM     23  C   UNL d   1      32.483  17.104 -23.678  0.00  0.00     0.271 C 
ATOM     24  N   UNL d   1      31.815  16.636 -23.826  0.00  0.00    -0.272 N 
ATOM     25  C   UNL d   1      31.026  16.702 -23.565  0.00  0.00     0.083 A 
ATOM     26  C   UNL d   1      31.872  15.968 -24.312  0.00  0.00     0.083 A 
ATOM     27  C   UNL d   1      30.602  16.074 -23.892  0.00  0.00     0.021 A 
ATOM     28  C   UNL d   1      31.125  15.623 -24.352  0.00  0.00     0.021 A 
ATOM     29  O   UNL d   1      33.212  16.901 -24.019  0.00  0.00    -0.266 OA
ENDBRANCH  22  23
ENDBRANCH  21  22
ENDBRANCH   3  21
TORSDOF 6
ENDMDL
