MODEL 1
REMARK VINA RESULT:      -2.1      0.000      0.000
REMARK  7 active torsions:
REMARK  status: ('A' for Active; 'I' for Inactive)
REMARK    1  A    between atoms: C_3  and  C_1 
REMARK    2  A    between atoms: C_6  and  C_1 
REMARK    3  A    between atoms: C_2  and  C_3 
REMARK       I    between atoms: N_4  and  C_2 
REMARK    4  A    between atoms: C_12  and  N_4 
REMARK    5  A    between atoms: N_7  and  C_5 
REMARK    6  A    between atoms: C_16  and  N_7 
REMARK    7  A    between atoms: C_17  and  N_7 
ROOT
ATOM      1  C   UNL d   1     -41.473-121.123 -52.408  0.00  0.00     0.279 C 
ATOM      2  N   UNL d   1     -41.541-120.984 -51.601  0.00  0.00    -0.208 NA
ATOM      3  O   UNL d   1     -41.289-120.492 -52.913  0.00  0.00    -0.265 OA
ENDROOT
BRANCH   2   4
ATOM      4  C   UNL d   1     -41.723-121.608 -51.102  0.00  0.00     0.085 A 
ATOM      5  C   UNL d   1     -41.123-121.972 -50.666  0.00  0.00     0.021 A 
ATOM      6  C   UNL d   1     -41.307-122.604 -50.161  0.00  0.00     0.019 A 
ATOM      7  C   UNL d   1     -42.077-122.870 -50.091  0.00  0.00     0.064 A 
ATOM      8  C   UNL d   1     -42.682-122.500 -50.533  0.00  0.00     0.019 A 
ATOM      9  C   UNL d   1     -42.497-121.868 -51.038  0.00  0.00     0.021 A 
BRANCH   7  10
ATOM     10  N   UNL d   1     -42.259-123.491 -49.594  0.00  0.00    -0.304 N 
BRANCH  10  11
ATOM     11  C   UNL d   1     -43.028-123.813 -49.599  0.00  0.00     0.080 C 
ATOM     12  C   UNL d   1     -43.488-123.790 -48.907  0.00  0.00     0.021 C 
ENDBRANCH  10  11
BRANCH  10  13
ATOM     13  C   UNL d   1     -41.692-123.799 -49.094  0.00  0.00     0.080 C 
ATOM     14  C   UNL d   1     -41.813-123.772 -48.282  0.00  0.00     0.021 C 
ENDBRANCH  10  13
ENDBRANCH   7  10
ENDBRANCH   2   4
BRANCH   1  15
ATOM     15  C   UNL d   1     -41.583-121.869 -52.725  0.00  0.00     0.063 C 
BRANCH  15  16
ATOM     16  C   UNL d   1     -41.964-121.959 -53.451  0.00  0.00     0.006 C 
BRANCH  16  17
ATOM     17  C   UNL d   1     -41.704-122.523 -53.992  0.00  0.00     0.011 A 
ATOM     18  C   UNL d   1     -41.746-122.389 -54.795  0.00  0.00     0.058 A 
ATOM     19 CL   UNL d   1     -42.047-121.691 -55.064  0.00  0.00    -0.082 Cl
ATOM     20  C   UNL d   1     -41.483-122.960 -55.342  0.00  0.00     0.011 A 
ATOM     21  C   UNL d   1     -41.179-123.663 -55.085  0.00  0.00     0.001 A 
ATOM     22  C   UNL d   1     -41.134-123.805 -54.267  0.00  0.00     0.000 A 
ATOM     23  C   UNL d   1     -41.392-123.246 -53.731  0.00  0.00     0.001 A 
ENDBRANCH  16  17
ENDBRANCH  15  16
ENDBRANCH   1  15
TORSDOF 7
ENDMDL
MODEL 2
REMARK VINA RESULT:      -0.2      1.768      4.551
REMARK  7 active torsions:
REMARK  status: ('A' for Active; 'I' for Inactive)
REMARK    1  A    between atoms: C_3  and  C_1 
REMARK    2  A    between atoms: C_6  and  C_1 
REMARK    3  A    between atoms: C_2  and  C_3 
REMARK       I    between atoms: N_4  and  C_2 
REMARK    4  A    between atoms: C_12  and  N_4 
REMARK    5  A    between atoms: N_7  and  C_5 
REMARK    6  A    between atoms: C_16  and  N_7 
REMARK    7  A    between atoms: C_17  and  N_7 
ROOT
ATOM      1  C   UNL d   1     -41.361-121.391 -50.635  0.00  0.00     0.279 C 
ATOM      2  N   UNL d   1     -41.124-121.061 -51.350  0.00  0.00    -0.208 NA
ATOM      3  O   UNL d   1     -41.187-120.992 -49.930  0.00  0.00    -0.265 OA
ENDROOT
BRANCH   2   4
ATOM      4  C   UNL d   1     -41.296-121.455 -52.048  0.00  0.00     0.085 A 
ATOM      5  C   UNL d   1     -41.561-121.029 -52.704  0.00  0.00     0.021 A 
ATOM      6  C   UNL d   1     -41.735-121.428 -53.411  0.00  0.00     0.019 A 
ATOM      7  C   UNL d   1     -41.647-122.239 -53.463  0.00  0.00     0.064 A 
ATOM      8  C   UNL d   1     -41.380-122.668 -52.798  0.00  0.00     0.019 A 
ATOM      9  C   UNL d   1     -41.205-122.269 -52.091  0.00  0.00     0.021 A 
BRANCH   7  10
ATOM     10  N   UNL d   1     -41.819-122.631 -54.157  0.00  0.00    -0.304 N 
BRANCH  10  11
ATOM     11  C   UNL d   1     -41.521-123.400 -54.282  0.00  0.00     0.080 C 
ATOM     12  C   UNL d   1     -41.164-123.591 -55.009  0.00  0.00     0.021 C 
ENDBRANCH  10  11
BRANCH  10  13
ATOM     13  C   UNL d   1     -42.279-122.276 -54.730  0.00  0.00     0.080 C 
ATOM     14  C   UNL d   1     -42.862-122.713 -55.108  0.00  0.00     0.021 C 
ENDBRANCH  10  13
ENDBRANCH   7  10
ENDBRANCH   2   4
BRANCH   1  15
ATOM     15  C   UNL d   1     -41.764-122.101 -50.604  0.00  0.00     0.063 C 
BRANCH  15  16
ATOM     16  C   UNL d   1     -41.784-122.537 -49.904  0.00  0.00     0.006 C 
BRANCH  16  17
ATOM     17  C   UNL d   1     -42.485-122.886 -49.648  0.00  0.00     0.011 A 
ATOM     18  C   UNL d   1     -42.484-123.465 -49.074  0.00  0.00     0.058 A 
ATOM     19 CL   UNL d   1     -41.783-123.700 -48.751  0.00  0.00    -0.082 Cl
ATOM     20  C   UNL d   1     -43.193-123.817 -48.816  0.00  0.00     0.011 A 
ATOM     21  C   UNL d   1     -43.902-123.591 -49.132  0.00  0.00     0.001 A 
ATOM     22  C   UNL d   1     -43.908-123.001 -49.718  0.00  0.00     0.000 A 
ATOM     23  C   UNL d   1     -43.214-122.655 -49.971  0.00  0.00     0.001 A 
ENDBRANCH  16  17
ENDBRANCH  15  16
ENDBRANCH   1  15
TORSDOF 7
ENDMDL
