MODEL 1
REMARK VINA RESULT:      -5.7      0.000      0.000
REMARK  0 active torsions:
REMARK  status: ('A' for Active; 'I' for Inactive)
ROOT
ATOM      1  C   UNL d   1     -41.413-122.380 -53.214  0.00  0.00     0.106 A 
ATOM      2  O   UNL d   1     -41.412-121.671 -52.805  0.00  0.00    -0.273 OA
ATOM      3  C   UNL d   1     -41.338-121.672 -51.979  0.00  0.00     0.300 A 
ATOM      4  C   UNL d   1     -41.270-123.098 -51.989  0.00  0.00     0.007 A 
ATOM      5  C   UNL d   1     -41.342-123.098 -52.803  0.00  0.00     0.023 A 
ATOM      6  C   UNL d   1     -41.267-122.387 -51.571  0.00  0.00     0.064 A 
ATOM      7  C   UNL d   1     -41.486-122.380 -54.034  0.00  0.00     0.062 A 
ATOM      8  C   UNL d   1     -41.344-123.807 -53.218  0.00  0.00     0.005 A 
ATOM      9  C   UNL d   1     -41.488-123.098 -54.448  0.00  0.00     0.198 A 
ATOM     10  O   UNL d   1     -41.336-120.950 -51.558  0.00  0.00    -0.259 OA
ATOM     11  C   UNL d   1     -41.417-123.813 -54.040  0.00  0.00     0.042 A 
ATOM     12  C   UNL d   1     -41.198-123.815 -51.580  0.00  0.00     0.000 A 
ATOM     13  C   UNL d   1     -41.195-122.384 -50.754  0.00  0.00     0.005 A 
ATOM     14  O   UNL d   1     -41.562-123.098 -55.277  0.00  0.00    -0.286 OA
ATOM     15  C   UNL d   1     -41.556-121.680 -54.434  0.00  0.00     0.005 C 
ATOM     16  C   UNL d   1     -41.125-123.816 -50.759  0.00  0.00     0.000 A 
ATOM     17  C   UNL d   1     -41.123-123.095 -50.333  0.00  0.00     0.000 A 
ENDROOT
TORSDOF 0
ENDMDL
