MODEL 1
REMARK VINA RESULT:     -10.9      0.000      0.000
REMARK  2 active torsions:
REMARK  status: ('A' for Active; 'I' for Inactive)
REMARK    1  A    between atoms: C_6  and  N_2 
REMARK    2  A    between atoms: C_8  and  C_5 
ROOT
ATOM      1  C   UNL d   1      53.360  34.768  54.703  0.00  0.00     0.265 A 
ATOM      2  N   UNL d   1      53.164  34.125  54.225  0.00  0.00    -0.275 N 
ATOM      3  C   UNL d   1      54.202  33.773  54.982  0.00  0.00     0.021 A 
ATOM      4  C   UNL d   1      54.003  34.550  55.171  0.00  0.00     0.063 A 
ATOM      5  C   UNL d   1      53.681  33.512  54.395  0.00  0.00     0.067 A 
ATOM      6  O   UNL d   1      52.980  35.507  54.712  0.00  0.00    -0.267 OA
ATOM      7  C   UNL d   1      54.814  33.334  55.319  0.00  0.00     0.002 C 
ENDROOT
BRANCH   2   8
ATOM      8  C   UNL d   1      52.547  34.111  53.670  0.00  0.00     0.067 A 
ATOM      9  C   UNL d   1      52.678  34.413  52.909  0.00  0.00     0.018 A 
ATOM     10  C   UNL d   1      52.079  34.405  52.352  0.00  0.00     0.002 A 
ATOM     11  C   UNL d   1      51.334  34.095  52.549  0.00  0.00     0.000 A 
ATOM     12  C   UNL d   1      51.207  33.793  53.315  0.00  0.00     0.002 A 
ATOM     13  C   UNL d   1      50.725  34.084  51.992  0.00  0.00     0.000 C 
ATOM     14  C   UNL d   1      51.813  33.804  53.868  0.00  0.00     0.018 A 
ENDBRANCH   2   8
BRANCH   5  15
ATOM     15  C   UNL d   1      53.683  32.765  54.045  0.00  0.00     0.016 A 
ATOM     16  C   UNL d   1      53.266  32.141  54.396  0.00  0.00     0.002 A 
ATOM     17  C   UNL d   1      53.269  31.394  54.047  0.00  0.00     0.011 A 
ATOM     18  C   UNL d   1      53.689  31.266  53.341  0.00  0.00     0.058 A 
ATOM     19  C   UNL d   1      54.105  31.886  52.990  0.00  0.00     0.011 A 
ATOM     20 CL   UNL d   1      53.689  30.510  52.991  0.00  0.00    -0.082 Cl
ATOM     21  C   UNL d   1      54.104  32.637  53.340  0.00  0.00     0.002 A 
ENDBRANCH   5  15
TORSDOF 2
ENDMDL
MODEL 2
REMARK VINA RESULT:     -10.4      1.271      2.944
REMARK  2 active torsions:
REMARK  status: ('A' for Active; 'I' for Inactive)
REMARK    1  A    between atoms: C_6  and  N_2 
REMARK    2  A    between atoms: C_8  and  C_5 
ROOT
ATOM      1  C   UNL d   1      54.214  33.721  54.942  0.00  0.00     0.265 A 
ATOM      2  N   UNL d   1      53.678  33.461  54.372  0.00  0.00    -0.275 N 
ATOM      3  C   UNL d   1      53.409  34.739  54.637  0.00  0.00     0.021 A 
ATOM      4  C   UNL d   1      54.049  34.512  55.106  0.00  0.00     0.063 A 
ATOM      5  C   UNL d   1      53.181  34.086  54.183  0.00  0.00     0.067 A 
ATOM      6  O   UNL d   1      54.817  33.268  55.291  0.00  0.00    -0.267 OA
ATOM      7  C   UNL d   1      53.060  35.486  54.624  0.00  0.00     0.002 C 
ENDROOT
BRANCH   2   8
ATOM      8  C   UNL d   1      53.652  32.696  54.051  0.00  0.00     0.067 A 
ATOM      9  C   UNL d   1      53.211  32.110  54.434  0.00  0.00     0.018 A 
ATOM     10  C   UNL d   1      53.177  31.351  54.129  0.00  0.00     0.002 A 
ATOM     11  C   UNL d   1      53.588  31.166  53.432  0.00  0.00     0.000 A 
ATOM     12  C   UNL d   1      54.031  31.760  53.050  0.00  0.00     0.002 A 
ATOM     13  C   UNL d   1      53.558  30.404  53.118  0.00  0.00     0.000 C 
ATOM     14  C   UNL d   1      54.060  32.518  53.362  0.00  0.00     0.018 A 
ENDBRANCH   2   8
BRANCH   5  15
ATOM     15  C   UNL d   1      52.563  34.070  53.637  0.00  0.00     0.016 A 
ATOM     16  C   UNL d   1      52.695  34.306  52.854  0.00  0.00     0.002 A 
ATOM     17  C   UNL d   1      52.077  34.291  52.308  0.00  0.00     0.011 A 
ATOM     18  C   UNL d   1      51.321  34.037  52.543  0.00  0.00     0.058 A 
ATOM     19  C   UNL d   1      51.188  33.802  53.322  0.00  0.00     0.011 A 
ATOM     20 CL   UNL d   1      50.700  34.023  51.989  0.00  0.00    -0.082 Cl
ATOM     21  C   UNL d   1      51.807  33.817  53.872  0.00  0.00     0.002 A 
ENDBRANCH   5  15
TORSDOF 2
ENDMDL
MODEL 3
REMARK VINA RESULT:     -10.4      1.785      2.717
REMARK  2 active torsions:
REMARK  status: ('A' for Active; 'I' for Inactive)
REMARK    1  A    between atoms: C_6  and  N_2 
REMARK    2  A    between atoms: C_8  and  C_5 
ROOT
ATOM      1  C   UNL d   1      52.495  31.222  52.862  0.00  0.00     0.265 A 
ATOM      2  N   UNL d   1      52.768  31.925  53.197  0.00  0.00    -0.275 N 
ATOM      3  C   UNL d   1      53.620  30.955  53.526  0.00  0.00     0.021 A 
ATOM      4  C   UNL d   1      53.022  30.621  53.066  0.00  0.00     0.063 A 
ATOM      5  C   UNL d   1      53.460  31.762  53.606  0.00  0.00     0.067 A 
ATOM      6  O   UNL d   1      51.810  31.132  52.401  0.00  0.00    -0.267 OA
ATOM      7  C   UNL d   1      54.263  30.551  53.849  0.00  0.00     0.002 C 
ENDROOT
BRANCH   2   8
ATOM      8  C   UNL d   1      52.398  32.665  53.126  0.00  0.00     0.067 A 
ATOM      9  C   UNL d   1      51.800  32.872  53.660  0.00  0.00     0.018 A 
ATOM     10  C   UNL d   1      51.427  33.598  53.602  0.00  0.00     0.002 A 
ATOM     11  C   UNL d   1      51.648  34.131  53.005  0.00  0.00     0.000 A 
ATOM     12  C   UNL d   1      52.251  33.918  52.471  0.00  0.00     0.002 A 
ATOM     13  C   UNL d   1      51.277  34.865  52.940  0.00  0.00     0.000 C 
ATOM     14  C   UNL d   1      52.621  33.188  52.535  0.00  0.00     0.018 A 
ENDBRANCH   2   8
BRANCH   5  15
ATOM     15  C   UNL d   1      53.919  32.306  54.024  0.00  0.00     0.016 A 
ATOM     16  C   UNL d   1      54.526  32.718  53.641  0.00  0.00     0.002 A 
ATOM     17  C   UNL d   1      54.984  33.262  54.059  0.00  0.00     0.011 A 
ATOM     18  C   UNL d   1      54.838  33.396  54.866  0.00  0.00     0.058 A 
ATOM     19  C   UNL d   1      54.233  32.986  55.250  0.00  0.00     0.011 A 
ATOM     20 CL   UNL d   1      55.303  33.945  55.284  0.00  0.00    -0.082 Cl
ATOM     21  C   UNL d   1      53.772  32.440  54.831  0.00  0.00     0.002 A 
ENDBRANCH   5  15
TORSDOF 2
ENDMDL
MODEL 4
REMARK VINA RESULT:      -9.9      1.882      2.772
REMARK  2 active torsions:
REMARK  status: ('A' for Active; 'I' for Inactive)
REMARK    1  A    between atoms: C_6  and  N_2 
REMARK    2  A    between atoms: C_8  and  C_5 
ROOT
ATOM      1  C   UNL d   1      52.850  32.236  52.931  0.00  0.00     0.265 A 
ATOM      2  N   UNL d   1      52.612  32.996  53.148  0.00  0.00    -0.275 N 
ATOM      3  C   UNL d   1      53.823  32.781  53.661  0.00  0.00     0.021 A 
ATOM      4  C   UNL d   1      53.600  32.103  53.249  0.00  0.00     0.063 A 
ATOM      5  C   UNL d   1      53.210  33.333  53.597  0.00  0.00     0.067 A 
ATOM      6  O   UNL d   1      52.413  31.697  52.474  0.00  0.00    -0.267 OA
ATOM      7  C   UNL d   1      54.534  32.888  54.065  0.00  0.00     0.002 C 
ENDROOT
BRANCH   2   8
ATOM      8  C   UNL d   1      51.890  33.349  52.942  0.00  0.00     0.067 A 
ATOM      9  C   UNL d   1      51.841  33.796  52.247  0.00  0.00     0.018 A 
ATOM     10  C   UNL d   1      51.135  34.150  52.032  0.00  0.00     0.002 A 
ATOM     11  C   UNL d   1      50.464  34.061  52.512  0.00  0.00     0.000 A 
ATOM     12  C   UNL d   1      50.518  33.610  53.210  0.00  0.00     0.002 A 
ATOM     13  C   UNL d   1      49.749  34.415  52.301  0.00  0.00     0.000 C 
ATOM     14  C   UNL d   1      51.229  33.258  53.420  0.00  0.00     0.018 A 
ENDBRANCH   2   8
BRANCH   5  15
ATOM     15  C   UNL d   1      53.204  34.088  53.929  0.00  0.00     0.016 A 
ATOM     16  C   UNL d   1      53.442  34.741  53.478  0.00  0.00     0.002 A 
ATOM     17  C   UNL d   1      53.436  35.496  53.809  0.00  0.00     0.011 A 
ATOM     18  C   UNL d   1      53.191  35.603  54.596  0.00  0.00     0.058 A 
ATOM     19  C   UNL d   1      52.954  34.954  55.047  0.00  0.00     0.011 A 
ATOM     20 CL   UNL d   1      53.187  36.367  54.927  0.00  0.00    -0.082 Cl
ATOM     21  C   UNL d   1      52.960  34.195  54.716  0.00  0.00     0.002 A 
ENDBRANCH   5  15
TORSDOF 2
ENDMDL
MODEL 5
REMARK VINA RESULT:      -9.8      1.887      3.607
REMARK  2 active torsions:
REMARK  status: ('A' for Active; 'I' for Inactive)
REMARK    1  A    between atoms: C_6  and  N_2 
REMARK    2  A    between atoms: C_8  and  C_5 
ROOT
ATOM      1  C   UNL d   1      53.676  30.979  53.601  0.00  0.00     0.265 A 
ATOM      2  N   UNL d   1      53.500  31.783  53.660  0.00  0.00    -0.275 N 
ATOM      3  C   UNL d   1      52.522  31.198  52.970  0.00  0.00     0.021 A 
ATOM      4  C   UNL d   1      53.070  30.616  53.174  0.00  0.00     0.063 A 
ATOM      5  C   UNL d   1      52.790  31.919  53.273  0.00  0.00     0.067 A 
ATOM      6  O   UNL d   1      54.344  30.598  53.915  0.00  0.00    -0.267 OA
ATOM      7  C   UNL d   1      51.828  31.078  52.541  0.00  0.00     0.002 C 
ENDROOT
BRANCH   2   8
ATOM      8  C   UNL d   1      53.968  32.348  54.048  0.00  0.00     0.067 A 
ATOM      9  C   UNL d   1      53.843  32.495  54.853  0.00  0.00     0.018 A 
ATOM     10  C   UNL d   1      54.297  33.050  55.248  0.00  0.00     0.002 A 
ATOM     11  C   UNL d   1      54.887  33.469  54.840  0.00  0.00     0.000 A 
ATOM     12  C   UNL d   1      55.008  33.317  54.030  0.00  0.00     0.002 A 
ATOM     13  C   UNL d   1      55.349  34.029  55.232  0.00  0.00     0.000 C 
ATOM     14  C   UNL d   1      54.549  32.759  53.641  0.00  0.00     0.018 A 
ENDBRANCH   2   8
BRANCH   5  15
ATOM     15  C   UNL d   1      52.408  32.646  53.196  0.00  0.00     0.016 A 
ATOM     16  C   UNL d   1      51.838  32.876  53.751  0.00  0.00     0.002 A 
ATOM     17  C   UNL d   1      51.456  33.603  53.674  0.00  0.00     0.011 A 
ATOM     18  C   UNL d   1      51.644  34.107  53.040  0.00  0.00     0.058 A 
ATOM     19  C   UNL d   1      52.212  33.880  52.487  0.00  0.00     0.011 A 
ATOM     20 CL   UNL d   1      51.256  34.840  52.967  0.00  0.00    -0.082 Cl
ATOM     21  C   UNL d   1      52.596  33.150  52.562  0.00  0.00     0.002 A 
ENDBRANCH   5  15
TORSDOF 2
ENDMDL
MODEL 6
REMARK VINA RESULT:      -9.4      1.565      2.933
REMARK  2 active torsions:
REMARK  status: ('A' for Active; 'I' for Inactive)
REMARK    1  A    between atoms: C_6  and  N_2 
REMARK    2  A    between atoms: C_8  and  C_5 
ROOT
ATOM      1  C   UNL d   1      51.892  33.509  52.534  0.00  0.00     0.265 A 
ATOM      2  N   UNL d   1      52.457  33.167  53.029  0.00  0.00    -0.275 N 
ATOM      3  C   UNL d   1      52.494  34.487  53.210  0.00  0.00     0.021 A 
ATOM      4  C   UNL d   1      51.915  34.326  52.645  0.00  0.00     0.063 A 
ATOM      5  C   UNL d   1      52.828  33.768  53.446  0.00  0.00     0.067 A 
ATOM      6  O   UNL d   1      51.388  33.104  52.012  0.00  0.00    -0.267 OA
ATOM      7  C   UNL d   1      52.702  35.235  53.489  0.00  0.00     0.002 C 
ENDROOT
BRANCH   2   8
ATOM      8  C   UNL d   1      52.614  32.355  53.087  0.00  0.00     0.067 A 
ATOM      9  C   UNL d   1      52.126  31.880  53.560  0.00  0.00     0.018 A 
ATOM     10  C   UNL d   1      52.270  31.077  53.627  0.00  0.00     0.002 A 
ATOM     11  C   UNL d   1      52.907  30.735  53.219  0.00  0.00     0.000 A 
ATOM     12  C   UNL d   1      53.394  31.216  52.746  0.00  0.00     0.002 A 
ATOM     13  C   UNL d   1      53.057  29.926  53.282  0.00  0.00     0.000 C 
ATOM     14  C   UNL d   1      53.245  32.021  52.683  0.00  0.00     0.018 A 
ENDBRANCH   2   8
BRANCH   5  15
ATOM     15  C   UNL d   1      53.429  33.675  54.003  0.00  0.00     0.016 A 
ATOM     16  C   UNL d   1      53.242  33.608  54.808  0.00  0.00     0.002 A 
ATOM     17  C   UNL d   1      53.843  33.515  55.365  0.00  0.00     0.011 A 
ATOM     18  C   UNL d   1      54.637  33.488  55.120  0.00  0.00     0.058 A 
ATOM     19  C   UNL d   1      54.825  33.554  54.320  0.00  0.00     0.011 A 
ATOM     20 CL   UNL d   1      55.241  33.394  55.686  0.00  0.00    -0.082 Cl
ATOM     21  C   UNL d   1      54.223  33.648  53.759  0.00  0.00     0.002 A 
ENDBRANCH   5  15
TORSDOF 2
ENDMDL
MODEL 7
REMARK VINA RESULT:      -9.0      0.936      2.761
REMARK  2 active torsions:
REMARK  status: ('A' for Active; 'I' for Inactive)
REMARK    1  A    between atoms: C_6  and  N_2 
REMARK    2  A    between atoms: C_8  and  C_5 
ROOT
ATOM      1  C   UNL d   1      52.256  34.718  53.414  0.00  0.00     0.265 A 
ATOM      2  N   UNL d   1      52.621  33.990  53.547  0.00  0.00    -0.275 N 
ATOM      3  C   UNL d   1      51.587  33.790  52.730  0.00  0.00     0.021 A 
ATOM      4  C   UNL d   1      51.616  34.595  52.908  0.00  0.00     0.063 A 
ATOM      5  C   UNL d   1      52.210  33.417  53.127  0.00  0.00     0.067 A 
ATOM      6  O   UNL d   1      52.490  35.449  53.732  0.00  0.00    -0.267 OA
ATOM      7  C   UNL d   1      51.032  33.423  52.241  0.00  0.00     0.002 C 
ENDROOT
BRANCH   2   8
ATOM      8  C   UNL d   1      53.288  33.868  54.025  0.00  0.00     0.067 A 
ATOM      9  C   UNL d   1      53.187  33.745  54.838  0.00  0.00     0.018 A 
ATOM     10  C   UNL d   1      53.836  33.623  55.321  0.00  0.00     0.002 A 
ATOM     11  C   UNL d   1      54.600  33.623  54.997  0.00  0.00     0.000 A 
ATOM     12  C   UNL d   1      54.696  33.748  54.179  0.00  0.00     0.002 A 
ATOM     13  C   UNL d   1      55.259  33.502  55.478  0.00  0.00     0.000 C 
ATOM     14  C   UNL d   1      54.041  33.869  53.700  0.00  0.00     0.018 A 
ENDBRANCH   2   8
BRANCH   5  15
ATOM     15  C   UNL d   1      52.385  32.611  53.102  0.00  0.00     0.016 A 
ATOM     16  C   UNL d   1      52.965  32.329  52.583  0.00  0.00     0.002 A 
ATOM     17  C   UNL d   1      53.140  31.523  52.559  0.00  0.00     0.011 A 
ATOM     18  C   UNL d   1      52.733  30.994  53.054  0.00  0.00     0.058 A 
ATOM     19  C   UNL d   1      52.155  31.273  53.571  0.00  0.00     0.011 A 
ATOM     20 CL   UNL d   1      52.913  30.181  53.026  0.00  0.00    -0.082 Cl
ATOM     21  C   UNL d   1      51.978  32.082  53.597  0.00  0.00     0.002 A 
ENDBRANCH   5  15
TORSDOF 2
ENDMDL
