MODEL 1
REMARK VINA RESULT:       7.0      0.000      0.000
REMARK  6 active torsions:
REMARK  status: ('A' for Active; 'I' for Inactive)
REMARK    1  A    between atoms: C_9  and  N_2 
REMARK       I    between atoms: N_5  and  C_6 
REMARK    2  A    between atoms: C_6  and  C_10 
REMARK    3  A    between atoms: C_11  and  N_7 
REMARK    4  A    between atoms: C_10  and  C_9 
REMARK    5  A    between atoms: C_18  and  C_11 
REMARK    6  A    between atoms: C_19  and  C_11 
ROOT
ATOM      1  N   UNL d   1     -41.732-122.995 -51.207  0.00  0.00    -0.269 N 
ATOM      2  C   UNL d   1     -41.447-122.903 -51.972  0.00  0.00     0.266 C 
ATOM      3  N   UNL d   1     -42.310-123.177 -49.661  0.00  0.00    -0.301 N 
ATOM      4  C   UNL d   1     -42.057-122.343 -50.806  0.00  0.00     0.102 A 
ATOM      5  C   UNL d   1     -41.699-123.726 -50.837  0.00  0.00     0.102 A 
ATOM      6  C   UNL d   1     -41.988-123.817 -50.065  0.00  0.00     0.100 A 
ATOM      7  C   UNL d   1     -42.343-122.431 -50.041  0.00  0.00     0.100 A 
ATOM      8  O   UNL d   1     -41.125-123.551 -52.369  0.00  0.00    -0.267 OA
ENDROOT
BRANCH   2   9
ATOM      9  C   UNL d   1     -41.480-122.169 -52.345  0.00  0.00     0.080 C 
BRANCH   9  10
ATOM     10  C   UNL d   1     -41.275-122.094 -53.137  0.00  0.00     0.090 C 
BRANCH  10  11
ATOM     11  N   UNL d   1     -41.804-121.762 -53.674  0.00  0.00    -0.251 N 
ATOM     12  C   UNL d   1     -42.138-121.012 -53.625  0.00  0.00     0.378 A 
ATOM     13  O   UNL d   1     -42.613-120.976 -54.296  0.00  0.00    -0.258 OA
ATOM     14  O   UNL d   1     -42.002-120.460 -53.027  0.00  0.00    -0.237 OA
ATOM     15  C   UNL d   1     -42.602-121.599 -54.729  0.00  0.00     0.121 A 
ATOM     16  C   UNL d   1     -42.978-121.815 -55.436  0.00  0.00     0.026 A 
ATOM     17  C   UNL d   1     -42.089-122.128 -54.357  0.00  0.00     0.092 A 
ATOM     18  C   UNL d   1     -42.839-122.562 -55.770  0.00  0.00     0.002 A 
ATOM     19  C   UNL d   1     -42.323-123.082 -55.389  0.00  0.00     0.002 A 
ATOM     20  C   UNL d   1     -41.951-122.864 -54.684  0.00  0.00     0.020 A 
ENDBRANCH  10  11
ENDBRANCH   9  10
ENDBRANCH   2   9
BRANCH   3  21
ATOM     21  C   UNL d   1     -42.602-123.255 -48.887  0.00  0.00     0.064 C 
BRANCH  21  22
ATOM     22  C   UNL d   1     -42.111-123.149 -48.236  0.00  0.00     0.016 A 
ATOM     23  C   UNL d   1     -42.117-122.431 -47.831  0.00  0.00     0.001 A 
ATOM     24  C   UNL d   1     -41.625-122.326 -47.180  0.00  0.00     0.000 A 
ATOM     25  C   UNL d   1     -41.128-122.938 -46.934  0.00  0.00     0.000 A 
ATOM     26  C   UNL d   1     -41.124-123.653 -47.341  0.00  0.00     0.000 A 
ATOM     27  C   UNL d   1     -41.616-123.758 -47.992  0.00  0.00     0.001 A 
ENDBRANCH  21  22
BRANCH  21  28
ATOM     28  C   UNL d   1     -43.404-123.443 -48.780  0.00  0.00     0.016 A 
ATOM     29  C   UNL d   1     -43.688-123.560 -48.007  0.00  0.00     0.001 A 
ATOM     30  C   UNL d   1     -44.490-123.748 -47.900  0.00  0.00     0.000 A 
ATOM     31  C   UNL d   1     -44.990-123.816 -48.549  0.00  0.00     0.000 A 
ATOM     32  C   UNL d   1     -44.695-123.698 -49.311  0.00  0.00     0.000 A 
ATOM     33  C   UNL d   1     -43.900-123.511 -49.428  0.00  0.00     0.001 A 
ENDBRANCH  21  28
ENDBRANCH   3  21
TORSDOF 6
ENDMDL
MODEL 2
REMARK VINA RESULT:       8.1      0.374      1.924
REMARK  6 active torsions:
REMARK  status: ('A' for Active; 'I' for Inactive)
REMARK    1  A    between atoms: C_9  and  N_2 
REMARK       I    between atoms: N_5  and  C_6 
REMARK    2  A    between atoms: C_6  and  C_10 
REMARK    3  A    between atoms: C_11  and  N_7 
REMARK    4  A    between atoms: C_10  and  C_9 
REMARK    5  A    between atoms: C_18  and  C_11 
REMARK    6  A    between atoms: C_19  and  C_11 
ROOT
ATOM      1  N   UNL d   1     -41.801-122.989 -51.048  0.00  0.00    -0.269 N 
ATOM      2  C   UNL d   1     -41.515-122.894 -51.812  0.00  0.00     0.266 C 
ATOM      3  N   UNL d   1     -42.381-123.175 -49.504  0.00  0.00    -0.301 N 
ATOM      4  C   UNL d   1     -42.197-122.360 -50.674  0.00  0.00     0.102 A 
ATOM      5  C   UNL d   1     -41.699-123.699 -50.652  0.00  0.00     0.102 A 
ATOM      6  C   UNL d   1     -41.989-123.793 -49.880  0.00  0.00     0.100 A 
ATOM      7  C   UNL d   1     -42.484-122.450 -49.911  0.00  0.00     0.100 A 
ATOM      8  O   UNL d   1     -41.123-123.520 -52.182  0.00  0.00    -0.267 OA
ENDROOT
BRANCH   2   9
ATOM      9  C   UNL d   1     -41.617-122.181 -52.212  0.00  0.00     0.080 C 
BRANCH   9  10
ATOM     10  C   UNL d   1     -41.238-122.047 -52.929  0.00  0.00     0.090 C 
BRANCH  10  11
ATOM     11  N   UNL d   1     -41.663-121.772 -53.579  0.00  0.00    -0.251 N 
ATOM     12  C   UNL d   1     -42.181-121.133 -53.584  0.00  0.00     0.378 A 
ATOM     13  O   UNL d   1     -42.442-121.111 -54.364  0.00  0.00    -0.258 OA
ATOM     14  O   UNL d   1     -42.366-120.654 -52.938  0.00  0.00    -0.237 OA
ATOM     15  C   UNL d   1     -42.149-121.648 -54.814  0.00  0.00     0.121 A 
ATOM     16  C   UNL d   1     -42.243-121.841 -55.615  0.00  0.00     0.026 A 
ATOM     17  C   UNL d   1     -41.641-122.092 -54.339  0.00  0.00     0.092 A 
ATOM     18  C   UNL d   1     -41.826-122.482 -55.940  0.00  0.00     0.002 A 
ATOM     19  C   UNL d   1     -41.321-122.920 -55.455  0.00  0.00     0.002 A 
ATOM     20  C   UNL d   1     -41.230-122.724 -54.657  0.00  0.00     0.020 A 
ENDBRANCH  10  11
ENDBRANCH   9  10
ENDBRANCH   2   9
BRANCH   3  21
ATOM     21  C   UNL d   1     -42.676-123.256 -48.730  0.00  0.00     0.064 C 
BRANCH  21  22
ATOM     22  C   UNL d   1     -43.466-123.442 -48.596  0.00  0.00     0.016 A 
ATOM     23  C   UNL d   1     -43.734-123.558 -47.825  0.00  0.00     0.001 A 
ATOM     24  C   UNL d   1     -44.524-123.744 -47.691  0.00  0.00     0.000 A 
ATOM     25  C   UNL d   1     -45.045-123.815 -48.328  0.00  0.00     0.000 A 
ATOM     26  C   UNL d   1     -44.774-123.698 -49.095  0.00  0.00     0.000 A 
ATOM     27  C   UNL d   1     -43.984-123.512 -49.229  0.00  0.00     0.001 A 
ENDBRANCH  21  22
BRANCH  21  28
ATOM     28  C   UNL d   1     -42.157-123.145 -48.091  0.00  0.00     0.016 A 
ATOM     29  C   UNL d   1     -41.800-123.812 -47.746  0.00  0.00     0.001 A 
ATOM     30  C   UNL d   1     -41.281-123.701 -47.107  0.00  0.00     0.000 A 
ATOM     31  C   UNL d   1     -41.127-122.944 -46.825  0.00  0.00     0.000 A 
ATOM     32  C   UNL d   1     -41.488-122.291 -47.178  0.00  0.00     0.000 A 
ATOM     33  C   UNL d   1     -42.005-122.390 -47.813  0.00  0.00     0.001 A 
ENDBRANCH  21  28
ENDBRANCH   3  21
TORSDOF 6
ENDMDL
