MODEL 1
REMARK VINA RESULT:      16.7      0.000      0.000
REMARK  5 active torsions:
REMARK  status: ('A' for Active; 'I' for Inactive)
REMARK    1  A    between atoms: N_8  and  S_1 
REMARK    2  A    between atoms: C_11  and  S_1 
REMARK    3  A    between atoms: S_2  and  C_10 
REMARK    4  A    between atoms: N_9  and  S_2 
REMARK    5  A    between atoms: N_20  and  C_5 
ROOT
ATOM      1  C   UNL d   1     -41.878-122.189 -53.239  0.00  0.00     0.021 A 
ATOM      2  C   UNL d   1     -41.915-122.532 -51.955  0.00  0.00     0.021 A 
ATOM      3  C   UNL d   1     -42.164-121.956 -52.488  0.00  0.00     0.111 A 
ATOM      4  C   UNL d   1     -41.489-123.100 -52.376  0.00  0.00     0.002 A 
ATOM      5  C   UNL d   1     -41.477-122.870 -53.168  0.00  0.00     0.002 A 
ATOM      6  C   UNL d   1     -41.708-123.256 -50.737  0.00  0.00     0.104 A 
ATOM      7  C   UNL d   1     -41.626-122.160 -54.647  0.00  0.00     0.104 A 
ATOM      8  C   UNL d   1     -42.021-122.614 -51.146  0.00  0.00     0.015 A 
ATOM      9  C   UNL d   1     -41.963-121.818 -53.977  0.00  0.00     0.015 A 
ATOM     10  C   UNL d   1     -41.139-123.212 -53.838  0.00  0.00     0.001 A 
ATOM     11  C   UNL d   1     -41.167-123.752 -51.979  0.00  0.00     0.001 A 
ATOM     12  C   UNL d   1     -41.230-122.835 -54.565  0.00  0.00     0.013 A 
ATOM     13  C   UNL d   1     -41.280-123.817 -51.186  0.00  0.00     0.013 A 
ENDROOT
BRANCH   6  14
ATOM     14  S   UNL d   1     -41.813-123.345 -49.905  0.00  0.00     0.271 S 
ATOM     15  O   UNL d   1     -41.126-122.867 -49.767  0.00  0.00    -0.200 OA
ATOM     16  O   UNL d   1     -42.491-123.817 -50.081  0.00  0.00    -0.200 OA
BRANCH  14  17
ATOM     17  N   UNL d   1     -41.934-123.445 -49.101  0.00  0.00    -0.229 N 
ATOM     18  C   UNL d   1     -41.309-123.357 -48.584  0.00  0.00     0.092 A 
ATOM     19  C   UNL d   1     -41.444-123.459 -47.785  0.00  0.00     0.020 A 
ATOM     20  C   UNL d   1     -42.186-123.646 -47.494  0.00  0.00     0.003 A 
ATOM     21  C   UNL d   1     -42.827-123.736 -48.021  0.00  0.00     0.020 A 
ATOM     22  C   UNL d   1     -42.311-123.747 -46.676  0.00  0.00     0.000 C 
ATOM     23  C   UNL d   1     -42.696-123.634 -48.834  0.00  0.00     0.092 A 
ENDBRANCH  14  17
ENDBRANCH   6  14
BRANCH   3  24
ATOM     24  N   UNL d   1     -42.608-121.279 -52.328  0.00  0.00    -0.096 NA
ATOM     25  O   UNL d   1     -43.391-121.385 -52.052  0.00  0.00    -0.061 OA
ENDBRANCH   3  24
BRANCH   7  26
ATOM     26  S   UNL d   1     -41.693-121.812 -55.401  0.00  0.00     0.271 S 
ATOM     27  O   UNL d   1     -42.025-121.122 -55.051  0.00  0.00    -0.200 OA
ATOM     28  O   UNL d   1     -41.364-122.502 -55.726  0.00  0.00    -0.200 OA
BRANCH  26  29
ATOM     29  N   UNL d   1     -41.765-121.452 -56.157  0.00  0.00    -0.229 N 
ATOM     30  C   UNL d   1     -41.164-120.946 -56.400  0.00  0.00     0.092 A 
ATOM     31  C   UNL d   1     -41.209-120.585 -57.123  0.00  0.00     0.020 A 
ATOM     32  C   UNL d   1     -41.848-120.712 -57.629  0.00  0.00     0.003 A 
ATOM     33  C   UNL d   1     -42.463-121.227 -57.382  0.00  0.00     0.020 A 
ATOM     34  C   UNL d   1     -41.879-120.331 -58.374  0.00  0.00     0.000 C 
ATOM     35  C   UNL d   1     -42.415-121.595 -56.644  0.00  0.00     0.092 A 
ENDBRANCH  26  29
ENDBRANCH   7  26
TORSDOF 5
ENDMDL
