MODEL 1
REMARK VINA RESULT:      42.6      0.000      0.000
REMARK  6 active torsions:
REMARK  status: ('A' for Active; 'I' for Inactive)
REMARK       I    between atoms: N_3  and  C_1 
REMARK    1  A    between atoms: O_10  and  C_1 
REMARK    2  A    between atoms: N_2  and  C_4 
REMARK    3  A    between atoms: C_9  and  N_3 
REMARK    4  A    between atoms: C_17  and  O_10 
REMARK    5  A    between atoms: C_18  and  C_17 
REMARK    6  A    between atoms: C_19  and  C_18 
ROOT
ATOM      1  C   UNL d   1      60.565  49.591  51.875  0.00  0.00     0.064 A 
ATOM      2  C   UNL d   1      59.775  49.681  52.114  0.00  0.00     0.020 A 
ATOM      3  C   UNL d   1      60.748  49.499  51.076  0.00  0.00     0.020 A 
ATOM      4  C   UNL d   1      59.349  49.586  50.754  0.00  0.00     0.137 A 
ATOM      5  C   UNL d   1      60.143  49.496  50.516  0.00  0.00     0.034 A 
ATOM      6  C   UNL d   1      59.170  49.678  51.555  0.00  0.00     0.034 A 
ENDROOT
BRANCH   4   7
ATOM      7  N   UNL d   1      58.744  49.583  50.202  0.00  0.00    -0.344 NA
ATOM      8  C   UNL d   1      58.139  49.580  49.643  0.00  0.00     0.445 C 
ATOM      9  O   UNL d   1      58.313  49.451  48.847  0.00  0.00    -0.220 OA
BRANCH   8  10
ATOM     10  O   UNL d   1      57.357  49.706  49.878  0.00  0.00    -0.246 OA
BRANCH  10  11
ATOM     11  C   UNL d   1      56.921  49.090  50.208  0.00  0.00     0.129 C 
BRANCH  11  12
ATOM     12  C   UNL d   1      56.183  49.241  50.557  0.00  0.00     0.027 C 
BRANCH  12  13
ATOM     13  C   UNL d   1      56.140  49.503  51.336  0.00  0.00     0.002 C 
ATOM     14  C   UNL d   1      56.159  48.959  51.954  0.00  0.00     0.000 C 
ENDBRANCH  12  13
ENDBRANCH  11  12
ENDBRANCH  10  11
ENDBRANCH   8  10
ENDBRANCH   4   7
BRANCH   1  15
ATOM     15  N   UNL d   1      61.167  49.595  52.442  0.00  0.00    -0.300 N 
ATOM     16  C   UNL d   1      60.981  49.513  53.242  0.00  0.00     0.107 A 
ATOM     17  C   UNL d   1      61.581  49.518  53.801  0.00  0.00     0.142 A 
ATOM     18  O   UNL d   1      62.366  49.604  53.564  0.00  0.00    -0.300 OA
ATOM     19  C   UNL d   1      62.552  49.686  52.764  0.00  0.00     0.142 A 
ATOM     20  C   UNL d   1      61.949  49.682  52.201  0.00  0.00     0.107 A 
ENDBRANCH   1  15
TORSDOF 6
ENDMDL
MODEL 2
REMARK VINA RESULT:      45.5      1.149      4.505
REMARK  6 active torsions:
REMARK  status: ('A' for Active; 'I' for Inactive)
REMARK       I    between atoms: N_3  and  C_1 
REMARK    1  A    between atoms: O_10  and  C_1 
REMARK    2  A    between atoms: N_2  and  C_4 
REMARK    3  A    between atoms: C_9  and  N_3 
REMARK    4  A    between atoms: C_17  and  O_10 
REMARK    5  A    between atoms: C_18  and  C_17 
REMARK    6  A    between atoms: C_19  and  C_18 
ROOT
ATOM      1  C   UNL d   1      58.408  49.441  50.207  0.00  0.00     0.064 A 
ATOM      2  C   UNL d   1      58.625  49.260  50.987  0.00  0.00     0.020 A 
ATOM      3  C   UNL d   1      58.983  49.662  49.658  0.00  0.00     0.020 A 
ATOM      4  C   UNL d   1      59.993  49.521  50.672  0.00  0.00     0.137 A 
ATOM      5  C   UNL d   1      59.774  49.702  49.888  0.00  0.00     0.034 A 
ATOM      6  C   UNL d   1      59.415  49.301  51.218  0.00  0.00     0.034 A 
ENDROOT
BRANCH   4   7
ATOM      7  N   UNL d   1      60.777  49.559  50.906  0.00  0.00    -0.344 NA
ATOM      8  C   UNL d   1      61.567  49.598  51.136  0.00  0.00     0.445 C 
ATOM      9  O   UNL d   1      62.162  49.632  50.566  0.00  0.00    -0.220 OA
BRANCH   8  10
ATOM     10  O   UNL d   1      61.765  49.604  51.938  0.00  0.00    -0.246 OA
BRANCH  10  11
ATOM     11  C   UNL d   1      61.174  49.674  52.508  0.00  0.00     0.129 C 
BRANCH  11  12
ATOM     12  C   UNL d   1      61.364  49.626  53.315  0.00  0.00     0.027 C 
BRANCH  12  13
ATOM     13  C   UNL d   1      60.783  49.443  53.867  0.00  0.00     0.002 C 
ATOM     14  C   UNL d   1      59.994  49.400  53.634  0.00  0.00     0.000 C 
ENDBRANCH  12  13
ENDBRANCH  11  12
ENDBRANCH  10  11
ENDBRANCH   8  10
ENDBRANCH   4   7
BRANCH   1  15
ATOM     15  N   UNL d   1      57.613  49.399  49.982  0.00  0.00    -0.300 N 
ATOM     16  C   UNL d   1      57.397  49.546  49.200  0.00  0.00     0.107 A 
ATOM     17  C   UNL d   1      56.608  49.503  48.981  0.00  0.00     0.142 A 
ATOM     18  O   UNL d   1      56.034  49.313  49.542  0.00  0.00    -0.300 OA
ATOM     19  C   UNL d   1      56.250  49.166  50.324  0.00  0.00     0.142 A 
ATOM     20  C   UNL d   1      57.044  49.209  50.545  0.00  0.00     0.107 A 
ENDBRANCH   1  15
TORSDOF 6
ENDMDL
