MODEL 1
REMARK VINA RESULT:      21.7      0.000      0.000
REMARK  4 active torsions:
REMARK  status: ('A' for Active; 'I' for Inactive)
REMARK    1  A    between atoms: C_6  and  N_1 
REMARK    2  A    between atoms: N_7  and  C_5 
REMARK    3  A    between atoms: C_8  and  C_6 
REMARK    4  A    between atoms: C_12  and  N_7 
ROOT
ATOM      1  N   UNL d   1      45.345 -14.367  44.442  0.00  0.00    -0.227 N 
ATOM      2  C   UNL d   1      46.068 -14.564  44.784  0.00  0.00     0.300 A 
ATOM      3  S   UNL d   1      46.242 -15.348  44.955  0.00  0.00    -0.003 SA
ATOM      4  C   UNL d   1      44.969 -15.741  44.442  0.00  0.00     0.292 A 
ATOM      5  C   UNL d   1      45.692 -15.939  44.784  0.00  0.00     0.172 A 
ATOM      6  O   UNL d   1      46.617 -13.974  44.955  0.00  0.00    -0.259 OA
ATOM      7  O   UNL d   1      44.242 -16.203  44.177  0.00  0.00    -0.264 OA
ENDROOT
BRANCH   5   8
ATOM      8  N   UNL d   1      45.865 -16.727  44.955  0.00  0.00    -0.234 NA
BRANCH   8   9
ATOM      9  C   UNL d   1      46.060 -17.248  44.345  0.00  0.00     0.082 A 
ATOM     10  C   UNL d   1      46.164 -18.057  44.512  0.00  0.00     0.019 A 
ATOM     11  C   UNL d   1      46.358 -18.575  43.906  0.00  0.00     0.002 A 
ATOM     12  C   UNL d   1      46.450 -18.295  43.133  0.00  0.00     0.000 A 
ATOM     13  C   UNL d   1      46.345 -17.483  42.970  0.00  0.00     0.002 A 
ATOM     14  C   UNL d   1      46.644 -18.808  42.518  0.00  0.00     0.000 C 
ATOM     15  C   UNL d   1      46.150 -16.969  43.586  0.00  0.00     0.019 A 
ENDBRANCH   8   9
ENDBRANCH   5   8
BRANCH   1  16
ATOM     16  C   UNL d   1      44.956 -13.592  44.177  0.00  0.00     0.157 C 
BRANCH  16  17
ATOM     17  C   UNL d   1      45.437 -12.979  43.690  0.00  0.00     0.230 C 
ATOM     18  O   UNL d   1      45.811 -12.272  44.120  0.00  0.00    -0.643 OA
ATOM     19  O   UNL d   1      45.534 -13.084  42.804  0.00  0.00    -0.643 OA
ENDBRANCH  16  17
ENDBRANCH   1  16
TORSDOF 4
ENDMDL
MODEL 2
REMARK VINA RESULT:      23.3      1.428      4.169
REMARK  4 active torsions:
REMARK  status: ('A' for Active; 'I' for Inactive)
REMARK    1  A    between atoms: C_6  and  N_1 
REMARK    2  A    between atoms: N_7  and  C_5 
REMARK    3  A    between atoms: C_8  and  C_6 
REMARK    4  A    between atoms: C_12  and  N_7 
ROOT
ATOM      1  N   UNL d   1      46.178 -17.110  43.899  0.00  0.00    -0.227 N 
ATOM      2  C   UNL d   1      45.745 -17.084  44.599  0.00  0.00     0.300 A 
ATOM      3  S   UNL d   1      45.574 -16.363  44.951  0.00  0.00    -0.003 SA
ATOM      4  C   UNL d   1      46.271 -15.688  43.903  0.00  0.00     0.292 A 
ATOM      5  C   UNL d   1      45.837 -15.662  44.603  0.00  0.00     0.172 A 
ATOM      6  O   UNL d   1      45.482 -17.784  44.947  0.00  0.00    -0.259 OA
ATOM      7  O   UNL d   1      46.647 -15.073  43.363  0.00  0.00    -0.264 OA
ENDROOT
BRANCH   5   8
ATOM      8  N   UNL d   1      45.666 -14.936  44.955  0.00  0.00    -0.234 NA
BRANCH   8   9
ATOM      9  C   UNL d   1      45.387 -14.311  44.495  0.00  0.00     0.082 A 
ATOM     10  C   UNL d   1      45.921 -13.740  44.206  0.00  0.00     0.019 A 
ATOM     11  C   UNL d   1      45.642 -13.119  43.748  0.00  0.00     0.002 A 
ATOM     12  C   UNL d   1      44.836 -13.058  43.574  0.00  0.00     0.000 A 
ATOM     13  C   UNL d   1      44.304 -13.632  43.866  0.00  0.00     0.002 A 
ATOM     14  C   UNL d   1      44.548 -12.437  43.116  0.00  0.00     0.000 C 
ATOM     15  C   UNL d   1      44.592 -14.254  44.326  0.00  0.00     0.019 A 
ENDBRANCH   8   9
ENDBRANCH   5   8
BRANCH   1  16
ATOM     16  C   UNL d   1      46.472 -17.774  43.356  0.00  0.00     0.157 C 
BRANCH  16  17
ATOM     17  C   UNL d   1      45.871 -18.258  42.856  0.00  0.00     0.230 C 
ATOM     18  O   UNL d   1      45.505 -17.876  42.118  0.00  0.00    -0.643 OA
ATOM     19  O   UNL d   1      45.654 -19.094  43.099  0.00  0.00    -0.643 OA
ENDBRANCH  16  17
ENDBRANCH   1  16
TORSDOF 4
ENDMDL
