MODEL 1
REMARK VINA RESULT:       9.4      0.000      0.000
REMARK  5 active torsions:
REMARK  status: ('A' for Active; 'I' for Inactive)
REMARK    1  A    between atoms: N_8  and  C_2 
REMARK    2  A    between atoms: C_6  and  C_5 
REMARK    3  A    between atoms: C_7  and  C_6 
REMARK       I    between atoms: N_9  and  C_7 
REMARK    4  A    between atoms: C_18  and  N_9 
REMARK    5  A    between atoms: C_11  and  C_12 
ROOT
ATOM      1  C   UNL d   1      45.916 -16.788  44.377  0.00  0.00     0.280 C 
ATOM      2  N   UNL d   1      45.729 -16.213  44.948  0.00  0.00    -0.208 NA
ATOM      3  O   UNL d   1      46.015 -16.571  43.591  0.00  0.00    -0.265 OA
ENDROOT
BRANCH   1   4
ATOM      4  C   UNL d   1      45.998 -17.570  44.607  0.00  0.00     0.074 C 
BRANCH   4   5
ATOM      5  C   UNL d   1      46.191 -18.148  44.051  0.00  0.00     0.093 A 
ATOM      6  C   UNL d   1      46.306 -18.948  44.216  0.00  0.00     0.272 A 
ATOM      7  N   UNL d   1      46.489 -19.331  43.510  0.00  0.00    -0.251 N 
ATOM      8  O   UNL d   1      46.251 -19.314  44.954  0.00  0.00    -0.266 OA
ATOM      9  C   UNL d   1      46.487 -18.764  42.901  0.00  0.00     0.182 A 
ATOM     10  C   UNL d   1      46.647 -20.134  43.410  0.00  0.00     0.104 C 
ATOM     11  S   UNL d   1      46.303 -18.039  43.248  0.00  0.00    -0.045 SA
BRANCH   9  12
ATOM     12  N   UNL d   1      46.642 -18.907  42.103  0.00  0.00    -0.219 NA
ATOM     13  C   UNL d   1      46.387 -18.377  41.527  0.00  0.00     0.122 C 
ENDBRANCH   9  12
ENDBRANCH   4   5
ENDBRANCH   1   4
BRANCH   2  14
ATOM     14  C   UNL d   1      45.645 -15.426  44.718  0.00  0.00     0.085 A 
ATOM     15  C   UNL d   1      44.887 -15.102  44.588  0.00  0.00     0.019 A 
ATOM     16  C   UNL d   1      44.809 -14.313  44.358  0.00  0.00     0.005 A 
ATOM     17  C   UNL d   1      45.483 -13.840  44.256  0.00  0.00     0.039 A 
ATOM     18  C   UNL d   1      46.233 -14.160  44.385  0.00  0.00     0.005 A 
ATOM     19  C   UNL d   1      46.313 -14.956  44.617  0.00  0.00     0.019 A 
BRANCH  17  20
ATOM     20  C   UNL d   1      45.403 -13.055  44.027  0.00  0.00     0.196 C 
ATOM     21  O   UNL d   1      45.860 -12.470  44.387  0.00  0.00    -0.287 OA
ATOM     22  C   UNL d   1      44.864 -12.853  43.435  0.00  0.00     0.045 C 
ENDBRANCH  17  20
ENDBRANCH   2  14
TORSDOF 5
ENDMDL
