MODEL 1
REMARK VINA RESULT:      -9.2      0.000      0.000
REMARK  4 active torsions:
REMARK  status: ('A' for Active; 'I' for Inactive)
REMARK    1  A    between atoms: N_7  and  C_4 
REMARK    2  A    between atoms: N_9  and  N_7 
REMARK       I    between atoms: C_8  and  N_9 
REMARK    3  A    between atoms: C_11  and  C_8 
REMARK    4  A    between atoms: C_13  and  C_14 
ROOT
ATOM      1  C   UNL d   1      50.957  34.238  52.307  0.00  0.00     0.297 C 
ATOM      2  N   UNL d   1      50.234  34.528  52.575  0.00  0.00    -0.104 NA
ATOM      3  O   UNL d   1      51.066  34.077  51.505  0.00  0.00    -0.264 OA
ENDROOT
BRANCH   1   4
ATOM      4  C   UNL d   1      51.571  34.109  52.840  0.00  0.00     0.059 A 
ATOM      5  C   UNL d   1      51.596  33.412  53.280  0.00  0.00     0.004 A 
ATOM      6  C   UNL d   1      52.211  33.283  53.814  0.00  0.00    -0.004 A 
ATOM      7  C   UNL d   1      52.799  33.852  53.906  0.00  0.00    -0.023 A 
ATOM      8  C   UNL d   1      52.781  34.558  53.465  0.00  0.00    -0.004 A 
ATOM      9  C   UNL d   1      52.166  34.680  52.936  0.00  0.00     0.004 A 
BRANCH   7  10
ATOM     10  C   UNL d   1      53.414  33.713  54.446  0.00  0.00     0.019 C 
ATOM     11  C   UNL d   1      53.749  33.002  54.231  0.00  0.00     0.004 C 
ATOM     12  C   UNL d   1      53.386  34.381  54.953  0.00  0.00     0.004 C 
ATOM     13  C   UNL d   1      54.022  33.570  54.976  0.00  0.00     0.004 C 
ENDBRANCH   7  10
ENDBRANCH   1   4
BRANCH   2  14
ATOM     14  N   UNL d   1      49.621  34.656  52.043  0.00  0.00    -0.127 NA
BRANCH  14  15
ATOM     15  C   UNL d   1      48.958  35.094  52.272  0.00  0.00     0.178 A 
ATOM     16  N   UNL d   1      48.319  35.177  51.763  0.00  0.00    -0.240 N 
ATOM     17  C   UNL d   1      47.664  35.610  51.990  0.00  0.00     0.343 A 
ATOM     18  C   UNL d   1      48.340  34.822  51.018  0.00  0.00     0.105 C 
ATOM     19  N   UNL d   1      47.644  35.964  52.735  0.00  0.00    -0.224 N 
ATOM     20  O   UNL d   1      47.023  35.693  51.477  0.00  0.00    -0.245 OA
ATOM     21  C   UNL d   1      48.277  35.890  53.259  0.00  0.00     0.271 A 
ATOM     22  C   UNL d   1      46.981  36.402  52.966  0.00  0.00     0.107 C 
ATOM     23  C   UNL d   1      48.937  35.448  53.017  0.00  0.00     0.101 A 
ATOM     24  O   UNL d   1      48.257  36.241  53.996  0.00  0.00    -0.266 OA
ENDBRANCH  14  15
ENDBRANCH   2  14
TORSDOF 4
ENDMDL
MODEL 2
REMARK VINA RESULT:      -8.3      2.311      5.557
REMARK  4 active torsions:
REMARK  status: ('A' for Active; 'I' for Inactive)
REMARK    1  A    between atoms: N_7  and  C_4 
REMARK    2  A    between atoms: N_9  and  N_7 
REMARK       I    between atoms: C_8  and  N_9 
REMARK    3  A    between atoms: C_11  and  C_8 
REMARK    4  A    between atoms: C_13  and  C_14 
ROOT
ATOM      1  C   UNL d   1      51.696  34.164  52.703  0.00  0.00     0.297 C 
ATOM      2  N   UNL d   1      51.921  33.387  52.858  0.00  0.00    -0.104 NA
ATOM      3  O   UNL d   1      52.218  34.784  52.858  0.00  0.00    -0.264 OA
ENDROOT
BRANCH   1   4
ATOM      4  C   UNL d   1      50.950  34.322  52.394  0.00  0.00     0.059 A 
ATOM      5  C   UNL d   1      50.823  34.281  51.580  0.00  0.00     0.004 A 
ATOM      6  C   UNL d   1      50.076  34.438  51.270  0.00  0.00    -0.004 A 
ATOM      7  C   UNL d   1      49.457  34.636  51.775  0.00  0.00    -0.023 A 
ATOM      8  C   UNL d   1      49.577  34.680  52.598  0.00  0.00    -0.004 A 
ATOM      9  C   UNL d   1      50.322  34.522  52.899  0.00  0.00     0.004 A 
BRANCH   7  10
ATOM     10  C   UNL d   1      48.708  34.793  51.453  0.00  0.00     0.019 C 
ATOM     11  C   UNL d   1      48.697  34.438  50.720  0.00  0.00     0.004 C 
ATOM     12  C   UNL d   1      48.329  35.246  52.049  0.00  0.00     0.004 C 
ATOM     13  C   UNL d   1      47.971  34.945  51.130  0.00  0.00     0.004 C 
ENDBRANCH   7  10
ENDBRANCH   1   4
BRANCH   2  14
ATOM     14  N   UNL d   1      52.667  33.230  53.167  0.00  0.00    -0.127 NA
BRANCH  14  15
ATOM     15  C   UNL d   1      52.901  32.449  53.306  0.00  0.00     0.178 A 
ATOM     16  N   UNL d   1      53.360  32.265  53.962  0.00  0.00    -0.240 N 
ATOM     17  C   UNL d   1      53.591  31.493  54.099  0.00  0.00     0.343 A 
ATOM     18  C   UNL d   1      53.588  32.862  54.484  0.00  0.00     0.105 C 
ATOM     19  N   UNL d   1      53.363  30.896  53.577  0.00  0.00    -0.224 N 
ATOM     20  O   UNL d   1      54.052  31.309  54.759  0.00  0.00    -0.245 OA
ATOM     21  C   UNL d   1      52.902  31.065  52.913  0.00  0.00     0.271 A 
ATOM     22  C   UNL d   1      53.597  30.115  53.716  0.00  0.00     0.107 C 
ATOM     23  C   UNL d   1      52.673  31.852  52.784  0.00  0.00     0.101 A 
ATOM     24  O   UNL d   1      52.677  30.474  52.397  0.00  0.00    -0.266 OA
ENDBRANCH  14  15
ENDBRANCH   2  14
TORSDOF 4
ENDMDL
MODEL 3
REMARK VINA RESULT:      -8.0      3.036      4.646
REMARK  4 active torsions:
REMARK  status: ('A' for Active; 'I' for Inactive)
REMARK    1  A    between atoms: N_7  and  C_4 
REMARK    2  A    between atoms: N_9  and  N_7 
REMARK       I    between atoms: C_8  and  N_9 
REMARK    3  A    between atoms: C_11  and  C_8 
REMARK    4  A    between atoms: C_13  and  C_14 
ROOT
ATOM      1  C   UNL d   1      52.919  31.594  52.992  0.00  0.00     0.297 C 
ATOM      2  N   UNL d   1      52.888  32.301  53.414  0.00  0.00    -0.104 NA
ATOM      3  O   UNL d   1      52.818  31.597  52.174  0.00  0.00    -0.264 OA
ENDROOT
BRANCH   1   4
ATOM      4  C   UNL d   1      53.051  30.885  53.389  0.00  0.00     0.059 A 
ATOM      5  C   UNL d   1      53.673  30.823  53.927  0.00  0.00     0.004 A 
ATOM      6  C   UNL d   1      53.806  30.113  54.324  0.00  0.00    -0.004 A 
ATOM      7  C   UNL d   1      53.317  29.467  54.182  0.00  0.00    -0.023 A 
ATOM      8  C   UNL d   1      52.686  29.521  53.640  0.00  0.00    -0.004 A 
ATOM      9  C   UNL d   1      52.560  30.230  53.249  0.00  0.00     0.004 A 
BRANCH   7  10
ATOM     10  C   UNL d   1      53.459  28.757  54.587  0.00  0.00     0.019 C 
ATOM     11  C   UNL d   1      53.806  28.254  54.049  0.00  0.00     0.004 C 
ATOM     12  C   UNL d   1      53.170  28.910  55.360  0.00  0.00     0.004 C 
ATOM     13  C   UNL d   1      53.601  28.053  54.981  0.00  0.00     0.004 C 
ENDBRANCH   7  10
ENDBRANCH   1   4
BRANCH   2  14
ATOM     14  N   UNL d   1      52.755  33.009  53.017  0.00  0.00    -0.127 NA
BRANCH  14  15
ATOM     15  C   UNL d   1      52.797  33.727  53.426  0.00  0.00     0.178 A 
ATOM     16  N   UNL d   1      52.231  34.308  53.302  0.00  0.00    -0.240 N 
ATOM     17  C   UNL d   1      52.273  35.017  53.707  0.00  0.00     0.343 A 
ATOM     18  C   UNL d   1      51.617  34.176  52.767  0.00  0.00     0.105 C 
ATOM     19  N   UNL d   1      52.886  35.150  54.243  0.00  0.00    -0.224 N 
ATOM     20  O   UNL d   1      51.702  35.601  53.581  0.00  0.00    -0.245 OA
ATOM     21  C   UNL d   1      53.463  34.575  54.379  0.00  0.00     0.271 A 
ATOM     22  C   UNL d   1      52.929  35.867  54.652  0.00  0.00     0.107 C 
ATOM     23  C   UNL d   1      53.410  33.859  53.962  0.00  0.00     0.101 A 
ATOM     24  O   UNL d   1      54.070  34.707  54.909  0.00  0.00    -0.266 OA
ENDBRANCH  14  15
ENDBRANCH   2  14
TORSDOF 4
ENDMDL
MODEL 4
REMARK VINA RESULT:      -7.7      1.899      5.182
REMARK  4 active torsions:
REMARK  status: ('A' for Active; 'I' for Inactive)
REMARK    1  A    between atoms: N_7  and  C_4 
REMARK    2  A    between atoms: N_9  and  N_7 
REMARK       I    between atoms: C_8  and  N_9 
REMARK    3  A    between atoms: C_11  and  C_8 
REMARK    4  A    between atoms: C_13  and  C_14 
ROOT
ATOM      1  C   UNL d   1      50.957  34.088  52.241  0.00  0.00     0.297 C 
ATOM      2  N   UNL d   1      51.420  33.870  52.886  0.00  0.00    -0.104 NA
ATOM      3  O   UNL d   1      51.207  33.911  51.475  0.00  0.00    -0.264 OA
ENDROOT
BRANCH   1   4
ATOM      4  C   UNL d   1      50.246  34.484  52.361  0.00  0.00     0.059 A 
ATOM      5  C   UNL d   1      50.077  34.816  53.097  0.00  0.00     0.004 A 
ATOM      6  C   UNL d   1      49.365  35.212  53.218  0.00  0.00    -0.004 A 
ATOM      7  C   UNL d   1      48.822  35.275  52.602  0.00  0.00    -0.023 A 
ATOM      8  C   UNL d   1      48.984  34.941  51.856  0.00  0.00    -0.004 A 
ATOM      9  C   UNL d   1      49.695  34.549  51.744  0.00  0.00     0.004 A 
BRANCH   7  10
ATOM     10  C   UNL d   1      48.107  35.675  52.734  0.00  0.00     0.019 C 
ATOM     11  C   UNL d   1      48.140  35.955  53.498  0.00  0.00     0.004 C 
ATOM     12  C   UNL d   1      47.698  35.593  52.006  0.00  0.00     0.004 C 
ATOM     13  C   UNL d   1      47.404  36.072  52.870  0.00  0.00     0.004 C 
ENDBRANCH   7  10
ENDBRANCH   1   4
BRANCH   2  14
ATOM     14  N   UNL d   1      52.131  33.475  52.766  0.00  0.00    -0.127 NA
BRANCH  14  15
ATOM     15  C   UNL d   1      52.663  33.379  53.392  0.00  0.00     0.178 A 
ATOM     16  N   UNL d   1      53.023  32.652  53.523  0.00  0.00    -0.240 N 
ATOM     17  C   UNL d   1      53.548  32.559  54.142  0.00  0.00     0.343 A 
ATOM     18  C   UNL d   1      52.853  32.015  53.027  0.00  0.00     0.105 C 
ATOM     19  N   UNL d   1      53.719  33.196  54.638  0.00  0.00    -0.224 N 
ATOM     20  O   UNL d   1      53.909  31.827  54.272  0.00  0.00    -0.245 OA
ATOM     21  C   UNL d   1      53.365  33.933  54.520  0.00  0.00     0.271 A 
ATOM     22  C   UNL d   1      54.250  33.101  55.264  0.00  0.00     0.107 C 
ATOM     23  C   UNL d   1      52.833  34.016  53.888  0.00  0.00     0.101 A 
ATOM     24  O   UNL d   1      53.534  34.563  55.011  0.00  0.00    -0.266 OA
ENDBRANCH  14  15
ENDBRANCH   2  14
TORSDOF 4
ENDMDL
MODEL 5
REMARK VINA RESULT:      -6.5      2.000      3.034
REMARK  4 active torsions:
REMARK  status: ('A' for Active; 'I' for Inactive)
REMARK    1  A    between atoms: N_7  and  C_4 
REMARK    2  A    between atoms: N_9  and  N_7 
REMARK       I    between atoms: C_8  and  N_9 
REMARK    3  A    between atoms: C_11  and  C_8 
REMARK    4  A    between atoms: C_13  and  C_14 
ROOT
ATOM      1  C   UNL d   1      52.632  33.076  53.068  0.00  0.00     0.297 C 
ATOM      2  N   UNL d   1      51.857  33.291  52.890  0.00  0.00    -0.104 NA
ATOM      3  O   UNL d   1      53.226  33.647  53.082  0.00  0.00    -0.264 OA
ENDROOT
BRANCH   1   4
ATOM      4  C   UNL d   1      52.812  32.290  53.232  0.00  0.00     0.059 A 
ATOM      5  C   UNL d   1      52.404  31.684  52.849  0.00  0.00     0.004 A 
ATOM      6  C   UNL d   1      52.584  30.897  53.013  0.00  0.00    -0.004 A 
ATOM      7  C   UNL d   1      53.172  30.717  53.561  0.00  0.00    -0.023 A 
ATOM      8  C   UNL d   1      53.589  31.323  53.952  0.00  0.00    -0.004 A 
ATOM      9  C   UNL d   1      53.404  32.104  53.784  0.00  0.00     0.004 A 
BRANCH   7  10
ATOM     10  C   UNL d   1      53.346  29.921  53.719  0.00  0.00     0.019 C 
ATOM     11  C   UNL d   1      53.179  29.804  54.507  0.00  0.00     0.004 C 
ATOM     12  C   UNL d   1      53.613  29.627  52.980  0.00  0.00     0.004 C 
ATOM     13  C   UNL d   1      53.516  29.137  53.882  0.00  0.00     0.004 C 
ENDBRANCH   7  10
ENDBRANCH   1   4
BRANCH   2  14
ATOM     14  N   UNL d   1      51.677  34.077  52.726  0.00  0.00    -0.127 NA
BRANCH  14  15
ATOM     15  C   UNL d   1      50.917  34.283  52.474  0.00  0.00     0.178 A 
ATOM     16  N   UNL d   1      50.396  34.653  52.990  0.00  0.00    -0.240 N 
ATOM     17  C   UNL d   1      49.645  34.858  52.740  0.00  0.00     0.343 A 
ATOM     18  C   UNL d   1      50.632  34.819  53.763  0.00  0.00     0.105 C 
ATOM     19  N   UNL d   1      49.408  34.692  51.968  0.00  0.00    -0.224 N 
ATOM     20  O   UNL d   1      49.122  35.230  53.261  0.00  0.00    -0.245 OA
ATOM     21  C   UNL d   1      49.920  34.320  51.437  0.00  0.00     0.271 A 
ATOM     22  C   UNL d   1      48.649  34.898  51.715  0.00  0.00     0.107 C 
ATOM     23  C   UNL d   1      50.680  34.118  51.701  0.00  0.00     0.101 A 
ATOM     24  O   UNL d   1      49.686  34.156  50.672  0.00  0.00    -0.266 OA
ENDBRANCH  14  15
ENDBRANCH   2  14
TORSDOF 4
ENDMDL
