MODEL 1
REMARK VINA RESULT:      40.0      0.000      0.000
REMARK  4 active torsions:
REMARK  status: ('A' for Active; 'I' for Inactive)
REMARK    1  A    between atoms: S_18  and  C_6 
REMARK    2  A    between atoms: C_8  and  N_12 
REMARK       I    between atoms: N_12  and  C_16 
REMARK    3  A    between atoms: C_16  and  C_21 
REMARK    4  A    between atoms: C_21  and  S_18 
ROOT
ATOM      1  N   UNL d   1     -54.972-101.091 -43.649  0.00  0.00    -0.242 N 
ATOM      2  C   UNL d   1     -55.053-100.514 -43.071  0.00  0.00     0.153 A 
ATOM      3  C   UNL d   1     -54.803-101.870 -43.431  0.00  0.00     0.357 A 
ATOM      4  N   UNL d   1     -54.966-100.709 -42.274  0.00  0.00    -0.203 NA
ATOM      5  N   UNL d   1     -54.716-102.065 -42.634  0.00  0.00    -0.167 NA
ATOM      6  C   UNL d   1     -54.798-101.482 -42.055  0.00  0.00     0.200 A 
ATOM      7  C   UNL d   1     -55.059-100.896 -44.445  0.00  0.00     0.086 A 
ATOM      8  C   UNL d   1     -55.222 -99.735 -43.289  0.00  0.00     0.038 A 
ATOM      9  C   UNL d   1     -55.227-100.123 -44.665  0.00  0.00     0.019 A 
ATOM     10  C   UNL d   1     -55.309 -99.540 -44.085  0.00  0.00     0.004 A 
ATOM     11  O   UNL d   1     -54.719-102.465 -44.013  0.00  0.00    -0.244 OA
ATOM     12  C   UNL d   1     -55.478 -98.758 -44.303  0.00  0.00     0.000 C 
ENDROOT
BRANCH   6  13
ATOM     13  S   UNL d   1     -54.711-101.678 -41.259  0.00  0.00    -0.043 SA
BRANCH  13  14
ATOM     14  C   UNL d   1     -54.947-102.421 -40.989  0.00  0.00     0.101 C 
BRANCH  14  15
ATOM     15  C   UNL d   1     -55.313-102.489 -40.258  0.00  0.00     0.287 C 
ATOM     16  N   UNL d   1     -54.899-102.285 -39.573  0.00  0.00    -0.186 NA
ATOM     17  O   UNL d   1     -56.086-102.759 -40.202  0.00  0.00    -0.265 OA
BRANCH  16  18
ATOM     18  C   UNL d   1     -55.263-102.351 -38.836  0.00  0.00     0.194 A 
ATOM     19  N   UNL d   1     -55.876-102.831 -38.558  0.00  0.00    -0.107 NA
ATOM     20  O   UNL d   1     -56.004-102.653 -37.769  0.00  0.00    -0.210 OA
ATOM     21  C   UNL d   1     -55.480-102.069 -37.549  0.00  0.00     0.128 A 
ATOM     22  C   UNL d   1     -55.017-101.879 -38.211  0.00  0.00     0.068 A 
ATOM     23  C   UNL d   1     -55.430-101.732 -36.787  0.00  0.00     0.029 C 
ENDBRANCH  16  18
ENDBRANCH  14  15
ENDBRANCH  13  14
ENDBRANCH   6  13
TORSDOF 4
ENDMDL
