MODEL 1
REMARK VINA RESULT:      86.5      0.000      0.000
REMARK  6 active torsions:
REMARK  status: ('A' for Active; 'I' for Inactive)
REMARK    1  A    between atoms: C_6  and  C_2 
REMARK    2  A    between atoms: C_7  and  C_6 
REMARK    3  A    between atoms: C_8  and  C_15 
REMARK       I    between atoms: N_9  and  C_8 
REMARK    4  A    between atoms: C_16  and  N_9 
REMARK    5  A    between atoms: O_13  and  C_12 
REMARK    6  A    between atoms: C_15  and  O_13 
ROOT
ATOM      1  C   UNL d   1      60.742  48.292  50.831  0.00  0.00     0.023 A 
ATOM      2  C   UNL d   1      60.346  48.997  50.990  0.00  0.00     0.100 A 
ATOM      3  C   UNL d   1      61.407  48.288  50.351  0.00  0.00     0.002 A 
ATOM      4  C   UNL d   1      60.617  49.706  50.666  0.00  0.00     0.025 A 
ATOM      5  C   UNL d   1      61.686  48.995  50.022  0.00  0.00     0.000 A 
ATOM      6  C   UNL d   1      61.286  49.703  50.183  0.00  0.00     0.002 A 
ENDROOT
BRANCH   2   7
ATOM      7  O   UNL d   1      59.675  48.999  51.475  0.00  0.00    -0.300 OA
BRANCH   7   8
ATOM      8  C   UNL d   1      58.963  49.311  51.182  0.00  0.00     0.185 C 
BRANCH   8   9
ATOM      9  C   UNL d   1      58.377  49.570  51.712  0.00  0.00     0.304 C 
ATOM     10  N   UNL d   1      57.609  49.708  51.436  0.00  0.00    -0.206 NA
ATOM     11  O   UNL d   1      58.563  49.689  52.507  0.00  0.00    -0.263 OA
BRANCH  10  12
ATOM     12  C   UNL d   1      57.423  49.589  50.642  0.00  0.00     0.085 A 
ATOM     13  C   UNL d   1      58.030  49.587  50.074  0.00  0.00     0.019 A 
ATOM     14  C   UNL d   1      57.851  49.468  49.277  0.00  0.00     0.002 A 
ATOM     15  C   UNL d   1      57.062  49.352  49.043  0.00  0.00     0.000 A 
ATOM     16  C   UNL d   1      56.462  49.356  49.615  0.00  0.00     0.002 A 
ATOM     17  C   UNL d   1      56.647  49.474  50.410  0.00  0.00     0.019 A 
ENDBRANCH  10  12
ENDBRANCH   8   9
ENDBRANCH   7   8
ENDBRANCH   2   7
BRANCH   1  18
ATOM     18  C   UNL d   1      60.472  47.580  51.156  0.00  0.00     0.013 C 
BRANCH  18  19
ATOM     19  C   UNL d   1      60.886  47.213  51.767  0.00  0.00     0.092 A 
ATOM     20  C   UNL d   1      61.174  46.447  51.769  0.00  0.00     0.288 A 
ATOM     21  N   UNL d   1      61.549  46.312  52.488  0.00  0.00    -0.163 NA
ATOM     22  O   UNL d   1      61.101  45.900  51.154  0.00  0.00    -0.265 OA
ATOM     23  C   UNL d   1      61.492  47.006  52.938  0.00  0.00     0.313 A 
ATOM     24  S   UNL d   1      61.080  47.566  52.490  0.00  0.00    -0.021 SA
ATOM     25  O   UNL d   1      61.795  47.120  53.703  0.00  0.00    -0.258 OA
ENDBRANCH  18  19
ENDBRANCH   1  18
TORSDOF 6
ENDMDL
MODEL 2
REMARK VINA RESULT:      87.8      2.000      4.031
REMARK  6 active torsions:
REMARK  status: ('A' for Active; 'I' for Inactive)
REMARK    1  A    between atoms: C_6  and  C_2 
REMARK    2  A    between atoms: C_7  and  C_6 
REMARK    3  A    between atoms: C_8  and  C_15 
REMARK       I    between atoms: N_9  and  C_8 
REMARK    4  A    between atoms: C_16  and  N_9 
REMARK    5  A    between atoms: O_13  and  C_12 
REMARK    6  A    between atoms: C_15  and  O_13 
ROOT
ATOM      1  C   UNL d   1      60.476  49.252  50.748  0.00  0.00     0.023 A 
ATOM      2  C   UNL d   1      60.750  48.771  50.137  0.00  0.00     0.100 A 
ATOM      3  C   UNL d   1      59.750  49.628  50.686  0.00  0.00     0.002 A 
ATOM      4  C   UNL d   1      60.294  48.664  49.458  0.00  0.00     0.025 A 
ATOM      5  C   UNL d   1      59.285  49.527  50.008  0.00  0.00     0.000 A 
ATOM      6  C   UNL d   1      59.563  49.042  49.395  0.00  0.00     0.002 A 
ENDROOT
BRANCH   2   7
ATOM      7  O   UNL d   1      61.483  48.392  50.201  0.00  0.00    -0.300 OA
BRANCH   7   8
ATOM      8  C   UNL d   1      61.554  47.600  49.958  0.00  0.00     0.185 C 
BRANCH   8   9
ATOM      9  C   UNL d   1      62.300  47.300  49.745  0.00  0.00     0.304 C 
ATOM     10  N   UNL d   1      62.404  46.482  49.669  0.00  0.00    -0.206 NA
ATOM     11  O   UNL d   1      62.930  47.816  49.611  0.00  0.00    -0.263 OA
BRANCH  10  12
ATOM     12  C   UNL d   1      61.775  45.967  49.803  0.00  0.00     0.085 A 
ATOM     13  C   UNL d   1      61.661  45.646  50.562  0.00  0.00     0.019 A 
ATOM     14  C   UNL d   1      61.032  45.130  50.702  0.00  0.00     0.002 A 
ATOM     15  C   UNL d   1      60.513  44.932  50.084  0.00  0.00     0.000 A 
ATOM     16  C   UNL d   1      60.633  45.256  49.330  0.00  0.00     0.002 A 
ATOM     17  C   UNL d   1      61.263  45.771  49.196  0.00  0.00     0.019 A 
ENDBRANCH  10  12
ENDBRANCH   8   9
ENDBRANCH   7   8
ENDBRANCH   2   7
BRANCH   1  18
ATOM     18  C   UNL d   1      60.932  49.360  51.431  0.00  0.00     0.013 C 
BRANCH  18  19
ATOM     19  C   UNL d   1      60.571  49.479  52.162  0.00  0.00     0.092 A 
ATOM     20  C   UNL d   1      60.949  49.621  52.874  0.00  0.00     0.288 A 
ATOM     21  N   UNL d   1      60.378  49.707  53.459  0.00  0.00    -0.163 NA
ATOM     22  O   UNL d   1      61.766  49.670  52.987  0.00  0.00    -0.265 OA
ATOM     23  C   UNL d   1      59.635  49.616  53.104  0.00  0.00     0.313 A 
ATOM     24  S   UNL d   1      59.754  49.475  52.298  0.00  0.00    -0.021 SA
ATOM     25  O   UNL d   1      58.900  49.659  53.487  0.00  0.00    -0.258 OA
ENDBRANCH  18  19
ENDBRANCH   1  18
TORSDOF 6
ENDMDL
