MODEL 1
REMARK VINA RESULT:      13.7      0.000      0.000
REMARK  3 active torsions:
REMARK  status: ('A' for Active; 'I' for Inactive)
REMARK    1  A    between atoms: N_7  and  C_4 
REMARK    2  A    between atoms: N_9  and  N_7 
REMARK       I    between atoms: C_8  and  N_9 
REMARK    3  A    between atoms: C_10  and  C_8 
ROOT
ATOM      1  N   UNL d   1      45.723 -17.179  44.427  0.00  0.00    -0.127 NA
ENDROOT
BRANCH   1   2
ATOM      2  C   UNL d   1      45.955 -17.733  43.856  0.00  0.00     0.178 A 
ATOM      3  N   UNL d   1      46.081 -18.518  44.068  0.00  0.00    -0.240 N 
ATOM      4  C   UNL d   1      46.310 -19.067  43.504  0.00  0.00     0.343 A 
ATOM      5  C   UNL d   1      45.975 -18.754  44.854  0.00  0.00     0.105 C 
ATOM      6  N   UNL d   1      46.415 -18.832  42.719  0.00  0.00    -0.224 N 
ATOM      7  O   UNL d   1      46.436 -19.857  43.720  0.00  0.00    -0.245 OA
ATOM      8  C   UNL d   1      46.292 -18.045  42.489  0.00  0.00     0.271 A 
ATOM      9  C   UNL d   1      46.647 -19.386  42.149  0.00  0.00     0.107 C 
ATOM     10  C   UNL d   1      46.060 -17.498  43.071  0.00  0.00     0.101 A 
ATOM     11  O   UNL d   1      46.397 -17.813  41.712  0.00  0.00    -0.266 OA
ENDBRANCH   1   2
BRANCH   1  12
ATOM     12  N   UNL d   1      45.888 -16.378  44.314  0.00  0.00    -0.104 NA
ATOM     13  C   UNL d   1      45.353 -15.808  44.578  0.00  0.00     0.297 C 
ATOM     14  O   UNL d   1      44.655 -16.038  44.955  0.00  0.00    -0.264 OA
BRANCH  13  15
ATOM     15  C   UNL d   1      45.518 -15.007  44.465  0.00  0.00     0.059 A 
ATOM     16  C   UNL d   1      45.005 -14.546  44.019  0.00  0.00     0.005 A 
ATOM     17  C   UNL d   1      45.163 -13.748  43.903  0.00  0.00     0.000 A 
ATOM     18  C   UNL d   1      44.646 -13.285  43.453  0.00  0.00     0.000 C 
ATOM     19  C   UNL d   1      45.847 -13.406  44.239  0.00  0.00     0.000 A 
ATOM     20  C   UNL d   1      46.360 -13.872  44.686  0.00  0.00     0.000 A 
ATOM     21  C   UNL d   1      46.001 -12.611  44.120  0.00  0.00     0.000 C 
ATOM     22  C   UNL d   1      46.189 -14.676  44.796  0.00  0.00     0.005 A 
ENDBRANCH  13  15
ENDBRANCH   1  12
TORSDOF 3
ENDMDL
