MODEL 1
REMARK VINA RESULT:      15.2      0.000      0.000
REMARK  5 active torsions:
REMARK  status: ('A' for Active; 'I' for Inactive)
REMARK    1  A    between atoms: C_2  and  C_1 
REMARK       I    between atoms: N_4  and  C_2 
REMARK    2  A    between atoms: C_7  and  N_4 
REMARK    3  A    between atoms: C_12  and  C_6 
REMARK    4  A    between atoms: S_11  and  C_12 
REMARK    5  A    between atoms: C_14  and  S_11 
ROOT
ATOM      1  C   UNL d   1      46.312 -17.822  43.494  0.00  0.00     0.158 A 
ATOM      2  O   UNL d   1      46.017 -17.062  43.612  0.00  0.00    -0.302 OA
ATOM      3  C   UNL d   1      46.487 -18.139  44.240  0.00  0.00     0.032 A 
ATOM      4  C   UNL d   1      46.007 -16.908  44.415  0.00  0.00     0.107 A 
ATOM      5  C   UNL d   1      46.298 -17.573  44.810  0.00  0.00     0.027 A 
ENDROOT
BRANCH   1   6
ATOM      6  C   UNL d   1      46.418 -18.206  42.770  0.00  0.00     0.302 C 
ATOM      7  N   UNL d   1      46.334 -19.023  42.714  0.00  0.00    -0.204 NA
ATOM      8  O   UNL d   1      46.609 -17.764  42.105  0.00  0.00    -0.263 OA
BRANCH   7   9
ATOM      9  C   UNL d   1      46.140 -19.460  43.397  0.00  0.00     0.112 A 
ATOM     10  C   UNL d   1      45.438 -19.897  43.402  0.00  0.00     0.158 A 
ATOM     11  F   UNL d   1      44.946 -19.897  42.745  0.00  0.00    -0.203 F 
ATOM     12  C   UNL d   1      45.242 -20.330  44.073  0.00  0.00     0.031 A 
ATOM     13  C   UNL d   1      45.741 -20.327  44.735  0.00  0.00     0.002 A 
ATOM     14  C   UNL d   1      46.438 -19.889  44.723  0.00  0.00     0.002 A 
ATOM     15  C   UNL d   1      46.636 -19.454  44.048  0.00  0.00     0.021 A 
ENDBRANCH   7   9
ENDBRANCH   1   6
BRANCH   4  16
ATOM     16  C   UNL d   1      45.753 -16.210  44.779  0.00  0.00     0.060 C 
BRANCH  16  17
ATOM     17  S   UNL d   1      45.279 -15.681  44.364  0.00  0.00    -0.084 SA
BRANCH  17  18
ATOM     18  C   UNL d   1      45.366 -14.872  44.469  0.00  0.00     0.029 A 
ATOM     19  C   UNL d   1      46.109 -14.549  44.608  0.00  0.00     0.006 A 
ATOM     20  C   UNL d   1      46.197 -13.739  44.712  0.00  0.00     0.001 A 
ATOM     21  C   UNL d   1      45.529 -13.250  44.676  0.00  0.00     0.000 A 
ATOM     22  C   UNL d   1      44.786 -13.577  44.537  0.00  0.00     0.001 A 
ATOM     23  C   UNL d   1      44.699 -14.388  44.432  0.00  0.00     0.006 A 
ENDBRANCH  17  18
ENDBRANCH  16  17
ENDBRANCH   4  16
TORSDOF 5
ENDMDL
MODEL 2
REMARK VINA RESULT:      15.9      1.034      1.607
REMARK  5 active torsions:
REMARK  status: ('A' for Active; 'I' for Inactive)
REMARK    1  A    between atoms: C_2  and  C_1 
REMARK       I    between atoms: N_4  and  C_2 
REMARK    2  A    between atoms: C_7  and  N_4 
REMARK    3  A    between atoms: C_12  and  C_6 
REMARK    4  A    between atoms: S_11  and  C_12 
REMARK    5  A    between atoms: C_14  and  S_11 
ROOT
ATOM      1  C   UNL d   1      46.307 -18.498  44.084  0.00  0.00     0.158 A 
ATOM      2  O   UNL d   1      45.986 -17.949  44.609  0.00  0.00    -0.302 OA
ATOM      3  C   UNL d   1      46.570 -18.079  43.418  0.00  0.00     0.032 A 
ATOM      4  C   UNL d   1      46.048 -17.204  44.277  0.00  0.00     0.107 A 
ATOM      5  C   UNL d   1      46.410 -17.279  43.538  0.00  0.00     0.027 A 
ENDROOT
BRANCH   1   6
ATOM      6  C   UNL d   1      46.361 -19.315  44.192  0.00  0.00     0.302 C 
ATOM      7  N   UNL d   1      46.247 -19.829  43.559  0.00  0.00    -0.204 NA
ATOM      8  O   UNL d   1      46.528 -19.611  44.940  0.00  0.00    -0.263 OA
BRANCH   7   9
ATOM      9  C   UNL d   1      46.078 -19.515  42.806  0.00  0.00     0.112 A 
ATOM     10  C   UNL d   1      45.330 -19.650  42.480  0.00  0.00     0.158 A 
ATOM     11  F   UNL d   1      44.770 -20.085  42.893  0.00  0.00    -0.203 F 
ATOM     12  C   UNL d   1      45.157 -19.343  41.736  0.00  0.00     0.031 A 
ATOM     13  C   UNL d   1      45.725 -18.904  41.321  0.00  0.00     0.002 A 
ATOM     14  C   UNL d   1      46.467 -18.774  41.653  0.00  0.00     0.002 A 
ATOM     15  C   UNL d   1      46.641 -19.083  42.400  0.00  0.00     0.021 A 
ENDBRANCH   7   9
ENDBRANCH   1   6
BRANCH   4  16
ATOM     16  C   UNL d   1      45.796 -16.493  44.615  0.00  0.00     0.060 C 
BRANCH  16  17
ATOM     17  S   UNL d   1      46.047 -15.777  44.297  0.00  0.00    -0.084 SA
BRANCH  17  18
ATOM     18  C   UNL d   1      45.683 -15.074  44.513  0.00  0.00     0.029 A 
ATOM     19  C   UNL d   1      46.108 -14.370  44.515  0.00  0.00     0.006 A 
ATOM     20  C   UNL d   1      45.744 -13.666  44.731  0.00  0.00     0.001 A 
ATOM     21  C   UNL d   1      44.944 -13.672  44.947  0.00  0.00     0.000 A 
ATOM     22  C   UNL d   1      44.522 -14.380  44.944  0.00  0.00     0.001 A 
ATOM     23  C   UNL d   1      44.886 -15.083  44.728  0.00  0.00     0.006 A 
ENDBRANCH  17  18
ENDBRANCH  16  17
ENDBRANCH   4  16
TORSDOF 5
ENDMDL
