MODEL 1
REMARK VINA RESULT:      -4.0      0.000      0.000
REMARK  5 active torsions:
REMARK  status: ('A' for Active; 'I' for Inactive)
REMARK    1  A    between atoms: C_22  and  N_10 
REMARK    2  A    between atoms: C_19  and  N_13 
REMARK    3  A    between atoms: N_14  and  C_26 
REMARK    4  A    between atoms: C_25  and  C_22 
REMARK    5  A    between atoms: C_26  and  C_25 
ROOT
ATOM      1  C   UNL d   1     -48.519  13.139  23.232  0.00  0.00     0.173 A 
ATOM      2  C   UNL d   1     -47.924  13.612  22.975  0.00  0.00     0.191 A 
ATOM      3  C   UNL d   1     -46.977  12.577  23.201  0.00  0.00     0.722 A 
ATOM      4  N   UNL d   1     -47.581  12.082  23.468  0.00  0.00    -0.131 N 
ATOM      5  N   UNL d   1     -47.149  13.341  22.955  0.00  0.00    -0.042 NA
ATOM      6  N   UNL d   1     -48.080  14.375  22.727  0.00  0.00    -0.240 N 
ATOM      7  N   UNL d   1     -49.485  14.130  23.025  0.00  0.00    -0.223 N 
ATOM      8  C   UNL d   1     -48.864  14.639  22.751  0.00  0.00     0.343 A 
ATOM      9  C   UNL d   1     -49.306  13.372  23.268  0.00  0.00     0.288 A 
ATOM     10  N   UNL d   1     -46.197  12.301  23.183  0.00  0.00    -0.139 N 
ATOM     11  C   UNL d   1     -46.627  11.039  23.696  0.00  0.00     0.116 A 
ATOM     12  C   UNL d   1     -46.023  11.534  23.429  0.00  0.00     0.100 A 
ATOM     13  O   UNL d   1     -49.009  15.439  22.488  0.00  0.00    -0.245 OA
ATOM     14  O   UNL d   1     -49.909  12.878  23.534  0.00  0.00    -0.265 OA
ATOM     15  C   UNL d   1     -47.475  14.870  22.461  0.00  0.00     0.105 C 
ATOM     16  C   UNL d   1     -50.255  14.394  23.046  0.00  0.00     0.107 C 
ATOM     17  C   UNL d   1     -45.233  11.280  23.401  0.00  0.00     0.021 C 
ENDROOT
BRANCH  10  18
ATOM     18  C   UNL d   1     -45.590  12.793  22.917  0.00  0.00     0.100 C 
BRANCH  18  19
ATOM     19  C   UNL d   1     -44.989  12.493  22.429  0.00  0.00     0.039 C 
BRANCH  19  20
ATOM     20  C   UNL d   1     -44.808  12.863  21.729  0.00  0.00     0.082 C 
BRANCH  20  21
ATOM     21  N   UNL d   1     -44.033  13.089  21.569  0.00  0.00    -0.300 N 
ATOM     22  C   UNL d   1     -43.460  12.511  21.433  0.00  0.00     0.100 A 
ATOM     23  C   UNL d   1     -42.690  12.739  21.274  0.00  0.00     0.100 A 
ATOM     24  N   UNL d   1     -42.492  13.535  21.251  0.00  0.00    -0.301 N 
ATOM     25  C   UNL d   1     -43.065  14.102  21.386  0.00  0.00     0.100 A 
ATOM     26  C   UNL d   1     -43.845  13.881  21.547  0.00  0.00     0.100 A 
BRANCH  24  27
ATOM     27  C   UNL d   1     -41.718  13.761  21.091  0.00  0.00     0.064 A 
ATOM     28  C   UNL d   1     -41.126  13.614  21.634  0.00  0.00     0.018 A 
ATOM     29  C   UNL d   1     -40.355  13.837  21.481  0.00  0.00     0.002 A 
ATOM     30  C   UNL d   1     -40.175  14.215  20.769  0.00  0.00     0.000 A 
ATOM     31  C   UNL d   1     -40.774  14.365  20.217  0.00  0.00     0.002 A 
ATOM     32  C   UNL d   1     -41.539  14.139  20.379  0.00  0.00     0.018 A 
ENDBRANCH  24  27
ENDBRANCH  20  21
ENDBRANCH  19  20
ENDBRANCH  18  19
ENDBRANCH  10  18
TORSDOF 5
ENDMDL
MODEL 2
REMARK VINA RESULT:      -3.2      3.474      7.568
REMARK  5 active torsions:
REMARK  status: ('A' for Active; 'I' for Inactive)
REMARK    1  A    between atoms: C_22  and  N_10 
REMARK    2  A    between atoms: C_19  and  N_13 
REMARK    3  A    between atoms: N_14  and  C_26 
REMARK    4  A    between atoms: C_25  and  C_22 
REMARK    5  A    between atoms: C_26  and  C_25 
ROOT
ATOM      1  C   UNL d   1     -39.168  14.662  18.565  0.00  0.00     0.173 A 
ATOM      2  C   UNL d   1     -39.966  14.699  18.632  0.00  0.00     0.191 A 
ATOM      3  C   UNL d   1     -39.886  14.370  20.012  0.00  0.00     0.722 A 
ATOM      4  N   UNL d   1     -39.064  14.330  19.954  0.00  0.00    -0.131 N 
ATOM      5  N   UNL d   1     -40.336  14.554  19.351  0.00  0.00    -0.042 NA
ATOM      6  N   UNL d   1     -40.428  14.882  17.983  0.00  0.00    -0.240 N 
ATOM      7  N   UNL d   1     -39.201  14.984  17.203  0.00  0.00    -0.223 N 
ATOM      8  C   UNL d   1     -40.046  15.025  17.263  0.00  0.00     0.343 A 
ATOM      9  C   UNL d   1     -38.760  14.800  17.866  0.00  0.00     0.288 A 
ATOM     10  N   UNL d   1     -40.255  14.224  20.738  0.00  0.00    -0.139 N 
ATOM     11  C   UNL d   1     -38.982  13.998  21.345  0.00  0.00     0.116 A 
ATOM     12  C   UNL d   1     -39.804  14.038  21.403  0.00  0.00     0.100 A 
ATOM     13  O   UNL d   1     -40.543  15.215  16.594  0.00  0.00    -0.245 OA
ATOM     14  O   UNL d   1     -37.939  14.759  17.808  0.00  0.00    -0.265 OA
ATOM     15  C   UNL d   1     -41.250  14.922  18.040  0.00  0.00     0.105 C 
ATOM     16  C   UNL d   1     -38.830  15.126  16.493  0.00  0.00     0.107 C 
ATOM     17  C   UNL d   1     -40.198  13.896  22.120  0.00  0.00     0.021 C 
ENDROOT
BRANCH  10  18
ATOM     18  C   UNL d   1     -41.077  14.263  20.800  0.00  0.00     0.100 C 
BRANCH  18  19
ATOM     19  C   UNL d   1     -41.506  13.628  21.119  0.00  0.00     0.039 C 
BRANCH  19  20
ATOM     20  C   UNL d   1     -42.154  13.333  20.726  0.00  0.00     0.082 C 
BRANCH  20  21
ATOM     21  N   UNL d   1     -42.852  13.186  21.133  0.00  0.00    -0.300 N 
ATOM     22  C   UNL d   1     -42.965  12.455  21.498  0.00  0.00     0.100 A 
ATOM     23  C   UNL d   1     -43.663  12.311  21.903  0.00  0.00     0.100 A 
ATOM     24  N   UNL d   1     -44.242  12.890  21.945  0.00  0.00    -0.301 N 
ATOM     25  C   UNL d   1     -44.123  13.613  21.581  0.00  0.00     0.100 A 
ATOM     26  C   UNL d   1     -43.423  13.766  21.170  0.00  0.00     0.100 A 
BRANCH  24  27
ATOM     27  C   UNL d   1     -44.941  12.744  22.351  0.00  0.00     0.064 A 
ATOM     28  C   UNL d   1     -45.042  12.042  22.757  0.00  0.00     0.018 A 
ATOM     29  C   UNL d   1     -45.735  11.891  23.163  0.00  0.00     0.002 A 
ATOM     30  C   UNL d   1     -46.337  12.456  23.162  0.00  0.00     0.000 A 
ATOM     31  C   UNL d   1     -46.237  13.169  22.752  0.00  0.00     0.002 A 
ATOM     32  C   UNL d   1     -45.543  13.309  22.350  0.00  0.00     0.018 A 
ENDBRANCH  24  27
ENDBRANCH  20  21
ENDBRANCH  19  20
ENDBRANCH  18  19
ENDBRANCH  10  18
TORSDOF 5
ENDMDL
MODEL 3
REMARK VINA RESULT:      -2.1      1.079      2.179
REMARK  5 active torsions:
REMARK  status: ('A' for Active; 'I' for Inactive)
REMARK    1  A    between atoms: C_22  and  N_10 
REMARK    2  A    between atoms: C_19  and  N_13 
REMARK    3  A    between atoms: N_14  and  C_26 
REMARK    4  A    between atoms: C_25  and  C_22 
REMARK    5  A    between atoms: C_26  and  C_25 
ROOT
ATOM      1  C   UNL d   1     -49.261  13.068  23.178  0.00  0.00     0.173 A 
ATOM      2  C   UNL d   1     -48.600  12.615  23.222  0.00  0.00     0.191 A 
ATOM      3  C   UNL d   1     -47.786  13.741  22.923  0.00  0.00     0.722 A 
ATOM      4  N   UNL d   1     -48.459  14.215  22.875  0.00  0.00    -0.131 N 
ATOM      5  N   UNL d   1     -47.856  12.942  23.097  0.00  0.00    -0.042 NA
ATOM      6  N   UNL d   1     -48.654  11.818  23.394  0.00  0.00    -0.240 N 
ATOM      7  N   UNL d   1     -50.099  11.986  23.470  0.00  0.00    -0.223 N 
ATOM      8  C   UNL d   1     -49.407  11.499  23.519  0.00  0.00     0.343 A 
ATOM      9  C   UNL d   1     -50.020  12.780  23.296  0.00  0.00     0.288 A 
ATOM     10  N   UNL d   1     -47.038  14.073  22.796  0.00  0.00    -0.139 N 
ATOM     11  C   UNL d   1     -47.639  15.350  22.573  0.00  0.00     0.116 A 
ATOM     12  C   UNL d   1     -46.965  14.876  22.622  0.00  0.00     0.100 A 
ATOM     13  O   UNL d   1     -49.446  10.664  23.698  0.00  0.00    -0.245 OA
ATOM     14  O   UNL d   1     -50.693  13.254  23.248  0.00  0.00    -0.265 OA
ATOM     15  C   UNL d   1     -47.980  11.344  23.443  0.00  0.00     0.105 C 
ATOM     16  C   UNL d   1     -50.839  11.667  23.593  0.00  0.00     0.107 C 
ATOM     17  C   UNL d   1     -46.205  15.186  22.498  0.00  0.00     0.021 C 
ENDROOT
BRANCH  10  18
ATOM     18  C   UNL d   1     -46.362  13.602  22.844  0.00  0.00     0.100 C 
BRANCH  18  19
ATOM     19  C   UNL d   1     -45.813  13.590  22.221  0.00  0.00     0.039 C 
BRANCH  19  20
ATOM     20  C   UNL d   1     -45.287  12.975  22.152  0.00  0.00     0.082 C 
BRANCH  20  21
ATOM     21  N   UNL d   1     -44.522  13.114  21.884  0.00  0.00    -0.300 N 
ATOM     22  C   UNL d   1     -43.997  12.482  21.806  0.00  0.00     0.100 A 
ATOM     23  C   UNL d   1     -43.235  12.623  21.539  0.00  0.00     0.100 A 
ATOM     24  N   UNL d   1     -42.999  13.386  21.351  0.00  0.00    -0.301 N 
ATOM     25  C   UNL d   1     -43.525  14.007  21.432  0.00  0.00     0.100 A 
ATOM     26  C   UNL d   1     -44.295  13.874  21.700  0.00  0.00     0.100 A 
BRANCH  24  27
ATOM     27  C   UNL d   1     -42.235  13.526  21.084  0.00  0.00     0.064 A 
ATOM     28  C   UNL d   1     -42.084  13.590  20.283  0.00  0.00     0.018 A 
ATOM     29  C   UNL d   1     -41.327  13.729  20.011  0.00  0.00     0.002 A 
ATOM     30  C   UNL d   1     -40.708  13.804  20.553  0.00  0.00     0.000 A 
ATOM     31  C   UNL d   1     -40.858  13.739  21.365  0.00  0.00     0.002 A 
ATOM     32  C   UNL d   1     -41.617  13.600  21.626  0.00  0.00     0.018 A 
ENDBRANCH  24  27
ENDBRANCH  20  21
ENDBRANCH  19  20
ENDBRANCH  18  19
ENDBRANCH  10  18
TORSDOF 5
ENDMDL
MODEL 4
REMARK VINA RESULT:      -1.7      2.534      6.554
REMARK  5 active torsions:
REMARK  status: ('A' for Active; 'I' for Inactive)
REMARK    1  A    between atoms: C_22  and  N_10 
REMARK    2  A    between atoms: C_19  and  N_13 
REMARK    3  A    between atoms: N_14  and  C_26 
REMARK    4  A    between atoms: C_25  and  C_22 
REMARK    5  A    between atoms: C_26  and  C_25 
ROOT
ATOM      1  C   UNL d   1     -41.145  13.683  21.460  0.00  0.00     0.173 A 
ATOM      2  C   UNL d   1     -41.810  14.074  21.243  0.00  0.00     0.191 A 
ATOM      3  C   UNL d   1     -42.617  13.000  21.707  0.00  0.00     0.722 A 
ATOM      4  N   UNL d   1     -41.939  12.589  21.934  0.00  0.00    -0.131 N 
ATOM      5  N   UNL d   1     -42.553  13.742  21.362  0.00  0.00    -0.042 NA
ATOM      6  N   UNL d   1     -41.762  14.814  20.899  0.00  0.00    -0.240 N 
ATOM      7  N   UNL d   1     -40.313  14.717  21.017  0.00  0.00    -0.223 N 
ATOM      8  C   UNL d   1     -41.010  15.140  20.783  0.00  0.00     0.343 A 
ATOM      9  C   UNL d   1     -40.386  13.980  21.359  0.00  0.00     0.288 A 
ATOM     10  N   UNL d   1     -43.363  12.663  21.827  0.00  0.00    -0.139 N 
ATOM     11  C   UNL d   1     -42.752  11.506  22.400  0.00  0.00     0.116 A 
ATOM     12  C   UNL d   1     -43.430  11.917  22.173  0.00  0.00     0.100 A 
ATOM     13  O   UNL d   1     -40.977  15.914  20.422  0.00  0.00    -0.245 OA
ATOM     14  O   UNL d   1     -39.709  13.569  21.586  0.00  0.00    -0.265 OA
ATOM     15  C   UNL d   1     -42.440  15.225  20.672  0.00  0.00     0.105 C 
ATOM     16  C   UNL d   1     -39.575  15.042  20.902  0.00  0.00     0.107 C 
ATOM     17  C   UNL d   1     -44.189  11.600  22.284  0.00  0.00     0.021 C 
ENDROOT
BRANCH  10  18
ATOM     18  C   UNL d   1     -44.044  13.071  21.602  0.00  0.00     0.100 C 
BRANCH  18  19
ATOM     19  C   UNL d   1     -44.703  13.100  22.105  0.00  0.00     0.039 C 
BRANCH  19  20
ATOM     20  C   UNL d   1     -45.268  13.676  22.006  0.00  0.00     0.082 C 
BRANCH  20  21
ATOM     21  N   UNL d   1     -46.038  13.549  22.264  0.00  0.00    -0.300 N 
ATOM     22  C   UNL d   1     -46.600  13.252  21.738  0.00  0.00     0.100 A 
ATOM     23  C   UNL d   1     -47.367  13.126  21.997  0.00  0.00     0.100 A 
ATOM     24  N   UNL d   1     -47.572  13.294  22.774  0.00  0.00    -0.301 N 
ATOM     25  C   UNL d   1     -47.009  13.588  23.289  0.00  0.00     0.100 A 
ATOM     26  C   UNL d   1     -46.234  13.718  23.036  0.00  0.00     0.100 A 
BRANCH  24  27
ATOM     27  C   UNL d   1     -48.341  13.167  23.032  0.00  0.00     0.064 A 
ATOM     28  C   UNL d   1     -48.898  13.762  22.977  0.00  0.00     0.018 A 
ATOM     29  C   UNL d   1     -49.664  13.642  23.232  0.00  0.00     0.002 A 
ATOM     30  C   UNL d   1     -49.876  12.909  23.549  0.00  0.00     0.000 A 
ATOM     31  C   UNL d   1     -49.314  12.304  23.606  0.00  0.00     0.002 A 
ATOM     32  C   UNL d   1     -48.552  12.434  23.349  0.00  0.00     0.018 A 
ENDBRANCH  24  27
ENDBRANCH  20  21
ENDBRANCH  19  20
ENDBRANCH  18  19
ENDBRANCH  10  18
TORSDOF 5
ENDMDL
MODEL 5
REMARK VINA RESULT:      -1.5      1.406      2.689
REMARK  5 active torsions:
REMARK  status: ('A' for Active; 'I' for Inactive)
REMARK    1  A    between atoms: C_22  and  N_10 
REMARK    2  A    between atoms: C_19  and  N_13 
REMARK    3  A    between atoms: N_14  and  C_26 
REMARK    4  A    between atoms: C_25  and  C_22 
REMARK    5  A    between atoms: C_26  and  C_25 
ROOT
ATOM      1  C   UNL d   1     -46.039  12.584  22.936  0.00  0.00     0.173 A 
ATOM      2  C   UNL d   1     -45.827  13.257  22.553  0.00  0.00     0.191 A 
ATOM      3  C   UNL d   1     -44.564  12.695  22.224  0.00  0.00     0.722 A 
ATOM      4  N   UNL d   1     -44.771  11.999  22.616  0.00  0.00    -0.131 N 
ATOM      5  N   UNL d   1     -45.091  13.323  22.193  0.00  0.00    -0.042 NA
ATOM      6  N   UNL d   1     -46.342  13.891  22.513  0.00  0.00    -0.240 N 
ATOM      7  N   UNL d   1     -47.294  13.098  23.281  0.00  0.00    -0.223 N 
ATOM      8  C   UNL d   1     -47.081  13.814  22.879  0.00  0.00     0.343 A 
ATOM      9  C   UNL d   1     -46.763  12.478  23.307  0.00  0.00     0.288 A 
ATOM     10  N   UNL d   1     -43.822  12.759  21.863  0.00  0.00    -0.139 N 
ATOM     11  C   UNL d   1     -43.498  11.434  22.285  0.00  0.00     0.116 A 
ATOM     12  C   UNL d   1     -43.290  12.130  21.893  0.00  0.00     0.100 A 
ATOM     13  O   UNL d   1     -47.606  14.485  22.828  0.00  0.00    -0.245 OA
ATOM     14  O   UNL d   1     -46.970  11.783  23.698  0.00  0.00    -0.265 OA
ATOM     15  C   UNL d   1     -46.134  14.587  22.122  0.00  0.00     0.105 C 
ATOM     16  C   UNL d   1     -48.022  13.027  23.639  0.00  0.00     0.107 C 
ATOM     17  C   UNL d   1     -42.552  12.217  21.524  0.00  0.00     0.021 C 
ENDROOT
BRANCH  10  18
ATOM     18  C   UNL d   1     -43.610  13.454  21.471  0.00  0.00     0.100 C 
BRANCH  18  19
ATOM     19  C   UNL d   1     -42.811  13.655  21.373  0.00  0.00     0.039 C 
BRANCH  19  20
ATOM     20  C   UNL d   1     -42.607  14.379  21.065  0.00  0.00     0.082 C 
BRANCH  20  21
ATOM     21  N   UNL d   1     -41.827  14.534  20.856  0.00  0.00    -0.300 N 
ATOM     22  C   UNL d   1     -41.331  14.920  21.391  0.00  0.00     0.100 A 
ATOM     23  C   UNL d   1     -40.554  15.074  21.180  0.00  0.00     0.100 A 
ATOM     24  N   UNL d   1     -40.274  14.844  20.444  0.00  0.00    -0.301 N 
ATOM     25  C   UNL d   1     -40.771  14.461  19.919  0.00  0.00     0.100 A 
ATOM     26  C   UNL d   1     -41.556  14.303  20.124  0.00  0.00     0.100 A 
BRANCH  24  27
ATOM     27  C   UNL d   1     -39.494  14.999  20.235  0.00  0.00     0.064 A 
ATOM     28  C   UNL d   1     -38.941  14.398  20.237  0.00  0.00     0.018 A 
ATOM     29  C   UNL d   1     -38.164  14.546  20.030  0.00  0.00     0.002 A 
ATOM     30  C   UNL d   1     -37.940  15.311  19.816  0.00  0.00     0.000 A 
ATOM     31  C   UNL d   1     -38.500  15.922  19.813  0.00  0.00     0.002 A 
ATOM     32  C   UNL d   1     -39.271  15.764  20.021  0.00  0.00     0.018 A 
ENDBRANCH  24  27
ENDBRANCH  20  21
ENDBRANCH  19  20
ENDBRANCH  18  19
ENDBRANCH  10  18
TORSDOF 5
ENDMDL
MODEL 6
REMARK VINA RESULT:      -1.3      4.022      8.069
REMARK  5 active torsions:
REMARK  status: ('A' for Active; 'I' for Inactive)
REMARK    1  A    between atoms: C_22  and  N_10 
REMARK    2  A    between atoms: C_19  and  N_13 
REMARK    3  A    between atoms: N_14  and  C_26 
REMARK    4  A    between atoms: C_25  and  C_22 
REMARK    5  A    between atoms: C_26  and  C_25 
ROOT
ATOM      1  C   UNL d   1     -38.718  14.485  17.646  0.00  0.00     0.173 A 
ATOM      2  C   UNL d   1     -39.319  14.873  18.008  0.00  0.00     0.191 A 
ATOM      3  C   UNL d   1     -38.944  14.322  19.263  0.00  0.00     0.722 A 
ATOM      4  N   UNL d   1     -38.322  13.919  18.900  0.00  0.00    -0.131 N 
ATOM      5  N   UNL d   1     -39.442  14.799  18.817  0.00  0.00    -0.042 NA
ATOM      6  N   UNL d   1     -39.823  15.351  17.577  0.00  0.00    -0.240 N 
ATOM      7  N   UNL d   1     -39.053  15.005  16.390  0.00  0.00    -0.223 N 
ATOM      8  C   UNL d   1     -39.692  15.419  16.763  0.00  0.00     0.343 A 
ATOM      9  C   UNL d   1     -38.562  14.533  16.841  0.00  0.00     0.288 A 
ATOM     10  N   UNL d   1     -39.064  14.245  20.079  0.00  0.00    -0.139 N 
ATOM     11  C   UNL d   1     -37.943  13.365  20.165  0.00  0.00     0.116 A 
ATOM     12  C   UNL d   1     -38.565  13.768  20.528  0.00  0.00     0.100 A 
ATOM     13  O   UNL d   1     -40.228  15.922  16.327  0.00  0.00    -0.245 OA
ATOM     14  O   UNL d   1     -37.941  14.131  16.479  0.00  0.00    -0.265 OA
ATOM     15  C   UNL d   1     -40.445  15.754  17.940  0.00  0.00     0.105 C 
ATOM     16  C   UNL d   1     -38.927  15.075  15.588  0.00  0.00     0.107 C 
ATOM     17  C   UNL d   1     -38.706  13.706  21.344  0.00  0.00     0.021 C 
ENDROOT
BRANCH  10  18
ATOM     18  C   UNL d   1     -39.685  14.647  20.445  0.00  0.00     0.100 C 
BRANCH  18  19
ATOM     19  C   UNL d   1     -40.373  14.240  20.671  0.00  0.00     0.039 C 
BRANCH  19  20
ATOM     20  C   UNL d   1     -41.033  14.654  20.904  0.00  0.00     0.082 C 
BRANCH  20  21
ATOM     21  N   UNL d   1     -41.715  14.251  21.126  0.00  0.00    -0.300 N 
ATOM     22  C   UNL d   1     -41.653  13.506  21.473  0.00  0.00     0.100 A 
ATOM     23  C   UNL d   1     -42.335  13.107  21.694  0.00  0.00     0.100 A 
ATOM     24  N   UNL d   1     -43.070  13.448  21.570  0.00  0.00    -0.301 N 
ATOM     25  C   UNL d   1     -43.123  14.188  21.225  0.00  0.00     0.100 A 
ATOM     26  C   UNL d   1     -42.442  14.597  20.999  0.00  0.00     0.100 A 
BRANCH  24  27
ATOM     27  C   UNL d   1     -43.752  13.047  21.792  0.00  0.00     0.064 A 
ATOM     28  C   UNL d   1     -44.479  13.416  21.748  0.00  0.00     0.018 A 
ATOM     29  C   UNL d   1     -45.161  13.022  21.967  0.00  0.00     0.002 A 
ATOM     30  C   UNL d   1     -45.111  12.243  22.235  0.00  0.00     0.000 A 
ATOM     31  C   UNL d   1     -44.374  11.866  22.281  0.00  0.00     0.002 A 
ATOM     32  C   UNL d   1     -43.701  12.267  22.060  0.00  0.00     0.018 A 
ENDBRANCH  24  27
ENDBRANCH  20  21
ENDBRANCH  19  20
ENDBRANCH  18  19
ENDBRANCH  10  18
TORSDOF 5
ENDMDL
MODEL 7
REMARK VINA RESULT:      -1.1      4.253      7.038
REMARK  5 active torsions:
REMARK  status: ('A' for Active; 'I' for Inactive)
REMARK    1  A    between atoms: C_22  and  N_10 
REMARK    2  A    between atoms: C_19  and  N_13 
REMARK    3  A    between atoms: N_14  and  C_26 
REMARK    4  A    between atoms: C_25  and  C_22 
REMARK    5  A    between atoms: C_26  and  C_25 
ROOT
ATOM      1  C   UNL d   1     -41.177  13.432  21.760  0.00  0.00     0.173 A 
ATOM      2  C   UNL d   1     -41.225  13.893  21.105  0.00  0.00     0.191 A 
ATOM      3  C   UNL d   1     -39.961  14.473  21.398  0.00  0.00     0.722 A 
ATOM      4  N   UNL d   1     -39.902  14.003  22.073  0.00  0.00    -0.131 N 
ATOM      5  N   UNL d   1     -40.623  14.418  20.915  0.00  0.00    -0.042 NA
ATOM      6  N   UNL d   1     -41.878  13.850  20.615  0.00  0.00    -0.240 N 
ATOM      7  N   UNL d   1     -42.418  12.835  21.510  0.00  0.00    -0.223 N 
ATOM      8  C   UNL d   1     -42.480  13.318  20.816  0.00  0.00     0.343 A 
ATOM      9  C   UNL d   1     -41.757  12.896  21.985  0.00  0.00     0.288 A 
ATOM     10  N   UNL d   1     -39.352  15.001  21.208  0.00  0.00    -0.139 N 
ATOM     11  C   UNL d   1     -38.628  14.587  22.367  0.00  0.00     0.116 A 
ATOM     12  C   UNL d   1     -38.687  15.057  21.692  0.00  0.00     0.100 A 
ATOM     13  O   UNL d   1     -43.154  13.285  20.293  0.00  0.00    -0.245 OA
ATOM     14  O   UNL d   1     -41.697  12.426  22.659  0.00  0.00    -0.265 OA
ATOM     15  C   UNL d   1     -41.937  14.321  19.940  0.00  0.00     0.105 C 
ATOM     16  C   UNL d   1     -43.013  12.313  21.703  0.00  0.00     0.107 C 
ATOM     17  C   UNL d   1     -38.090  15.593  21.481  0.00  0.00     0.021 C 
ENDROOT
BRANCH  10  18
ATOM     18  C   UNL d   1     -39.408  15.473  20.534  0.00  0.00     0.100 C 
BRANCH  18  19
ATOM     19  C   UNL d   1     -38.959  15.296  19.858  0.00  0.00     0.039 C 
BRANCH  19  20
ATOM     20  C   UNL d   1     -38.991  15.783  19.208  0.00  0.00     0.082 C 
BRANCH  20  21
ATOM     21  N   UNL d   1     -38.815  15.487  18.461  0.00  0.00    -0.300 N 
ATOM     22  C   UNL d   1     -39.253  15.739  17.809  0.00  0.00     0.100 A 
ATOM     23  C   UNL d   1     -39.076  15.442  17.067  0.00  0.00     0.100 A 
ATOM     24  N   UNL d   1     -38.468  14.899  16.974  0.00  0.00    -0.301 N 
ATOM     25  C   UNL d   1     -38.038  14.654  17.625  0.00  0.00     0.100 A 
ATOM     26  C   UNL d   1     -38.210  14.948  18.378  0.00  0.00     0.100 A 
BRANCH  24  27
ATOM     27  C   UNL d   1     -38.292  14.603  16.228  0.00  0.00     0.064 A 
ATOM     28  C   UNL d   1     -38.227  13.797  16.110  0.00  0.00     0.018 A 
ATOM     29  C   UNL d   1     -38.052  13.496  15.371  0.00  0.00     0.002 A 
ATOM     30  C   UNL d   1     -37.940  14.015  14.738  0.00  0.00     0.000 A 
ATOM     31  C   UNL d   1     -38.005  14.832  14.856  0.00  0.00     0.002 A 
ATOM     32  C   UNL d   1     -38.180  15.122  15.596  0.00  0.00     0.018 A 
ENDBRANCH  24  27
ENDBRANCH  20  21
ENDBRANCH  19  20
ENDBRANCH  18  19
ENDBRANCH  10  18
TORSDOF 5
ENDMDL
