MODEL 1
REMARK VINA RESULT:      24.8      0.000      0.000
REMARK  5 active torsions:
REMARK  status: ('A' for Active; 'I' for Inactive)
REMARK    1  A    between atoms: C_9  and  N_2 
REMARK    2  A    between atoms: C_7  and  O_10 
REMARK    3  A    between atoms: O_11  and  C_8 
REMARK    4  A    between atoms: C_12  and  C_9 
REMARK    5  A    between atoms: O_10  and  C_12 
ROOT
ATOM      1  C   UNL d   1      13.088  12.726  -3.179  0.00  0.00     0.110 C 
ENDROOT
BRANCH   1   2
ATOM      2  N   UNL d   1      13.113  13.035  -3.943  0.00  0.00    -0.266 N 
ATOM      3  C   UNL d   1      13.108  12.598  -4.640  0.00  0.00     0.296 A 
ATOM      4  S   UNL d   1      13.141  13.139  -5.279  0.00  0.00    -0.025 SA
ATOM      5  O   UNL d   1      13.077  11.780  -4.705  0.00  0.00    -0.259 OA
ATOM      6  C   UNL d   1      13.165  13.903  -4.961  0.00  0.00     0.050 A 
ATOM      7  C   UNL d   1      13.201  14.647  -5.325  0.00  0.00     0.008 A 
ATOM      8  C   UNL d   1      13.149  13.839  -4.143  0.00  0.00     0.074 A 
ATOM      9  C   UNL d   1      13.219  15.326  -4.848  0.00  0.00     0.001 A 
ATOM     10  C   UNL d   1      13.202  15.262  -4.030  0.00  0.00     0.002 A 
ATOM     11  C   UNL d   1      13.167  14.518  -3.670  0.00  0.00     0.018 A 
ENDBRANCH   1   2
BRANCH   1  12
ATOM     12  C   UNL d   1      13.318  11.950  -3.034  0.00  0.00     0.142 C 
BRANCH  12  13
ATOM     13  O   UNL d   1      13.950  11.779  -2.528  0.00  0.00    -0.302 OA
BRANCH  13  14
ATOM     14  C   UNL d   1      13.844  11.796  -1.709  0.00  0.00     0.122 A 
ATOM     15  C   UNL d   1      14.501  11.827  -1.211  0.00  0.00     0.117 A 
ATOM     16  C   UNL d   1      14.395  11.843  -0.397  0.00  0.00     0.026 A 
ATOM     17  C   UNL d   1      13.633  11.829  -0.082  0.00  0.00     0.002 A 
ATOM     18  C   UNL d   1      12.976  11.797  -0.586  0.00  0.00     0.002 A 
ATOM     19  C   UNL d   1      13.090  11.781  -1.400  0.00  0.00     0.027 A 
BRANCH  15  20
ATOM     20  O   UNL d   1      15.280  11.843  -1.497  0.00  0.00    -0.326 OA
ATOM     21  C   UNL d   1      15.881  12.161  -1.027  0.00  0.00     0.181 C 
ENDBRANCH  15  20
ENDBRANCH  13  14
ENDBRANCH  12  13
ENDBRANCH   1  12
TORSDOF 5
ENDMDL
MODEL 2
REMARK VINA RESULT:      27.0      1.112      1.978
REMARK  5 active torsions:
REMARK  status: ('A' for Active; 'I' for Inactive)
REMARK    1  A    between atoms: C_9  and  N_2 
REMARK    2  A    between atoms: C_7  and  O_10 
REMARK    3  A    between atoms: O_11  and  C_8 
REMARK    4  A    between atoms: C_12  and  C_9 
REMARK    5  A    between atoms: O_10  and  C_12 
ROOT
ATOM      1  C   UNL d   1      13.642  13.106  -2.806  0.00  0.00     0.110 C 
ENDROOT
BRANCH   1   2
ATOM      2  N   UNL d   1      13.433  13.384  -3.555  0.00  0.00    -0.266 N 
ATOM      3  C   UNL d   1      13.396  14.173  -3.783  0.00  0.00     0.296 A 
ATOM      4  S   UNL d   1      13.160  14.194  -4.587  0.00  0.00    -0.025 SA
ATOM      5  O   UNL d   1      13.559  14.826  -3.313  0.00  0.00    -0.259 OA
ATOM      6  C   UNL d   1      13.056  13.412  -4.839  0.00  0.00     0.050 A 
ATOM      7  C   UNL d   1      12.828  13.099  -5.572  0.00  0.00     0.008 A 
ATOM      8  C   UNL d   1      13.223  12.916  -4.206  0.00  0.00     0.074 A 
ATOM      9  C   UNL d   1      12.772  12.275  -5.655  0.00  0.00     0.001 A 
ATOM     10  C   UNL d   1      12.939  11.779  -5.023  0.00  0.00     0.002 A 
ATOM     11  C   UNL d   1      13.166  12.095  -4.292  0.00  0.00     0.018 A 
ENDBRANCH   1   2
BRANCH   1  12
ATOM     12  C   UNL d   1      13.886  12.328  -2.704  0.00  0.00     0.142 C 
BRANCH  12  13
ATOM     13  O   UNL d   1      13.718  11.916  -2.007  0.00  0.00    -0.302 OA
BRANCH  13  14
ATOM     14  C   UNL d   1      14.280  11.870  -1.403  0.00  0.00     0.122 A 
ATOM     15  C   UNL d   1      14.036  11.861  -0.615  0.00  0.00     0.117 A 
ATOM     16  C   UNL d   1      14.595  11.816  -0.016  0.00  0.00     0.026 A 
ATOM     17  C   UNL d   1      15.398  11.781  -0.206  0.00  0.00     0.002 A 
ATOM     18  C   UNL d   1      15.638  11.790  -0.999  0.00  0.00     0.002 A 
ATOM     19  C   UNL d   1      15.072  11.835  -1.593  0.00  0.00     0.027 A 
BRANCH  15  20
ATOM     20  O   UNL d   1      13.237  11.895  -0.393  0.00  0.00    -0.326 OA
ATOM     21  C   UNL d   1      12.891  12.628  -0.231  0.00  0.00     0.181 C 
ENDBRANCH  15  20
ENDBRANCH  13  14
ENDBRANCH  12  13
ENDBRANCH   1  12
TORSDOF 5
ENDMDL
