MODEL 1
REMARK VINA RESULT:      56.8      0.000      0.000
REMARK  1 active torsions:
REMARK  status: ('A' for Active; 'I' for Inactive)
REMARK    1  A    between atoms: C_13  and  N_5 
ROOT
ATOM      1  C   UNL d   1     -54.836-101.436 -42.534  0.00  0.00     0.170 A 
ATOM      2  C   UNL d   1     -54.865-102.088 -42.075  0.00  0.00     0.093 A 
ATOM      3  C   UNL d   1     -54.824-102.028 -41.280  0.00  0.00     0.172 A 
ATOM      4  N   UNL d   1     -54.754-101.307 -40.945  0.00  0.00    -0.190 N 
ATOM      5  N   UNL d   1     -54.877-101.501 -43.337  0.00  0.00    -0.212 N 
ATOM      6  N   UNL d   1     -54.765-100.712 -42.195  0.00  0.00    -0.205 NA
ATOM      7  N   UNL d   1     -54.854-102.686 -40.822  0.00  0.00    -0.206 NA
ATOM      8  N   UNL d   1     -54.948-102.233 -43.664  0.00  0.00    -0.162 NA
ATOM      9  N   UNL d   1     -54.713-101.243 -40.152  0.00  0.00    -0.143 NA
ATOM     10  C   UNL d   1     -54.724-100.654 -41.404  0.00  0.00     0.203 A 
ATOM     11  C   UNL d   1     -54.976-102.880 -43.204  0.00  0.00     0.127 A 
ATOM     12  C   UNL d   1     -54.742-101.894 -39.699  0.00  0.00     0.184 A 
ATOM     13  C   UNL d   1     -54.715-102.048 -38.849  0.00  0.00     0.044 C 
ENDROOT
BRANCH   5  14
ATOM     14  C   UNL d   1     -54.847-100.829 -43.804  0.00  0.00     0.085 A 
ATOM     15  C   UNL d   1     -54.798-100.900 -44.610  0.00  0.00     0.019 A 
ATOM     16  C   UNL d   1     -54.767-100.217 -45.085  0.00  0.00     0.002 A 
ATOM     17  C   UNL d   1     -54.714-100.279 -45.944  0.00  0.00     0.000 C 
ATOM     18  C   UNL d   1     -54.786 -99.464 -44.733  0.00  0.00     0.000 A 
ATOM     19  C   UNL d   1     -54.837 -99.410 -43.906  0.00  0.00     0.002 A 
ATOM     20  C   UNL d   1     -54.755 -98.756 -45.210  0.00  0.00     0.000 C 
ATOM     21  C   UNL d   1     -54.867-100.086 -43.445  0.00  0.00     0.019 A 
ENDBRANCH   5  14
TORSDOF 1
ENDMDL
MODEL 2
REMARK VINA RESULT:      57.6      0.764      1.082
REMARK  1 active torsions:
REMARK  status: ('A' for Active; 'I' for Inactive)
REMARK    1  A    between atoms: C_13  and  N_5 
ROOT
ATOM      1  C   UNL d   1     -54.760-101.414 -41.455  0.00  0.00     0.170 A 
ATOM      2  C   UNL d   1     -54.738-102.057 -40.983  0.00  0.00     0.093 A 
ATOM      3  C   UNL d   1     -54.734-101.980 -40.189  0.00  0.00     0.172 A 
ATOM      4  N   UNL d   1     -54.752-101.251 -39.866  0.00  0.00    -0.190 N 
ATOM      5  N   UNL d   1     -54.764-101.496 -42.256  0.00  0.00    -0.212 N 
ATOM      6  N   UNL d   1     -54.778-100.681 -41.128  0.00  0.00    -0.205 NA
ATOM      7  N   UNL d   1     -54.711-102.630 -39.719  0.00  0.00    -0.206 NA
ATOM      8  N   UNL d   1     -54.745-102.236 -42.572  0.00  0.00    -0.162 NA
ATOM      9  N   UNL d   1     -54.748-101.170 -39.073  0.00  0.00    -0.143 NA
ATOM     10  C   UNL d   1     -54.774-100.606 -40.337  0.00  0.00     0.203 A 
ATOM     11  C   UNL d   1     -54.723-102.875 -42.100  0.00  0.00     0.127 A 
ATOM     12  C   UNL d   1     -54.726-101.812 -38.609  0.00  0.00     0.184 A 
ATOM     13  C   UNL d   1     -54.715-101.950 -37.756  0.00  0.00     0.044 C 
ENDROOT
BRANCH   5  14
ATOM     14  C   UNL d   1     -54.787-100.832 -42.736  0.00  0.00     0.085 A 
ATOM     15  C   UNL d   1     -54.882-100.915 -43.537  0.00  0.00     0.019 A 
ATOM     16  C   UNL d   1     -54.905-100.241 -44.024  0.00  0.00     0.002 A 
ATOM     17  C   UNL d   1     -55.006-100.316 -44.877  0.00  0.00     0.000 C 
ATOM     18  C   UNL d   1     -54.830 -99.483 -43.689  0.00  0.00     0.000 A 
ATOM     19  C   UNL d   1     -54.733 -99.416 -42.867  0.00  0.00     0.002 A 
ATOM     20  C   UNL d   1     -54.853 -98.783 -44.179  0.00  0.00     0.000 C 
ATOM     21  C   UNL d   1     -54.712-100.084 -42.394  0.00  0.00     0.019 A 
ENDBRANCH   5  14
TORSDOF 1
ENDMDL
MODEL 3
REMARK VINA RESULT:      58.2      3.656      4.281
REMARK  1 active torsions:
REMARK  status: ('A' for Active; 'I' for Inactive)
REMARK    1  A    between atoms: C_13  and  N_5 
ROOT
ATOM      1  C   UNL d   1     -58.195 -98.976 -43.636  0.00  0.00     0.170 A 
ATOM      2  C   UNL d   1     -58.956 -98.881 -43.414  0.00  0.00     0.093 A 
ATOM      3  C   UNL d   1     -59.155 -98.858 -42.641  0.00  0.00     0.172 A 
ATOM      4  N   UNL d   1     -58.584 -98.929 -42.088  0.00  0.00    -0.190 N 
ATOM      5  N   UNL d   1     -57.999 -98.999 -44.417  0.00  0.00    -0.212 N 
ATOM      6  N   UNL d   1     -57.623 -99.048 -43.078  0.00  0.00    -0.205 NA
ATOM      7  N   UNL d   1     -59.921 -98.763 -42.423  0.00  0.00    -0.206 NA
ATOM      8  N   UNL d   1     -58.582 -98.926 -44.967  0.00  0.00    -0.162 NA
ATOM      9  N   UNL d   1     -58.779 -98.906 -41.315  0.00  0.00    -0.143 NA
ATOM     10  C   UNL d   1     -57.823 -99.024 -42.309  0.00  0.00     0.203 A 
ATOM     11  C   UNL d   1     -59.338 -98.832 -44.743  0.00  0.00     0.127 A 
ATOM     12  C   UNL d   1     -59.536 -98.812 -41.099  0.00  0.00     0.184 A 
ATOM     13  C   UNL d   1     -59.954 -98.761 -40.345  0.00  0.00     0.044 C 
ENDROOT
BRANCH   5  14
ATOM     14  C   UNL d   1     -57.217 -99.096 -44.640  0.00  0.00     0.085 A 
ATOM     15  C   UNL d   1     -56.713 -99.523 -44.170  0.00  0.00     0.019 A 
ATOM     16  C   UNL d   1     -55.918 -99.622 -44.396  0.00  0.00     0.002 A 
ATOM     17  C   UNL d   1     -55.372-100.074 -43.905  0.00  0.00     0.000 C 
ATOM     18  C   UNL d   1     -55.642 -99.283 -45.104  0.00  0.00     0.000 A 
ATOM     19  C   UNL d   1     -56.172 -98.849 -45.574  0.00  0.00     0.002 A 
ATOM     20  C   UNL d   1     -54.828 -99.378 -45.347  0.00  0.00     0.000 C 
ATOM     21  C   UNL d   1     -56.952 -98.756 -45.344  0.00  0.00     0.019 A 
ENDBRANCH   5  14
TORSDOF 1
ENDMDL
