MODEL 1
REMARK VINA RESULT:      50.9      0.000      0.000
REMARK  3 active torsions:
REMARK  status: ('A' for Active; 'I' for Inactive)
REMARK    1  A    between atoms: N_2  and  S_1 
REMARK    2  A    between atoms: C_3  and  S_1 
REMARK    3  A    between atoms: O_17  and  C_11 
ROOT
ATOM      1  S   UNL d   1     -51.689  25.292  33.740  0.00  0.00     0.274 S 
ATOM      2  O   UNL d   1     -51.042  24.790  33.946  0.00  0.00    -0.199 OA
ATOM      3  O   UNL d   1     -52.318  25.811  33.540  0.00  0.00    -0.199 OA
ENDROOT
BRANCH   1   4
ATOM      4  N   UNL d   1     -51.205  25.956  33.882  0.00  0.00    -0.212 N 
ATOM      5  C   UNL d   1     -50.754  26.319  33.308  0.00  0.00     0.193 A 
ATOM      6  N   UNL d   1     -50.350  26.969  33.698  0.00  0.00    -0.223 NA
ATOM      7  C   UNL d   1     -50.571  26.972  34.484  0.00  0.00     0.100 A 
ATOM      8  C   UNL d   1     -51.114  26.330  34.605  0.00  0.00     0.094 A 
ATOM      9  C   UNL d   1     -50.366  27.459  35.118  0.00  0.00     0.021 A 
ATOM     10  C   UNL d   1     -51.426  26.205  35.357  0.00  0.00     0.020 A 
ATOM     11  C   UNL d   1     -51.215  26.697  35.985  0.00  0.00     0.002 A 
ATOM     12  C   UNL d   1     -50.691  27.321  35.881  0.00  0.00     0.002 A 
ENDBRANCH   1   4
BRANCH   1  13
ATOM     13  C   UNL d   1     -52.187  24.598  33.594  0.00  0.00     0.127 A 
ATOM     14  C   UNL d   1     -52.993  24.686  33.611  0.00  0.00     0.026 A 
ATOM     15  C   UNL d   1     -53.456  23.995  33.466  0.00  0.00     0.059 A 
ATOM     16 CL   UNL d   1     -54.297  24.080  33.482  0.00  0.00    -0.082 Cl
ATOM     17  C   UNL d   1     -53.105  23.267  33.316  0.00  0.00     0.013 A 
ATOM     18  C   UNL d   1     -52.268  23.210  33.306  0.00  0.00     0.026 A 
ATOM     19  C   UNL d   1     -51.814  23.880  33.446  0.00  0.00     0.106 A 
BRANCH  19  20
ATOM     20  O   UNL d   1     -50.974  23.795  33.430  0.00  0.00    -0.327 OA
ATOM     21  C   UNL d   1     -50.589  23.190  33.808  0.00  0.00     0.181 C 
ENDBRANCH  19  20
ENDBRANCH   1  13
TORSDOF 3
ENDMDL
