MODEL 1
REMARK VINA RESULT:      64.0      0.000      0.000
REMARK  3 active torsions:
REMARK  status: ('A' for Active; 'I' for Inactive)
REMARK    1  A    between atoms: C_2  and  C_1 
REMARK    2  A    between atoms: C_3  and  C_2 
REMARK    3  A    between atoms: C_8  and  C_2 
ROOT
ATOM      1  C   UNL d   1     -50.739  25.443  33.705  0.00  0.00     0.018 C 
ENDROOT
BRANCH   1   2
ATOM      2  C   UNL d   1     -50.897  26.255  33.631  0.00  0.00     0.078 A 
ATOM      3  C   UNL d   1     -51.734  26.525  33.424  0.00  0.00     0.195 A 
ATOM      4  C   UNL d   1     -51.807  27.321  33.369  0.00  0.00     0.019 A 
ATOM      5  O   UNL d   1     -52.295  26.153  33.311  0.00  0.00    -0.287 OA
ATOM      6  C   UNL d   1     -51.200  27.867  33.484  0.00  0.00     0.043 A 
ATOM      7  C   UNL d   1     -50.441  27.610  33.672  0.00  0.00     0.019 A 
ATOM      8  C   UNL d   1     -50.943  28.658  33.507  0.00  0.00     0.009 C 
ATOM      9  C   UNL d   1     -51.872  28.321  33.307  0.00  0.00     0.009 C 
ATOM     10  C   UNL d   1     -50.290  26.805  33.746  0.00  0.00     0.195 A 
ATOM     11  O   UNL d   1     -49.521  26.550  33.936  0.00  0.00    -0.287 OA
ENDBRANCH   1   2
BRANCH   1  12
ATOM     12  C   UNL d   1     -51.359  24.913  33.861  0.00  0.00     0.078 A 
ATOM     13  C   UNL d   1     -52.013  25.153  34.282  0.00  0.00     0.195 A 
ATOM     14  C   UNL d   1     -52.626  24.632  34.438  0.00  0.00     0.019 A 
ATOM     15  O   UNL d   1     -52.055  25.941  34.557  0.00  0.00    -0.287 OA
ATOM     16  C   UNL d   1     -52.587  23.859  34.169  0.00  0.00     0.043 A 
ATOM     17  C   UNL d   1     -51.926  23.601  33.738  0.00  0.00     0.019 A 
ATOM     18  C   UNL d   1     -53.076  23.192  34.212  0.00  0.00     0.009 C 
ATOM     19  C   UNL d   1     -53.323  23.831  34.547  0.00  0.00     0.009 C 
ATOM     20  C   UNL d   1     -51.307  24.131  33.583  0.00  0.00     0.195 A 
ATOM     21  O   UNL d   1     -50.922  23.945  33.320  0.00  0.00    -0.287 OA
ENDBRANCH   1  12
BRANCH   1  22
ATOM     22  C   UNL d   1     -49.977  25.163  33.627  0.00  0.00     0.030 A 
ATOM     23  S   UNL d   1     -49.289  25.501  33.312  0.00  0.00    -0.086 SA
ATOM     24  C   UNL d   1     -48.681  24.955  33.382  0.00  0.00     0.035 A 
ATOM     25  C   UNL d   1     -48.976  24.281  33.736  0.00  0.00     0.007 A 
ATOM     26  C   UNL d   1     -49.774  24.411  33.886  0.00  0.00     0.007 A 
ENDBRANCH   1  22
TORSDOF 3
ENDMDL
