MODEL 1
REMARK VINA RESULT:      52.3      0.000      0.000
REMARK  4 active torsions:
REMARK  status: ('A' for Active; 'I' for Inactive)
REMARK    1  A    between atoms: S_8  and  C_1 
REMARK    2  A    between atoms: C_2  and  S_7 
REMARK    3  A    between atoms: S_7  and  C_13 
REMARK    4  A    between atoms: C_13  and  S_8 
ROOT
ATOM      1  C   UNL d   1      59.746  49.034  51.107  0.00  0.00     0.128 C 
ENDROOT
BRANCH   1   2
ATOM      2  S   UNL d   1      60.562  48.917  51.070  0.00  0.00    -0.076 SA
BRANCH   2   3
ATOM      3  C   UNL d   1      60.828  48.203  50.795  0.00  0.00     0.137 A 
ATOM      4  N   UNL d   1      61.246  48.012  50.092  0.00  0.00    -0.232 NA
ATOM      5  C   UNL d   1      61.376  47.212  50.088  0.00  0.00     0.088 A 
ATOM      6  C   UNL d   1      61.749  46.702  49.559  0.00  0.00     0.020 A 
ATOM      7  C   UNL d   1      61.047  46.892  50.778  0.00  0.00     0.049 A 
ATOM      8  C   UNL d   1      61.796  45.910  49.704  0.00  0.00     0.002 A 
ATOM      9  C   UNL d   1      61.479  45.568  50.379  0.00  0.00     0.001 A 
ATOM     10  C   UNL d   1      61.096  46.079  50.925  0.00  0.00     0.008 A 
ATOM     11  S   UNL d   1      60.710  47.495  51.215  0.00  0.00    -0.060 SA
ENDBRANCH   2   3
ENDBRANCH   1   2
BRANCH   1  12
ATOM     12  S   UNL d   1      59.414  49.690  50.735  0.00  0.00    -0.076 SA
BRANCH  12  13
ATOM     13  C   UNL d   1      58.645  49.693  50.438  0.00  0.00     0.137 A 
ATOM     14  N   UNL d   1      57.982  49.690  50.878  0.00  0.00    -0.232 NA
ATOM     15  C   UNL d   1      57.354  49.695  50.360  0.00  0.00     0.088 A 
ATOM     16  C   UNL d   1      56.549  49.694  50.453  0.00  0.00     0.020 A 
ATOM     17  C   UNL d   1      57.672  49.701  49.600  0.00  0.00     0.049 A 
ATOM     18  C   UNL d   1      56.033  49.700  49.806  0.00  0.00     0.002 A 
ATOM     19  C   UNL d   1      56.361  49.707  49.024  0.00  0.00     0.001 A 
ATOM     20  C   UNL d   1      57.186  49.707  48.933  0.00  0.00     0.008 A 
ATOM     21  S   UNL d   1      58.492  49.700  49.662  0.00  0.00    -0.060 SA
ENDBRANCH  12  13
ENDBRANCH   1  12
TORSDOF 4
ENDMDL
MODEL 2
REMARK VINA RESULT:      52.7      0.501      4.726
REMARK  4 active torsions:
REMARK  status: ('A' for Active; 'I' for Inactive)
REMARK    1  A    between atoms: S_8  and  C_1 
REMARK    2  A    between atoms: C_2  and  S_7 
REMARK    3  A    between atoms: S_7  and  C_13 
REMARK    4  A    between atoms: C_13  and  S_8 
ROOT
ATOM      1  C   UNL d   1      59.883  48.975  51.218  0.00  0.00     0.128 C 
ENDROOT
BRANCH   1   2
ATOM      2  S   UNL d   1      59.533  49.705  51.063  0.00  0.00    -0.076 SA
BRANCH   2   3
ATOM      3  C   UNL d   1      58.793  49.705  50.733  0.00  0.00     0.137 A 
ATOM      4  N   UNL d   1      58.556  49.708  49.927  0.00  0.00    -0.232 NA
ATOM      5  C   UNL d   1      57.746  49.707  49.903  0.00  0.00     0.088 A 
ATOM      6  C   UNL d   1      57.198  49.708  49.289  0.00  0.00     0.020 A 
ATOM      7  C   UNL d   1      57.464  49.704  50.683  0.00  0.00     0.049 A 
ATOM      8  C   UNL d   1      56.404  49.706  49.436  0.00  0.00     0.002 A 
ATOM      9  C   UNL d   1      56.099  49.703  50.198  0.00  0.00     0.001 A 
ATOM     10  C   UNL d   1      56.650  49.702  50.832  0.00  0.00     0.008 A 
ATOM     11  S   UNL d   1      58.102  49.703  51.195  0.00  0.00    -0.060 SA
ENDBRANCH   2   3
ENDBRANCH   1   2
BRANCH   1  12
ATOM     12  S   UNL d   1      60.649  48.828  50.950  0.00  0.00    -0.076 SA
BRANCH  12  13
ATOM     13  C   UNL d   1      60.900  48.082  50.704  0.00  0.00     0.137 A 
ATOM     14  N   UNL d   1      61.454  47.943  50.151  0.00  0.00    -0.232 NA
ATOM     15  C   UNL d   1      61.526  47.134  50.085  0.00  0.00     0.088 A 
ATOM     16  C   UNL d   1      61.984  46.646  49.630  0.00  0.00     0.020 A 
ATOM     17  C   UNL d   1      60.993  46.805  50.621  0.00  0.00     0.049 A 
ATOM     18  C   UNL d   1      61.935  45.822  49.685  0.00  0.00     0.002 A 
ATOM     19  C   UNL d   1      61.388  45.483  50.236  0.00  0.00     0.001 A 
ATOM     20  C   UNL d   1      60.919  45.987  50.701  0.00  0.00     0.008 A 
ATOM     21  S   UNL d   1      60.602  47.416  51.008  0.00  0.00    -0.060 SA
ENDBRANCH  12  13
ENDBRANCH   1  12
TORSDOF 4
ENDMDL
