MODEL 1
REMARK VINA RESULT:      44.5      0.000      0.000
REMARK  4 active torsions:
REMARK  status: ('A' for Active; 'I' for Inactive)
REMARK    1  A    between atoms: C_5  and  N_1 
REMARK    2  A    between atoms: C_7  and  C_5 
REMARK    3  A    between atoms: O_14  and  C_10 
REMARK    4  A    between atoms: C_17  and  O_14 
ROOT
ATOM      1  N   UNL d   1     -57.608 -98.757 -44.509  0.00  0.00    -0.251 N 
ATOM      2  C   UNL d   1     -57.851 -98.758 -43.717  0.00  0.00     0.378 A 
ATOM      3  C   UNL d   1     -58.284 -98.758 -44.986  0.00  0.00     0.092 A 
ATOM      4  O   UNL d   1     -58.678 -98.760 -43.706  0.00  0.00    -0.258 OA
ATOM      5  C   UNL d   1     -58.944 -98.759 -44.490  0.00  0.00     0.121 A 
ATOM      6  O   UNL d   1     -57.361 -98.758 -43.056  0.00  0.00    -0.237 OA
ATOM      7  C   UNL d   1     -58.373 -98.757 -45.802  0.00  0.00     0.020 A 
ATOM      8  C   UNL d   1     -59.702 -98.760 -44.826  0.00  0.00     0.026 A 
ATOM      9  C   UNL d   1     -59.125 -98.758 -46.131  0.00  0.00     0.002 A 
ATOM     10  C   UNL d   1     -59.790 -98.760 -45.642  0.00  0.00     0.002 A 
ATOM     11  C   UNL d   1     -59.216 -98.757 -46.949  0.00  0.00     0.000 C 
ENDROOT
BRANCH   1  12
ATOM     12  C   UNL d   1     -56.840 -98.755 -44.810  0.00  0.00     0.087 C 
BRANCH  12  13
ATOM     13  C   UNL d   1     -56.285 -99.306 -44.541  0.00  0.00     0.041 A 
ATOM     14  C   UNL d   1     -55.578 -99.397 -44.930  0.00  0.00     0.102 A 
ATOM     15  C   UNL d   1     -55.030 -99.942 -44.663  0.00  0.00     0.025 A 
ATOM     16  C   UNL d   1     -55.192-100.401 -43.999  0.00  0.00     0.002 A 
ATOM     17  C   UNL d   1     -55.912-100.307 -43.605  0.00  0.00     0.000 A 
ATOM     18  C   UNL d   1     -56.460 -99.756 -43.879  0.00  0.00     0.004 A 
BRANCH  14  19
ATOM     19  O   UNL d   1     -55.408 -98.939 -45.598  0.00  0.00    -0.305 OA
BRANCH  19  20
ATOM     20  C   UNL d   1     -54.717 -99.077 -46.029  0.00  0.00     0.123 C 
ATOM     21  C   UNL d   1     -54.713 -98.977 -46.850  0.00  0.00     0.029 C 
ENDBRANCH  19  20
ENDBRANCH  14  19
ENDBRANCH  12  13
ENDBRANCH   1  12
TORSDOF 4
ENDMDL
