MODEL 1
REMARK VINA RESULT:      -5.5      0.000      0.000
REMARK  6 active torsions:
REMARK  status: ('A' for Active; 'I' for Inactive)
REMARK    1  A    between atoms: N_5  and  S_1 
REMARK    2  A    between atoms: C_6  and  S_1 
REMARK    3  A    between atoms: C_2  and  C_14 
REMARK    4  A    between atoms: C_8  and  N_5 
REMARK    5  A    between atoms: C_7  and  C_8 
REMARK       I    between atoms: N_11  and  C_7 
REMARK    6  A    between atoms: C_20  and  N_11 
ROOT
ATOM      1  C   UNL d   1     -43.812  13.052  21.544  0.00  0.00     0.298 C 
ATOM      2  N   UNL d   1     -43.212  13.533  21.828  0.00  0.00    -0.207 NA
ATOM      3  O   UNL d   1     -43.761  12.729  20.787  0.00  0.00    -0.264 OA
ENDROOT
BRANCH   1   4
ATOM      4  C   UNL d   1     -44.461  12.895  22.022  0.00  0.00     0.151 C 
ATOM      5  C   UNL d   1     -44.535  12.156  22.392  0.00  0.00     0.027 C 
BRANCH   4   6
ATOM      6  N   UNL d   1     -45.040  13.459  22.139  0.00  0.00    -0.153 NA
BRANCH   6   7
ATOM      7  S   UNL d   1     -45.773  13.253  22.457  0.00  0.00     0.285 S 
ATOM      8  O   UNL d   1     -46.050  13.073  21.701  0.00  0.00    -0.198 OA
ATOM      9  O   UNL d   1     -45.497  13.434  23.213  0.00  0.00    -0.198 OA
BRANCH   7  10
ATOM     10  C   UNL d   1     -46.503  13.048  22.772  0.00  0.00     0.105 A 
ATOM     11  C   UNL d   1     -47.093  13.615  22.826  0.00  0.00     0.012 A 
ATOM     12  C   UNL d   1     -47.835  13.410  23.145  0.00  0.00     0.001 A 
ATOM     13  C   UNL d   1     -46.947  14.395  22.560  0.00  0.00     0.001 C 
ATOM     14  C   UNL d   1     -47.974  12.646  23.404  0.00  0.00     0.000 A 
ATOM     15  C   UNL d   1     -47.379  12.076  23.350  0.00  0.00     0.001 A 
ATOM     16  C   UNL d   1     -46.642  12.284  23.031  0.00  0.00     0.013 A 
ATOM     17  C   UNL d   1     -47.521  11.298  23.614  0.00  0.00     0.000 C 
ENDBRANCH   7  10
ENDBRANCH   6   7
ENDBRANCH   4   6
ENDBRANCH   1   4
BRANCH   2  18
ATOM     18  C   UNL d   1     -42.557  13.693  21.352  0.00  0.00     0.085 A 
ATOM     19  C   UNL d   1     -42.462  14.447  21.038  0.00  0.00     0.019 A 
ATOM     20  C   UNL d   1     -41.806  14.623  20.555  0.00  0.00     0.004 A 
ATOM     21  C   UNL d   1     -41.249  14.041  20.391  0.00  0.00     0.024 A 
ATOM     22  C   UNL d   1     -41.342  13.283  20.706  0.00  0.00     0.004 A 
ATOM     23  C   UNL d   1     -41.991  13.104  21.185  0.00  0.00     0.019 A 
BRANCH  21  24
ATOM     24  C   UNL d   1     -40.599  14.229  19.909  0.00  0.00     0.111 A 
ATOM     25  N   UNL d   1     -40.571  14.048  19.109  0.00  0.00    -0.239 NA
ATOM     26  C   UNL d   1     -39.849  14.313  18.806  0.00  0.00     0.088 A 
ATOM     27  C   UNL d   1     -39.520  14.284  18.053  0.00  0.00     0.020 A 
ATOM     28  C   UNL d   1     -39.431  14.661  19.426  0.00  0.00     0.049 A 
ATOM     29  C   UNL d   1     -38.773  14.603  17.918  0.00  0.00     0.002 A 
ATOM     30  C   UNL d   1     -38.355  14.951  18.538  0.00  0.00     0.001 A 
ATOM     31  C   UNL d   1     -38.684  14.980  19.293  0.00  0.00     0.008 A 
ATOM     32  S   UNL d   1     -39.897  14.609  20.109  0.00  0.00    -0.066 SA
ENDBRANCH  21  24
ENDBRANCH   2  18
TORSDOF 6
ENDMDL
MODEL 2
REMARK VINA RESULT:      -5.2      1.462      7.111
REMARK  6 active torsions:
REMARK  status: ('A' for Active; 'I' for Inactive)
REMARK    1  A    between atoms: N_5  and  S_1 
REMARK    2  A    between atoms: C_6  and  S_1 
REMARK    3  A    between atoms: C_2  and  C_14 
REMARK    4  A    between atoms: C_8  and  N_5 
REMARK    5  A    between atoms: C_7  and  C_8 
REMARK       I    between atoms: N_11  and  C_7 
REMARK    6  A    between atoms: C_20  and  N_11 
ROOT
ATOM      1  C   UNL d   1     -43.710  12.959  21.440  0.00  0.00     0.298 C 
ATOM      2  N   UNL d   1     -44.048  13.151  22.163  0.00  0.00    -0.207 NA
ATOM      3  O   UNL d   1     -44.173  12.637  20.839  0.00  0.00    -0.264 OA
ENDROOT
BRANCH   1   4
ATOM      4  C   UNL d   1     -42.908  13.090  21.324  0.00  0.00     0.151 C 
ATOM      5  C   UNL d   1     -42.349  12.606  21.700  0.00  0.00     0.027 C 
BRANCH   4   6
ATOM      6  N   UNL d   1     -42.649  13.695  20.839  0.00  0.00    -0.153 NA
BRANCH   6   7
ATOM      7  S   UNL d   1     -41.853  13.913  20.824  0.00  0.00     0.285 S 
ATOM      8  O   UNL d   1     -41.675  13.234  20.391  0.00  0.00    -0.198 OA
ATOM      9  O   UNL d   1     -42.030  14.593  21.257  0.00  0.00    -0.198 OA
BRANCH   7  10
ATOM     10  C   UNL d   1     -41.061  14.130  20.808  0.00  0.00     0.105 A 
ATOM     11  C   UNL d   1     -40.762  14.517  20.151  0.00  0.00     0.012 A 
ATOM     12  C   UNL d   1     -39.959  14.738  20.131  0.00  0.00     0.001 A 
ATOM     13  C   UNL d   1     -41.264  14.688  19.503  0.00  0.00     0.001 C 
ATOM     14  C   UNL d   1     -39.471  14.569  20.767  0.00  0.00     0.000 A 
ATOM     15  C   UNL d   1     -39.774  14.179  21.429  0.00  0.00     0.001 A 
ATOM     16  C   UNL d   1     -40.573  13.960  21.444  0.00  0.00     0.013 A 
ATOM     17  C   UNL d   1     -39.277  14.007  22.076  0.00  0.00     0.000 C 
ENDBRANCH   7  10
ENDBRANCH   6   7
ENDBRANCH   4   6
ENDBRANCH   1   4
BRANCH   2  18
ATOM     18  C   UNL d   1     -44.853  13.021  22.285  0.00  0.00     0.085 A 
ATOM     19  C   UNL d   1     -45.104  12.298  22.584  0.00  0.00     0.019 A 
ATOM     20  C   UNL d   1     -45.914  12.151  22.712  0.00  0.00     0.004 A 
ATOM     21  C   UNL d   1     -46.468  12.734  22.539  0.00  0.00     0.024 A 
ATOM     22  C   UNL d   1     -46.219  13.461  22.238  0.00  0.00     0.004 A 
ATOM     23  C   UNL d   1     -45.417  13.611  22.109  0.00  0.00     0.019 A 
BRANCH  21  24
ATOM     24  C   UNL d   1     -47.273  12.576  22.671  0.00  0.00     0.111 A 
ATOM     25  N   UNL d   1     -47.840  12.630  22.081  0.00  0.00    -0.239 NA
ATOM     26  C   UNL d   1     -48.575  12.437  22.406  0.00  0.00     0.088 A 
ATOM     27  C   UNL d   1     -49.331  12.396  22.083  0.00  0.00     0.020 A 
ATOM     28  C   UNL d   1     -48.457  12.263  23.204  0.00  0.00     0.049 A 
ATOM     29  C   UNL d   1     -49.969  12.182  22.557  0.00  0.00     0.002 A 
ATOM     30  C   UNL d   1     -49.851  12.008  23.355  0.00  0.00     0.001 A 
ATOM     31  C   UNL d   1     -49.095  12.048  23.679  0.00  0.00     0.008 A 
ATOM     32  S   UNL d   1     -47.650  12.349  23.367  0.00  0.00    -0.066 SA
ENDBRANCH  21  24
ENDBRANCH   2  18
TORSDOF 6
ENDMDL
MODEL 3
REMARK VINA RESULT:      -4.7      1.310      2.004
REMARK  6 active torsions:
REMARK  status: ('A' for Active; 'I' for Inactive)
REMARK    1  A    between atoms: N_5  and  S_1 
REMARK    2  A    between atoms: C_6  and  S_1 
REMARK    3  A    between atoms: C_2  and  C_14 
REMARK    4  A    between atoms: C_8  and  N_5 
REMARK    5  A    between atoms: C_7  and  C_8 
REMARK       I    between atoms: N_11  and  C_7 
REMARK    6  A    between atoms: C_20  and  N_11 
ROOT
ATOM      1  C   UNL d   1     -45.453  13.234  22.354  0.00  0.00     0.298 C 
ATOM      2  N   UNL d   1     -44.978  12.696  21.957  0.00  0.00    -0.207 NA
ATOM      3  O   UNL d   1     -45.174  13.993  22.515  0.00  0.00    -0.264 OA
ENDROOT
BRANCH   1   4
ATOM      4  C   UNL d   1     -46.207  13.008  22.588  0.00  0.00     0.151 C 
ATOM      5  C   UNL d   1     -46.305  12.376  23.117  0.00  0.00     0.027 C 
BRANCH   4   6
ATOM      6  N   UNL d   1     -46.867  13.399  22.307  0.00  0.00    -0.153 NA
BRANCH   6   7
ATOM      7  S   UNL d   1     -47.620  13.076  22.399  0.00  0.00     0.285 S 
ATOM      8  O   UNL d   1     -47.715  13.498  23.102  0.00  0.00    -0.198 OA
ATOM      9  O   UNL d   1     -47.527  12.654  21.696  0.00  0.00    -0.198 OA
BRANCH   7  10
ATOM     10  C   UNL d   1     -48.371  12.755  22.492  0.00  0.00     0.105 A 
ATOM     11  C   UNL d   1     -48.988  13.032  22.029  0.00  0.00     0.012 A 
ATOM     12  C   UNL d   1     -49.750  12.709  22.121  0.00  0.00     0.001 A 
ATOM     13  C   UNL d   1     -48.849  13.637  21.467  0.00  0.00     0.001 C 
ATOM     14  C   UNL d   1     -49.882  12.118  22.671  0.00  0.00     0.000 A 
ATOM     15  C   UNL d   1     -49.260  11.840  23.138  0.00  0.00     0.001 A 
ATOM     16  C   UNL d   1     -48.503  12.164  23.043  0.00  0.00     0.013 A 
ATOM     17  C   UNL d   1     -49.395  11.238  23.698  0.00  0.00     0.000 C 
ENDBRANCH   7  10
ENDBRANCH   6   7
ENDBRANCH   4   6
ENDBRANCH   1   4
BRANCH   2  18
ATOM     18  C   UNL d   1     -44.219  12.918  21.720  0.00  0.00     0.085 A 
ATOM     19  C   UNL d   1     -44.097  13.672  21.415  0.00  0.00     0.019 A 
ATOM     20  C   UNL d   1     -43.336  13.911  21.171  0.00  0.00     0.004 A 
ATOM     21  C   UNL d   1     -42.703  13.390  21.236  0.00  0.00     0.024 A 
ATOM     22  C   UNL d   1     -42.824  12.633  21.542  0.00  0.00     0.004 A 
ATOM     23  C   UNL d   1     -43.575  12.391  21.784  0.00  0.00     0.019 A 
BRANCH  21  24
ATOM     24  C   UNL d   1     -41.950  13.640  20.990  0.00  0.00     0.111 A 
ATOM     25  N   UNL d   1     -41.755  13.757  20.202  0.00  0.00    -0.239 NA
ATOM     26  C   UNL d   1     -40.967  14.002  20.161  0.00  0.00     0.088 A 
ATOM     27  C   UNL d   1     -40.480  14.198  19.527  0.00  0.00     0.020 A 
ATOM     28  C   UNL d   1     -40.676  14.036  20.932  0.00  0.00     0.049 A 
ATOM     29  C   UNL d   1     -39.701  14.428  19.664  0.00  0.00     0.002 A 
ATOM     30  C   UNL d   1     -39.410  14.461  20.435  0.00  0.00     0.001 A 
ATOM     31  C   UNL d   1     -39.897  14.265  21.070  0.00  0.00     0.008 A 
ATOM     32  S   UNL d   1     -41.286  13.811  21.445  0.00  0.00    -0.066 SA
ENDBRANCH  21  24
ENDBRANCH   2  18
TORSDOF 6
ENDMDL
MODEL 4
REMARK VINA RESULT:      -4.4      1.468      7.062
REMARK  6 active torsions:
REMARK  status: ('A' for Active; 'I' for Inactive)
REMARK    1  A    between atoms: N_5  and  S_1 
REMARK    2  A    between atoms: C_6  and  S_1 
REMARK    3  A    between atoms: C_2  and  C_14 
REMARK    4  A    between atoms: C_8  and  N_5 
REMARK    5  A    between atoms: C_7  and  C_8 
REMARK       I    between atoms: N_11  and  C_7 
REMARK    6  A    between atoms: C_20  and  N_11 
ROOT
ATOM      1  C   UNL d   1     -41.642  14.085  20.715  0.00  0.00     0.298 C 
ATOM      2  N   UNL d   1     -41.973  13.334  20.724  0.00  0.00    -0.207 NA
ATOM      3  O   UNL d   1     -42.034  14.715  21.075  0.00  0.00    -0.264 OA
ENDROOT
BRANCH   1   4
ATOM      4  C   UNL d   1     -40.918  14.201  20.345  0.00  0.00     0.151 C 
ATOM      5  C   UNL d   1     -40.228  13.877  20.673  0.00  0.00     0.027 C 
BRANCH   4   6
ATOM      6  N   UNL d   1     -40.866  14.633  19.654  0.00  0.00    -0.153 NA
BRANCH   6   7
ATOM      7  S   UNL d   1     -40.341  14.413  19.056  0.00  0.00     0.285 S 
ATOM      8  O   UNL d   1     -39.745  14.853  19.417  0.00  0.00    -0.198 OA
ATOM      9  O   UNL d   1     -40.938  13.972  18.693  0.00  0.00    -0.198 OA
BRANCH   7  10
ATOM     10  C   UNL d   1     -39.819  14.195  18.461  0.00  0.00     0.105 A 
ATOM     11  C   UNL d   1     -39.824  14.602  17.750  0.00  0.00     0.012 A 
ATOM     12  C   UNL d   1     -39.295  14.383  17.144  0.00  0.00     0.001 A 
ATOM     13  C   UNL d   1     -40.360  15.235  17.636  0.00  0.00     0.001 C 
ATOM     14  C   UNL d   1     -38.772  13.764  17.260  0.00  0.00     0.000 A 
ATOM     15  C   UNL d   1     -38.768  13.354  17.977  0.00  0.00     0.001 A 
ATOM     16  C   UNL d   1     -39.296  13.575  18.577  0.00  0.00     0.013 A 
ATOM     17  C   UNL d   1     -38.236  12.723  18.094  0.00  0.00     0.000 C 
ENDBRANCH   7  10
ENDBRANCH   6   7
ENDBRANCH   4   6
ENDBRANCH   1   4
BRANCH   2  18
ATOM     18  C   UNL d   1     -42.700  13.213  21.095  0.00  0.00     0.085 A 
ATOM     19  C   UNL d   1     -42.841  12.501  21.482  0.00  0.00     0.019 A 
ATOM     20  C   UNL d   1     -43.571  12.365  21.861  0.00  0.00     0.004 A 
ATOM     21  C   UNL d   1     -44.154  12.944  21.849  0.00  0.00     0.024 A 
ATOM     22  C   UNL d   1     -44.014  13.659  21.461  0.00  0.00     0.004 A 
ATOM     23  C   UNL d   1     -43.293  13.800  21.084  0.00  0.00     0.019 A 
BRANCH  21  24
ATOM     24  C   UNL d   1     -44.876  12.796  22.231  0.00  0.00     0.111 A 
ATOM     25  N   UNL d   1     -45.005  12.136  22.701  0.00  0.00    -0.239 NA
ATOM     26  C   UNL d   1     -45.779  12.167  22.989  0.00  0.00     0.088 A 
ATOM     27  C   UNL d   1     -46.208  11.664  23.479  0.00  0.00     0.020 A 
ATOM     28  C   UNL d   1     -46.129  12.852  22.692  0.00  0.00     0.049 A 
ATOM     29  C   UNL d   1     -46.987  11.846  23.673  0.00  0.00     0.002 A 
ATOM     30  C   UNL d   1     -47.337  12.532  23.376  0.00  0.00     0.001 A 
ATOM     31  C   UNL d   1     -46.908  13.035  22.885  0.00  0.00     0.008 A 
ATOM     32  S   UNL d   1     -45.569  13.241  22.222  0.00  0.00    -0.066 SA
ENDBRANCH  21  24
ENDBRANCH   2  18
TORSDOF 6
ENDMDL
