MODEL 1
REMARK VINA RESULT:      64.6      0.000      0.000
REMARK  5 active torsions:
REMARK  status: ('A' for Active; 'I' for Inactive)
REMARK    1  A    between atoms: C_13  and  C_4 
REMARK    2  A    between atoms: S_11  and  C_5 
REMARK    3  A    between atoms: C_10  and  C_12 
REMARK    4  A    between atoms: C_15  and  S_11 
REMARK    5  A    between atoms: C_12  and  C_15 
ROOT
ATOM      1  N   UNL d   1      14.359  14.192  -1.824  0.00  0.00    -0.206 N 
ATOM      2  C   UNL d   1      14.076  13.656  -2.390  0.00  0.00     0.166 A 
ATOM      3  N   UNL d   1      14.273  15.226  -2.760  0.00  0.00    -0.163 NA
ATOM      4  C   UNL d   1      13.894  13.908  -3.138  0.00  0.00     0.055 A 
ATOM      5  C   UNL d   1      14.538  13.915  -1.070  0.00  0.00     0.116 A 
ATOM      6  C   UNL d   1      13.992  14.693  -3.323  0.00  0.00     0.104 A 
ATOM      7  N   UNL d   1      13.981  12.857  -2.186  0.00  0.00    -0.227 NA
ATOM      8  C   UNL d   1      14.446  13.137  -0.869  0.00  0.00     0.045 A 
ATOM      9  C   UNL d   1      14.164  12.601  -1.435  0.00  0.00     0.085 A 
ATOM     10  C   UNL d   1      13.810  14.955  -4.074  0.00  0.00     0.023 C 
ATOM     11  C   UNL d   1      14.064  11.779  -1.232  0.00  0.00     0.021 C 
ENDROOT
BRANCH   5  12
ATOM     12  S   UNL d   1      14.830  14.464  -0.483  0.00  0.00    -0.064 SA
BRANCH  12  13
ATOM     13  C   UNL d   1      15.043  15.183  -0.098  0.00  0.00     0.079 C 
BRANCH  13  14
ATOM     14  C   UNL d   1      15.743  15.593  -0.311  0.00  0.00     0.208 C 
ATOM     15  O   UNL d   1      16.479  15.183  -0.333  0.00  0.00    -0.285 OA
BRANCH  14  16
ATOM     16  C   UNL d   1      15.706  16.410  -0.502  0.00  0.00     0.069 A 
ATOM     17  S   UNL d   1      16.362  16.922  -0.669  0.00  0.00    -0.083 SA
ATOM     18  C   UNL d   1      16.054  17.698  -0.831  0.00  0.00     0.035 A 
ATOM     19  C   UNL d   1      15.217  17.666  -0.765  0.00  0.00     0.008 A 
ATOM     20  C   UNL d   1      14.998  16.873  -0.562  0.00  0.00     0.010 A 
ENDBRANCH  14  16
ENDBRANCH  13  14
ENDBRANCH  12  13
ENDBRANCH   5  12
BRANCH   4  21
ATOM     21  C   UNL d   1      13.614  13.378  -3.698  0.00  0.00     0.004 A 
ATOM     22  C   UNL d   1      13.882  12.598  -3.680  0.00  0.00     0.001 A 
ATOM     23  C   UNL d   1      13.604  12.070  -4.237  0.00  0.00     0.011 A 
ATOM     24  C   UNL d   1      13.063  12.332  -4.802  0.00  0.00     0.058 A 
ATOM     25  C   UNL d   1      12.803  13.088  -4.820  0.00  0.00     0.011 A 
ATOM     26 CL   UNL d   1      12.772  11.779  -5.386  0.00  0.00    -0.082 Cl
ATOM     27  C   UNL d   1      13.086  13.624  -4.254  0.00  0.00     0.001 A 
ENDBRANCH   4  21
TORSDOF 5
ENDMDL
MODEL 2
REMARK VINA RESULT:      65.3      3.038      4.251
REMARK  5 active torsions:
REMARK  status: ('A' for Active; 'I' for Inactive)
REMARK    1  A    between atoms: C_13  and  C_4 
REMARK    2  A    between atoms: S_11  and  C_5 
REMARK    3  A    between atoms: C_10  and  C_12 
REMARK    4  A    between atoms: C_15  and  S_11 
REMARK    5  A    between atoms: C_12  and  C_15 
ROOT
ATOM      1  N   UNL d   1      13.818  14.695  -4.374  0.00  0.00    -0.206 N 
ATOM      2  C   UNL d   1      13.938  14.264  -3.676  0.00  0.00     0.166 A 
ATOM      3  N   UNL d   1      13.215  13.578  -4.961  0.00  0.00    -0.163 NA
ATOM      4  C   UNL d   1      13.695  13.492  -3.624  0.00  0.00     0.055 A 
ATOM      5  C   UNL d   1      14.072  15.477  -4.406  0.00  0.00     0.116 A 
ATOM      6  C   UNL d   1      13.334  13.150  -4.267  0.00  0.00     0.104 A 
ATOM      7  N   UNL d   1      14.308  14.626  -3.029  0.00  0.00    -0.227 NA
ATOM      8  C   UNL d   1      14.433  15.833  -3.777  0.00  0.00     0.045 A 
ATOM      9  C   UNL d   1      14.553  15.402  -3.079  0.00  0.00     0.085 A 
ATOM     10  C   UNL d   1      13.087  12.373  -4.222  0.00  0.00     0.023 C 
ATOM     11  C   UNL d   1      14.933  15.769  -2.410  0.00  0.00     0.021 C 
ENDROOT
BRANCH   5  12
ATOM     12  S   UNL d   1      13.951  15.924  -5.125  0.00  0.00    -0.064 SA
BRANCH  12  13
ATOM     13  C   UNL d   1      14.091  16.429  -5.785  0.00  0.00     0.079 C 
BRANCH  13  14
ATOM     14  C   UNL d   1      13.472  16.894  -6.109  0.00  0.00     0.208 C 
ATOM     15  O   UNL d   1      12.770  16.521  -6.388  0.00  0.00    -0.285 OA
BRANCH  14  16
ATOM     16  C   UNL d   1      13.557  17.728  -6.154  0.00  0.00     0.069 A 
ATOM     17  S   UNL d   1      12.962  18.286  -6.389  0.00  0.00    -0.083 SA
ATOM     18  C   UNL d   1      13.302  19.065  -6.348  0.00  0.00     0.035 A 
ATOM     19  C   UNL d   1      14.098  18.988  -6.090  0.00  0.00     0.008 A 
ATOM     20  C   UNL d   1      14.259  18.165  -5.970  0.00  0.00     0.010 A 
ENDBRANCH  14  16
ENDBRANCH  13  14
ENDBRANCH  12  13
ENDBRANCH   5  12
BRANCH   4  21
ATOM     21  C   UNL d   1      13.813  13.066  -2.934  0.00  0.00     0.004 A 
ATOM     22  C   UNL d   1      13.486  12.312  -2.867  0.00  0.00     0.001 A 
ATOM     23  C   UNL d   1      13.604  11.887  -2.180  0.00  0.00     0.011 A 
ATOM     24  C   UNL d   1      14.047  12.225  -1.571  0.00  0.00     0.058 A 
ATOM     25  C   UNL d   1      14.364  12.956  -1.635  0.00  0.00     0.011 A 
ATOM     26 CL   UNL d   1      14.170  11.780  -0.851  0.00  0.00    -0.082 Cl
ATOM     27  C   UNL d   1      14.244  13.387  -2.333  0.00  0.00     0.001 A 
ENDBRANCH   4  21
TORSDOF 5
ENDMDL
