MODEL 1
REMARK VINA RESULT:      -1.7      0.000      0.000
REMARK  6 active torsions:
REMARK  status: ('A' for Active; 'I' for Inactive)
REMARK    1  A    between atoms: C_6  and  C_1 
REMARK    2  A    between atoms: C_9  and  N_3 
REMARK    3  A    between atoms: C_17  and  C_9 
REMARK    4  A    between atoms: O_15  and  C_10 
REMARK    5  A    between atoms: O_16  and  C_17 
REMARK    6  A    between atoms: C_18  and  O_16 
ROOT
ATOM      1  C   UNL d   1      58.741   0.003  30.385  0.00  0.00     0.148 A 
ATOM      2  N   UNL d   1      59.338   0.584  30.393  0.00  0.00    -0.227 NA
ATOM      3  N   UNL d   1      58.957  -0.594  29.855  0.00  0.00    -0.287 N 
ATOM      4  C   UNL d   1      59.691  -0.392  29.528  0.00  0.00     0.083 A 
ATOM      5  C   UNL d   1      59.924   0.332  29.860  0.00  0.00     0.099 A 
ATOM      6  C   UNL d   1      60.187  -0.764  28.972  0.00  0.00     0.019 A 
ATOM      7  C   UNL d   1      60.647   0.679  29.636  0.00  0.00     0.021 A 
ATOM      8  C   UNL d   1      60.902  -0.419  28.751  0.00  0.00     0.002 A 
ATOM      9  C   UNL d   1      61.132   0.304  29.084  0.00  0.00     0.002 A 
ENDROOT
BRANCH   1  10
ATOM     10  C   UNL d   1      58.048   0.024  30.833  0.00  0.00     0.035 A 
ATOM     11  C   UNL d   1      57.484   0.608  30.689  0.00  0.00     0.005 A 
ATOM     12  C   UNL d   1      56.795   0.629  31.135  0.00  0.00     0.024 A 
ATOM     13  C   UNL d   1      56.662   0.070  31.727  0.00  0.00     0.094 A 
ATOM     14  C   UNL d   1      57.236  -0.524  31.874  0.00  0.00     0.024 A 
ATOM     15  C   UNL d   1      57.925  -0.541  31.424  0.00  0.00     0.005 A 
BRANCH  13  16
ATOM     16  O   UNL d   1      55.971   0.085  32.179  0.00  0.00    -0.328 OA
ATOM     17  C   UNL d   1      55.876   0.672  32.751  0.00  0.00     0.181 C 
ENDBRANCH  13  16
ENDBRANCH   1  10
BRANCH   3  18
ATOM     18  C   UNL d   1      58.414  -1.206  29.792  0.00  0.00     0.108 C 
BRANCH  18  19
ATOM     19  C   UNL d   1      58.493  -1.766  29.194  0.00  0.00     0.142 C 
BRANCH  19  20
ATOM     20  O   UNL d   1      58.164  -2.513  29.284  0.00  0.00    -0.302 OA
BRANCH  20  21
ATOM     21  C   UNL d   1      58.167  -3.040  28.654  0.00  0.00     0.123 C 
ATOM     22  C   UNL d   1      58.486  -3.797  28.754  0.00  0.00     0.029 C 
ENDBRANCH  20  21
ENDBRANCH  19  20
ENDBRANCH  18  19
ENDBRANCH   3  18
TORSDOF 6
ENDMDL
MODEL 2
REMARK VINA RESULT:      -1.5      1.420      2.695
REMARK  6 active torsions:
REMARK  status: ('A' for Active; 'I' for Inactive)
REMARK    1  A    between atoms: C_6  and  C_1 
REMARK    2  A    between atoms: C_9  and  N_3 
REMARK    3  A    between atoms: C_17  and  C_9 
REMARK    4  A    between atoms: O_15  and  C_10 
REMARK    5  A    between atoms: O_16  and  C_17 
REMARK    6  A    between atoms: C_18  and  O_16 
ROOT
ATOM      1  C   UNL d   1      57.717  -0.554  30.727  0.00  0.00     0.148 A 
ATOM      2  N   UNL d   1      57.508  -1.121  30.153  0.00  0.00    -0.227 NA
ATOM      3  N   UNL d   1      58.480  -0.280  30.566  0.00  0.00    -0.287 N 
ATOM      4  C   UNL d   1      58.755  -0.673  29.891  0.00  0.00     0.083 A 
ATOM      5  C   UNL d   1      58.158  -1.189  29.638  0.00  0.00     0.099 A 
ATOM      6  C   UNL d   1      59.470  -0.635  29.464  0.00  0.00     0.019 A 
ATOM      7  C   UNL d   1      58.275  -1.664  28.964  0.00  0.00     0.021 A 
ATOM      8  C   UNL d   1      59.585  -1.106  28.797  0.00  0.00     0.002 A 
ATOM      9  C   UNL d   1      58.986  -1.621  28.547  0.00  0.00     0.002 A 
ENDROOT
BRANCH   1  10
ATOM     10  C   UNL d   1      57.237  -0.309  31.352  0.00  0.00     0.035 A 
ATOM     11  C   UNL d   1      57.127  -0.803  32.003  0.00  0.00     0.005 A 
ATOM     12  C   UNL d   1      56.649  -0.559  32.625  0.00  0.00     0.024 A 
ATOM     13  C   UNL d   1      56.278   0.177  32.604  0.00  0.00     0.094 A 
ATOM     14  C   UNL d   1      56.389   0.680  31.942  0.00  0.00     0.024 A 
ATOM     15  C   UNL d   1      56.869   0.431  31.321  0.00  0.00     0.005 A 
BRANCH  13  16
ATOM     16  O   UNL d   1      55.796   0.428  33.226  0.00  0.00    -0.328 OA
ATOM     17  C   UNL d   1      55.069   0.058  33.348  0.00  0.00     0.181 C 
ENDBRANCH  13  16
ENDBRANCH   1  10
BRANCH   3  18
ATOM     18  C   UNL d   1      58.757   0.286  31.093  0.00  0.00     0.108 C 
BRANCH  18  19
ATOM     19  C   UNL d   1      59.562   0.453  31.132  0.00  0.00     0.142 C 
BRANCH  19  20
ATOM     20  O   UNL d   1      59.909   0.635  31.853  0.00  0.00    -0.302 OA
BRANCH  20  21
ATOM     21  C   UNL d   1      60.727   0.682  31.913  0.00  0.00     0.123 C 
ATOM     22  C   UNL d   1      61.095   0.533  32.639  0.00  0.00     0.029 C 
ENDBRANCH  20  21
ENDBRANCH  19  20
ENDBRANCH  18  19
ENDBRANCH   3  18
TORSDOF 6
ENDMDL
MODEL 3
REMARK VINA RESULT:      -1.4      1.735      4.398
REMARK  6 active torsions:
REMARK  status: ('A' for Active; 'I' for Inactive)
REMARK    1  A    between atoms: C_6  and  C_1 
REMARK    2  A    between atoms: C_9  and  N_3 
REMARK    3  A    between atoms: C_17  and  C_9 
REMARK    4  A    between atoms: O_15  and  C_10 
REMARK    5  A    between atoms: O_16  and  C_17 
REMARK    6  A    between atoms: C_18  and  O_16 
ROOT
ATOM      1  C   UNL d   1      57.377  -0.213  31.356  0.00  0.00     0.148 A 
ATOM      2  N   UNL d   1      56.668  -0.593  31.574  0.00  0.00    -0.227 NA
ATOM      3  N   UNL d   1      57.624   0.269  31.980  0.00  0.00    -0.287 N 
ATOM      4  C   UNL d   1      57.073   0.195  32.594  0.00  0.00     0.083 A 
ATOM      5  C   UNL d   1      56.487  -0.335  32.344  0.00  0.00     0.099 A 
ATOM      6  C   UNL d   1      57.019   0.536  33.353  0.00  0.00     0.019 A 
ATOM      7  C   UNL d   1      55.851  -0.522  32.848  0.00  0.00     0.021 A 
ATOM      8  C   UNL d   1      56.389   0.350  33.851  0.00  0.00     0.002 A 
ATOM      9  C   UNL d   1      55.804  -0.180  33.598  0.00  0.00     0.002 A 
ENDROOT
BRANCH   1  10
ATOM     10  C   UNL d   1      57.765  -0.305  30.633  0.00  0.00     0.035 A 
ATOM     11  C   UNL d   1      58.025  -1.052  30.399  0.00  0.00     0.005 A 
ATOM     12  C   UNL d   1      58.411  -1.144  29.681  0.00  0.00     0.024 A 
ATOM     13  C   UNL d   1      58.541  -0.494  29.190  0.00  0.00     0.094 A 
ATOM     14  C   UNL d   1      58.278   0.266  29.427  0.00  0.00     0.024 A 
ATOM     15  C   UNL d   1      57.891   0.353  30.148  0.00  0.00     0.005 A 
BRANCH  13  16
ATOM     16  O   UNL d   1      58.929  -0.580  28.465  0.00  0.00    -0.328 OA
ATOM     17  C   UNL d   1      59.747  -0.688  28.455  0.00  0.00     0.181 C 
ENDBRANCH  13  16
ENDBRANCH   1  10
BRANCH   3  18
ATOM     18  C   UNL d   1      58.321   0.680  31.838  0.00  0.00     0.108 C 
BRANCH  18  19
ATOM     19  C   UNL d   1      58.929   0.663  32.393  0.00  0.00     0.142 C 
BRANCH  19  20
ATOM     20  O   UNL d   1      59.712   0.682  32.145  0.00  0.00    -0.302 OA
BRANCH  20  21
ATOM     21  C   UNL d   1      60.317   0.594  32.695  0.00  0.00     0.123 C 
ATOM     22  C   UNL d   1      61.105   0.635  32.447  0.00  0.00     0.029 C 
ENDBRANCH  20  21
ENDBRANCH  19  20
ENDBRANCH  18  19
ENDBRANCH   3  18
TORSDOF 6
ENDMDL
MODEL 4
REMARK VINA RESULT:      -0.9      1.246      3.560
REMARK  6 active torsions:
REMARK  status: ('A' for Active; 'I' for Inactive)
REMARK    1  A    between atoms: C_6  and  C_1 
REMARK    2  A    between atoms: C_9  and  N_3 
REMARK    3  A    between atoms: C_17  and  C_9 
REMARK    4  A    between atoms: O_15  and  C_10 
REMARK    5  A    between atoms: O_16  and  C_17 
REMARK    6  A    between atoms: C_18  and  O_16 
ROOT
ATOM      1  C   UNL d   1      58.276   0.194  30.914  0.00  0.00     0.148 A 
ATOM      2  N   UNL d   1      58.143   0.652  31.599  0.00  0.00    -0.227 NA
ATOM      3  N   UNL d   1      57.700  -0.398  30.874  0.00  0.00    -0.287 N 
ATOM      4  C   UNL d   1      57.203  -0.317  31.532  0.00  0.00     0.083 A 
ATOM      5  C   UNL d   1      57.476   0.328  31.976  0.00  0.00     0.099 A 
ATOM      6  C   UNL d   1      56.535  -0.740  31.795  0.00  0.00     0.019 A 
ATOM      7  C   UNL d   1      57.084   0.547  32.677  0.00  0.00     0.021 A 
ATOM      8  C   UNL d   1      56.147  -0.521  32.488  0.00  0.00     0.002 A 
ATOM      9  C   UNL d   1      56.423   0.124  32.930  0.00  0.00     0.002 A 
ENDROOT
BRANCH   1  10
ATOM     10  C   UNL d   1      58.883   0.316  30.369  0.00  0.00     0.035 A 
ATOM     11  C   UNL d   1      58.702   0.544  29.597  0.00  0.00     0.005 A 
ATOM     12  C   UNL d   1      59.307   0.665  29.055  0.00  0.00     0.024 A 
ATOM     13  C   UNL d   1      60.094   0.561  29.276  0.00  0.00     0.094 A 
ATOM     14  C   UNL d   1      60.279   0.330  30.061  0.00  0.00     0.024 A 
ATOM     15  C   UNL d   1      59.669   0.210  30.601  0.00  0.00     0.005 A 
BRANCH  13  16
ATOM     16  O   UNL d   1      60.707   0.682  28.736  0.00  0.00    -0.328 OA
ATOM     17  C   UNL d   1      61.132   0.033  28.455  0.00  0.00     0.181 C 
ENDBRANCH  13  16
ENDBRANCH   1  10
BRANCH   3  18
ATOM     18  C   UNL d   1      57.765  -0.893  30.222  0.00  0.00     0.108 C 
BRANCH  18  19
ATOM     19  C   UNL d   1      57.804  -1.708  30.326  0.00  0.00     0.142 C 
BRANCH  19  20
ATOM     20  O   UNL d   1      57.859  -2.203  29.673  0.00  0.00    -0.302 OA
BRANCH  20  21
ATOM     21  C   UNL d   1      58.539  -2.650  29.555  0.00  0.00     0.123 C 
ATOM     22  C   UNL d   1      58.518  -3.301  29.044  0.00  0.00     0.029 C 
ENDBRANCH  20  21
ENDBRANCH  19  20
ENDBRANCH  18  19
ENDBRANCH   3  18
TORSDOF 6
ENDMDL
MODEL 5
REMARK VINA RESULT:      -0.9      2.205      5.146
REMARK  6 active torsions:
REMARK  status: ('A' for Active; 'I' for Inactive)
REMARK    1  A    between atoms: C_6  and  C_1 
REMARK    2  A    between atoms: C_9  and  N_3 
REMARK    3  A    between atoms: C_17  and  C_9 
REMARK    4  A    between atoms: O_15  and  C_10 
REMARK    5  A    between atoms: O_16  and  C_17 
REMARK    6  A    between atoms: C_18  and  O_16 
ROOT
ATOM      1  C   UNL d   1      56.451   0.106  32.454  0.00  0.00     0.148 A 
ATOM      2  N   UNL d   1      55.626  -0.008  32.482  0.00  0.00    -0.227 NA
ATOM      3  N   UNL d   1      56.707   0.380  33.191  0.00  0.00    -0.287 N 
ATOM      4  C   UNL d   1      56.045   0.441  33.685  0.00  0.00     0.083 A 
ATOM      5  C   UNL d   1      55.382   0.202  33.249  0.00  0.00     0.099 A 
ATOM      6  C   UNL d   1      55.948   0.681  34.477  0.00  0.00     0.019 A 
ATOM      7  C   UNL d   1      54.628   0.203  33.602  0.00  0.00     0.021 A 
ATOM      8  C   UNL d   1      55.201   0.682  34.826  0.00  0.00     0.002 A 
ATOM      9  C   UNL d   1      54.540   0.442  34.387  0.00  0.00     0.002 A 
ENDROOT
BRANCH   1  10
ATOM     10  C   UNL d   1      56.930  -0.034  31.797  0.00  0.00     0.035 A 
ATOM     11  C   UNL d   1      57.276   0.599  31.399  0.00  0.00     0.005 A 
ATOM     12  C   UNL d   1      57.753   0.460  30.745  0.00  0.00     0.024 A 
ATOM     13  C   UNL d   1      57.889  -0.310  30.482  0.00  0.00     0.094 A 
ATOM     14  C   UNL d   1      57.537  -0.956  30.887  0.00  0.00     0.024 A 
ATOM     15  C   UNL d   1      57.060  -0.810  31.542  0.00  0.00     0.005 A 
BRANCH  13  16
ATOM     16  O   UNL d   1      58.367  -0.457  29.825  0.00  0.00    -0.328 OA
ATOM     17  C   UNL d   1      58.659   0.179  29.388  0.00  0.00     0.181 C 
ENDBRANCH  13  16
ENDBRANCH   1  10
BRANCH   3  18
ATOM     18  C   UNL d   1      57.515   0.516  33.241  0.00  0.00     0.108 C 
BRANCH  18  19
ATOM     19  C   UNL d   1      57.861   0.678  33.970  0.00  0.00     0.142 C 
BRANCH  19  20
ATOM     20  O   UNL d   1      58.678   0.670  34.049  0.00  0.00    -0.302 OA
BRANCH  20  21
ATOM     21  C   UNL d   1      59.017   0.674  34.797  0.00  0.00     0.123 C 
ATOM     22  C   UNL d   1      59.840   0.644  34.875  0.00  0.00     0.029 C 
ENDBRANCH  20  21
ENDBRANCH  19  20
ENDBRANCH  18  19
ENDBRANCH   3  18
TORSDOF 6
ENDMDL
