MODEL 1
REMARK VINA RESULT:      14.4      0.000      0.000
REMARK  3 active torsions:
REMARK  status: ('A' for Active; 'I' for Inactive)
REMARK       I    between atoms: C_6  and  N_9 
REMARK    1  A    between atoms: C_7  and  C_6 
REMARK    2  A    between atoms: N_9  and  C_17 
REMARK    3  A    between atoms: C_17  and  C_16 
ROOT
ATOM      1  N   UNL d   1      46.432 -18.921  42.819  0.00  0.00    -0.304 N 
ATOM      2  C   UNL d   1      46.428 -19.540  43.359  0.00  0.00     0.064 A 
ATOM      3  C   UNL d   1      46.234 -18.230  43.218  0.00  0.00     0.064 A 
ATOM      4  C   UNL d   1      46.107 -18.428  44.007  0.00  0.00     0.018 A 
ATOM      5  C   UNL d   1      46.226 -19.231  44.093  0.00  0.00     0.019 A 
ATOM      6  C   UNL d   1      46.154 -17.451  42.963  0.00  0.00     0.018 A 
ATOM      7  C   UNL d   1      45.895 -17.834  44.553  0.00  0.00     0.003 A 
ATOM      8  C   UNL d   1      45.814 -17.053  44.299  0.00  0.00     0.019 A 
ATOM      9  C   UNL d   1      45.944 -16.861  43.500  0.00  0.00     0.003 A 
ATOM     10  C   UNL d   1      46.606 -18.978  42.015  0.00  0.00     0.099 C 
ATOM     11  C   UNL d   1      46.595 -20.330  43.196  0.00  0.00     0.019 C 
ENDROOT
BRANCH   8  12
ATOM     12  C   UNL d   1      45.606 -16.466  44.836  0.00  0.00     0.102 C 
BRANCH  12  13
ATOM     13  N   UNL d   1      45.833 -15.692  44.713  0.00  0.00    -0.206 NA
ATOM     14  C   UNL d   1      45.293 -15.080  44.770  0.00  0.00     0.285 C 
ATOM     15  O   UNL d   1      44.507 -15.247  44.954  0.00  0.00    -0.265 OA
BRANCH  14  16
ATOM     16  C   UNL d   1      45.522 -14.297  44.646  0.00  0.00     0.087 A 
ATOM     17  S   UNL d   1      45.120 -13.733  44.197  0.00  0.00    -0.082 SA
ATOM     18  C   UNL d   1      45.550 -13.033  44.230  0.00  0.00     0.036 A 
ATOM     19  C   UNL d   1      46.223 -13.154  44.698  0.00  0.00     0.008 A 
ATOM     20  C   UNL d   1      46.201 -13.938  44.954  0.00  0.00     0.012 A 
ENDBRANCH  14  16
ENDBRANCH  12  13
ENDBRANCH   8  12
TORSDOF 3
ENDMDL
