MODEL 1
REMARK VINA RESULT:      20.4      0.000      0.000
REMARK  3 active torsions:
REMARK  status: ('A' for Active; 'I' for Inactive)
REMARK    1  A    between atoms: S_4  and  C_1 
REMARK    2  A    between atoms: N_2  and  C_5 
REMARK    3  A    between atoms: C_9  and  S_4 
ROOT
ATOM      1  C   UNL d   1      13.643  12.852  -3.329  0.00  0.00     0.133 A 
ATOM      2  C   UNL d   1      13.932  12.739  -2.539  0.00  0.00     0.051 A 
ATOM      3  C   UNL d   1      13.659  13.646  -3.617  0.00  0.00     0.024 A 
ATOM      4  C   UNL d   1      14.203  13.369  -2.102  0.00  0.00     0.008 A 
ATOM      5  C   UNL d   1      13.934  14.250  -3.157  0.00  0.00     0.002 A 
ATOM      6  C   UNL d   1      14.206  14.138  -2.409  0.00  0.00     0.001 A 
ENDROOT
BRANCH   2   7
ATOM      7  S   UNL d   1      13.948  11.982  -2.188  0.00  0.00    -0.082 SA
BRANCH   7   8
ATOM      8  C   UNL d   1      14.146  11.907  -1.400  0.00  0.00     0.068 A 
ATOM      9  C   UNL d   1      13.700  11.839  -0.712  0.00  0.00     0.110 A 
ATOM     10  N   UNL d   1      14.198  11.781  -0.098  0.00  0.00    -0.147 NA
ATOM     11  C   UNL d   1      12.858  11.834  -0.696  0.00  0.00     0.023 C 
ATOM     12  N   UNL d   1      14.948  11.807  -0.343  0.00  0.00    -0.147 NA
ATOM     13  C   UNL d   1      14.936  11.888  -1.179  0.00  0.00     0.110 A 
ATOM     14  C   UNL d   1      15.587  11.939  -1.689  0.00  0.00     0.023 C 
ENDBRANCH   7   8
ENDBRANCH   2   7
BRANCH   1  15
ATOM     15  N   UNL d   1      13.356  12.246  -3.822  0.00  0.00    -0.113 N 
ATOM     16  O   UNL d   1      12.773  11.779  -3.569  0.00  0.00    -0.532 OA
ATOM     17  O   UNL d   1      13.693  12.144  -4.582  0.00  0.00    -0.532 OA
ENDBRANCH   1  15
TORSDOF 3
ENDMDL
