MODEL 1
REMARK VINA RESULT:     -10.1      0.000      0.000
REMARK  4 active torsions:
REMARK  status: ('A' for Active; 'I' for Inactive)
REMARK    1  A    between atoms: C_17  and  N_3 
REMARK    2  A    between atoms: C_9  and  C_5 
REMARK    3  A    between atoms: O_21  and  C_12 
REMARK    4  A    between atoms: C_19  and  C_17 
ROOT
ATOM      1  C   UNL d   1      52.751  32.740  53.416  0.00  0.00     0.083 A 
ATOM      2  C   UNL d   1      53.364  32.733  53.962  0.00  0.00     0.161 A 
ATOM      3  N   UNL d   1      52.940  34.013  53.860  0.00  0.00    -0.272 N 
ATOM      4  C   UNL d   1      53.483  33.504  54.236  0.00  0.00     0.288 A 
ATOM      5  C   UNL d   1      52.479  33.547  53.348  0.00  0.00     0.072 A 
ATOM      6  C   UNL d   1      52.504  32.045  53.044  0.00  0.00     0.201 A 
ATOM      7  O   UNL d   1      53.740  32.009  54.141  0.00  0.00    -0.302 OA
ATOM      8  C   UNL d   1      52.879  31.329  53.224  0.00  0.00     0.062 A 
ATOM      9  C   UNL d   1      53.502  31.311  53.777  0.00  0.00     0.103 A 
ATOM     10  O   UNL d   1      54.049  33.742  54.793  0.00  0.00    -0.264 OA
ATOM     11  O   UNL d   1      51.887  32.063  52.497  0.00  0.00    -0.286 OA
ATOM     12  C   UNL d   1      52.636  30.628  52.854  0.00  0.00     0.005 A 
ATOM     13  C   UNL d   1      53.875  30.591  53.954  0.00  0.00     0.025 A 
ATOM     14  C   UNL d   1      53.014  29.915  53.038  0.00  0.00     0.000 A 
ATOM     15  C   UNL d   1      53.631  29.897  53.585  0.00  0.00     0.002 A 
ENDROOT
BRANCH   5  16
ATOM     16  C   UNL d   1      51.871  33.811  52.862  0.00  0.00     0.019 A 
ATOM     17  C   UNL d   1      51.114  33.894  53.161  0.00  0.00     0.029 A 
ATOM     18  C   UNL d   1      50.498  34.157  52.684  0.00  0.00     0.133 A 
ATOM     19  C   UNL d   1      50.649  34.339  51.894  0.00  0.00     0.218 A 
ATOM     20  C   UNL d   1      51.417  34.256  51.588  0.00  0.00     0.044 A 
ATOM     21  O   UNL d   1      50.038  34.604  51.405  0.00  0.00    -0.284 OA
ATOM     22  C   UNL d   1      52.019  33.993  52.073  0.00  0.00     0.005 A 
BRANCH  18  23
ATOM     23  O   UNL d   1      49.741  34.240  52.984  0.00  0.00    -0.325 OA
ATOM     24  C   UNL d   1      49.512  34.951  53.341  0.00  0.00     0.181 C 
ENDBRANCH  18  23
ENDBRANCH   5  16
BRANCH   3  25
ATOM     25  C   UNL d   1      52.866  34.826  53.971  0.00  0.00     0.083 C 
BRANCH  25  26
ATOM     26  C   UNL d   1      53.231  35.190  54.612  0.00  0.00     0.019 C 
ATOM     27  C   UNL d   1      53.136  35.999  54.736  0.00  0.00     0.002 C 
ENDBRANCH  25  26
ENDBRANCH   3  25
TORSDOF 4
ENDMDL
MODEL 2
REMARK VINA RESULT:      -9.0      1.374      4.299
REMARK  4 active torsions:
REMARK  status: ('A' for Active; 'I' for Inactive)
REMARK    1  A    between atoms: C_17  and  N_3 
REMARK    2  A    between atoms: C_9  and  C_5 
REMARK    3  A    between atoms: O_21  and  C_12 
REMARK    4  A    between atoms: C_19  and  C_17 
ROOT
ATOM      1  C   UNL d   1      52.500  32.881  53.458  0.00  0.00     0.083 A 
ATOM      2  C   UNL d   1      52.066  32.341  53.017  0.00  0.00     0.161 A 
ATOM      3  N   UNL d   1      53.153  31.686  53.483  0.00  0.00    -0.272 N 
ATOM      4  C   UNL d   1      52.458  31.613  53.028  0.00  0.00     0.288 A 
ATOM      5  C   UNL d   1      53.189  32.471  53.755  0.00  0.00     0.072 A 
ATOM      6  C   UNL d   1      52.246  33.661  53.548  0.00  0.00     0.201 A 
ATOM      7  O   UNL d   1      51.355  32.591  52.656  0.00  0.00    -0.302 OA
ATOM      8  C   UNL d   1      51.541  33.905  53.189  0.00  0.00     0.062 A 
ATOM      9  C   UNL d   1      51.092  33.366  52.739  0.00  0.00     0.103 A 
ATOM     10  O   UNL d   1      52.208  30.919  52.652  0.00  0.00    -0.264 OA
ATOM     11  O   UNL d   1      52.690  34.195  53.993  0.00  0.00    -0.286 OA
ATOM     12  C   UNL d   1      51.279  34.687  53.275  0.00  0.00     0.005 A 
ATOM     13  C   UNL d   1      50.386  33.615  52.381  0.00  0.00     0.025 A 
ATOM     14  C   UNL d   1      50.574  34.926  52.914  0.00  0.00     0.000 A 
ATOM     15  C   UNL d   1      50.129  34.392  52.469  0.00  0.00     0.002 A 
ENDROOT
BRANCH   5  16
ATOM     16  C   UNL d   1      53.779  32.799  54.225  0.00  0.00     0.019 A 
ATOM     17  C   UNL d   1      54.461  33.091  53.881  0.00  0.00     0.029 A 
ATOM     18  C   UNL d   1      55.058  33.420  54.341  0.00  0.00     0.133 A 
ATOM     19  C   UNL d   1      54.964  33.456  55.159  0.00  0.00     0.218 A 
ATOM     20  C   UNL d   1      54.271  33.160  55.511  0.00  0.00     0.044 A 
ATOM     21  O   UNL d   1      55.555  33.785  55.632  0.00  0.00    -0.284 OA
ATOM     22  C   UNL d   1      53.687  32.835  55.041  0.00  0.00     0.005 A 
BRANCH  18  23
ATOM     23  O   UNL d   1      55.741  33.713  53.997  0.00  0.00    -0.325 OA
ATOM     24  C   UNL d   1      55.939  33.499  53.222  0.00  0.00     0.181 C 
ENDBRANCH  18  23
ENDBRANCH   5  16
BRANCH   3  25
ATOM     25  C   UNL d   1      53.707  31.096  53.638  0.00  0.00     0.083 C 
BRANCH  25  26
ATOM     26  C   UNL d   1      53.504  30.304  53.541  0.00  0.00     0.019 C 
ATOM     27  C   UNL d   1      54.050  29.713  53.720  0.00  0.00     0.002 C 
ENDBRANCH  25  26
ENDBRANCH   3  25
TORSDOF 4
ENDMDL
MODEL 3
REMARK VINA RESULT:      -8.9      1.274      3.156
REMARK  4 active torsions:
REMARK  status: ('A' for Active; 'I' for Inactive)
REMARK    1  A    between atoms: C_17  and  N_3 
REMARK    2  A    between atoms: C_9  and  C_5 
REMARK    3  A    between atoms: O_21  and  C_12 
REMARK    4  A    between atoms: C_19  and  C_17 
ROOT
ATOM      1  C   UNL d   1      53.183  31.769  53.530  0.00  0.00     0.083 A 
ATOM      2  C   UNL d   1      52.550  31.623  53.028  0.00  0.00     0.161 A 
ATOM      3  N   UNL d   1      52.769  32.956  53.008  0.00  0.00    -0.272 N 
ATOM      4  C   UNL d   1      52.294  32.341  52.708  0.00  0.00     0.288 A 
ATOM      5  C   UNL d   1      53.325  32.611  53.521  0.00  0.00     0.072 A 
ATOM      6  C   UNL d   1      53.558  31.154  53.933  0.00  0.00     0.201 A 
ATOM      7  O   UNL d   1      52.285  30.836  52.927  0.00  0.00    -0.302 OA
ATOM      8  C   UNL d   1      53.292  30.376  53.830  0.00  0.00     0.062 A 
ATOM      9  C   UNL d   1      52.651  30.216  53.324  0.00  0.00     0.103 A 
ATOM     10  O   UNL d   1      51.668  32.441  52.175  0.00  0.00    -0.264 OA
ATOM     11  O   UNL d   1      54.193  31.312  54.435  0.00  0.00    -0.286 OA
ATOM     12  C   UNL d   1      53.665  29.753  54.232  0.00  0.00     0.005 A 
ATOM     13  C   UNL d   1      52.389  29.435  53.224  0.00  0.00     0.025 A 
ATOM     14  C   UNL d   1      53.396  28.978  54.127  0.00  0.00     0.000 A 
ATOM     15  C   UNL d   1      52.761  28.819  53.625  0.00  0.00     0.002 A 
ENDROOT
BRANCH   5  16
ATOM     16  C   UNL d   1      53.909  33.005  53.945  0.00  0.00     0.019 A 
ATOM     17  C   UNL d   1      53.726  33.366  54.655  0.00  0.00     0.029 A 
ATOM     18  C   UNL d   1      54.301  33.763  55.088  0.00  0.00     0.133 A 
ATOM     19  C   UNL d   1      55.073  33.796  54.799  0.00  0.00     0.218 A 
ATOM     20  C   UNL d   1      55.262  33.429  54.076  0.00  0.00     0.044 A 
ATOM     21  O   UNL d   1      55.661  34.191  55.224  0.00  0.00    -0.284 OA
ATOM     22  C   UNL d   1      54.680  33.039  53.658  0.00  0.00     0.005 A 
BRANCH  18  23
ATOM     23  O   UNL d   1      54.118  34.125  55.799  0.00  0.00    -0.325 OA
ATOM     24  C   UNL d   1      53.524  34.701  55.830  0.00  0.00     0.181 C 
ENDBRANCH  18  23
ENDBRANCH   5  16
BRANCH   3  25
ATOM     25  C   UNL d   1      52.706  33.759  52.835  0.00  0.00     0.083 C 
BRANCH  25  26
ATOM     26  C   UNL d   1      51.998  34.065  52.545  0.00  0.00     0.019 C 
ATOM     27  C   UNL d   1      51.891  34.880  52.493  0.00  0.00     0.002 C 
ENDBRANCH  25  26
ENDBRANCH   3  25
TORSDOF 4
ENDMDL
MODEL 4
REMARK VINA RESULT:      -8.0      1.239      3.707
REMARK  4 active torsions:
REMARK  status: ('A' for Active; 'I' for Inactive)
REMARK    1  A    between atoms: C_17  and  N_3 
REMARK    2  A    between atoms: C_9  and  C_5 
REMARK    3  A    between atoms: O_21  and  C_12 
REMARK    4  A    between atoms: C_19  and  C_17 
ROOT
ATOM      1  C   UNL d   1      52.544  33.366  53.692  0.00  0.00     0.083 A 
ATOM      2  C   UNL d   1      52.524  34.109  54.042  0.00  0.00     0.161 A 
ATOM      3  N   UNL d   1      53.636  33.489  54.497  0.00  0.00    -0.272 N 
ATOM      4  C   UNL d   1      53.185  34.190  54.532  0.00  0.00     0.288 A 
ATOM      5  C   UNL d   1      53.246  32.970  53.977  0.00  0.00     0.072 A 
ATOM      6  C   UNL d   1      51.952  33.124  53.171  0.00  0.00     0.201 A 
ATOM      7  O   UNL d   1      51.891  34.624  53.863  0.00  0.00    -0.302 OA
ATOM      8  C   UNL d   1      51.327  33.638  52.996  0.00  0.00     0.062 A 
ATOM      9  C   UNL d   1      51.296  34.393  53.344  0.00  0.00     0.103 A 
ATOM     10  O   UNL d   1      53.376  34.855  54.987  0.00  0.00    -0.264 OA
ATOM     11  O   UNL d   1      51.983  32.375  52.825  0.00  0.00    -0.286 OA
ATOM     12  C   UNL d   1      50.729  33.401  52.472  0.00  0.00     0.005 A 
ATOM     13  C   UNL d   1      50.667  34.904  53.166  0.00  0.00     0.025 A 
ATOM     14  C   UNL d   1      50.105  33.917  52.300  0.00  0.00     0.000 A 
ATOM     15  C   UNL d   1      50.075  34.666  52.646  0.00  0.00     0.002 A 
ENDROOT
BRANCH   5  16
ATOM     16  C   UNL d   1      53.488  32.212  53.771  0.00  0.00     0.019 A 
ATOM     17  C   UNL d   1      53.296  31.577  54.249  0.00  0.00     0.029 A 
ATOM     18  C   UNL d   1      53.532  30.814  54.053  0.00  0.00     0.133 A 
ATOM     19  C   UNL d   1      53.970  30.691  53.365  0.00  0.00     0.218 A 
ATOM     20  C   UNL d   1      54.168  31.336  52.878  0.00  0.00     0.044 A 
ATOM     21  O   UNL d   1      54.214  29.930  53.157  0.00  0.00    -0.284 OA
ATOM     22  C   UNL d   1      53.926  32.088  53.085  0.00  0.00     0.005 A 
BRANCH  18  23
ATOM     23  O   UNL d   1      53.339  30.178  54.531  0.00  0.00    -0.325 OA
ATOM     24  C   UNL d   1      52.714  29.677  54.321  0.00  0.00     0.181 C 
ENDBRANCH  18  23
ENDBRANCH   5  16
BRANCH   3  25
ATOM     25  C   UNL d   1      54.338  33.333  54.898  0.00  0.00     0.083 C 
BRANCH  25  26
ATOM     26  C   UNL d   1      54.844  33.950  55.102  0.00  0.00     0.019 C 
ATOM     27  C   UNL d   1      55.576  33.788  55.443  0.00  0.00     0.002 C 
ENDBRANCH  25  26
ENDBRANCH   3  25
TORSDOF 4
ENDMDL
