MODEL 1
REMARK VINA RESULT:      -5.7      0.000      0.000
REMARK  3 active torsions:
REMARK  status: ('A' for Active; 'I' for Inactive)
REMARK    1  A    between atoms: C_6  and  C_5 
REMARK    2  A    between atoms: C_7  and  C_6 
REMARK    3  A    between atoms: O_11  and  C_7 
ROOT
ATOM      1  N   UNL d   1     -46.737  11.892  23.697  0.00  0.00    -0.163 NA
ATOM      2  C   UNL d   1     -47.534  11.739  23.534  0.00  0.00     0.313 A 
ATOM      3  C   UNL d   1     -46.566  12.658  23.444  0.00  0.00     0.288 A 
ATOM      4  S   UNL d   1     -47.847  12.414  23.181  0.00  0.00    -0.021 SA
ATOM      5  C   UNL d   1     -47.257  12.976  23.126  0.00  0.00     0.097 A 
ATOM      6  O   UNL d   1     -47.934  11.036  23.698  0.00  0.00    -0.258 OA
ATOM      7  O   UNL d   1     -45.832  13.036  23.501  0.00  0.00    -0.265 OA
ENDROOT
BRANCH   5   8
ATOM      8  C   UNL d   1     -47.330  13.734  22.808  0.00  0.00     0.080 C 
BRANCH   8   9
ATOM      9  C   UNL d   1     -48.072  14.025  22.607  0.00  0.00     0.297 C 
ATOM     10  O   UNL d   1     -48.449  13.757  21.921  0.00  0.00    -0.259 OA
BRANCH   9  11
ATOM     11  O   UNL d   1     -48.445  14.580  23.081  0.00  0.00    -0.296 OA
ATOM     12  C   UNL d   1     -48.858  15.203  22.742  0.00  0.00     0.185 C 
ENDBRANCH   9  11
ENDBRANCH   8   9
ENDBRANCH   5   8
TORSDOF 3
ENDMDL
MODEL 2
REMARK VINA RESULT:      -5.7      1.635      2.241
REMARK  3 active torsions:
REMARK  status: ('A' for Active; 'I' for Inactive)
REMARK    1  A    between atoms: C_6  and  C_5 
REMARK    2  A    between atoms: C_7  and  C_6 
REMARK    3  A    between atoms: O_11  and  C_7 
ROOT
ATOM      1  N   UNL d   1     -45.826  12.816  23.117  0.00  0.00    -0.163 NA
ATOM      2  C   UNL d   1     -46.406  13.367  22.906  0.00  0.00     0.313 A 
ATOM      3  C   UNL d   1     -46.203  12.148  23.417  0.00  0.00     0.288 A 
ATOM      4  S   UNL d   1     -47.138  13.031  23.079  0.00  0.00    -0.021 SA
ATOM      5  C   UNL d   1     -47.015  12.286  23.392  0.00  0.00     0.097 A 
ATOM      6  O   UNL d   1     -46.269  14.113  22.582  0.00  0.00    -0.258 OA
ATOM      7  O   UNL d   1     -45.830  11.462  23.694  0.00  0.00    -0.265 OA
ENDROOT
BRANCH   5   8
ATOM      8  C   UNL d   1     -47.597  11.757  23.641  0.00  0.00     0.080 C 
BRANCH   8   9
ATOM      9  C   UNL d   1     -48.344  11.779  23.301  0.00  0.00     0.297 C 
ATOM     10  O   UNL d   1     -48.467  11.453  22.550  0.00  0.00    -0.259 OA
BRANCH   9  11
ATOM     11  O   UNL d   1     -48.975  12.121  23.698  0.00  0.00    -0.296 OA
ATOM     12  C   UNL d   1     -49.718  11.774  23.670  0.00  0.00     0.185 C 
ENDBRANCH   9  11
ENDBRANCH   8   9
ENDBRANCH   5   8
TORSDOF 3
ENDMDL
MODEL 3
REMARK VINA RESULT:      -4.5      1.206      2.275
REMARK  3 active torsions:
REMARK  status: ('A' for Active; 'I' for Inactive)
REMARK    1  A    between atoms: C_6  and  C_5 
REMARK    2  A    between atoms: C_7  and  C_6 
REMARK    3  A    between atoms: O_11  and  C_7 
ROOT
ATOM      1  N   UNL d   1     -49.183  12.398  23.140  0.00  0.00    -0.163 NA
ATOM      2  C   UNL d   1     -48.636  11.830  23.386  0.00  0.00     0.313 A 
ATOM      3  C   UNL d   1     -48.772  13.086  22.948  0.00  0.00     0.288 A 
ATOM      4  S   UNL d   1     -47.888  12.173  23.343  0.00  0.00    -0.021 SA
ATOM      5  C   UNL d   1     -47.970  12.941  23.076  0.00  0.00     0.097 A 
ATOM      6  O   UNL d   1     -48.813  11.061  23.627  0.00  0.00    -0.258 OA
ATOM      7  O   UNL d   1     -49.105  13.794  22.677  0.00  0.00    -0.265 OA
ENDROOT
BRANCH   5   8
ATOM      8  C   UNL d   1     -47.362  13.484  22.953  0.00  0.00     0.080 C 
BRANCH   8   9
ATOM      9  C   UNL d   1     -46.579  13.235  22.972  0.00  0.00     0.297 C 
ATOM     10  O   UNL d   1     -46.194  13.135  23.698  0.00  0.00    -0.259 OA
BRANCH   9  11
ATOM     11  O   UNL d   1     -46.171  13.083  22.277  0.00  0.00    -0.296 OA
ATOM     12  C   UNL d   1     -45.387  13.311  22.199  0.00  0.00     0.185 C 
ENDBRANCH   9  11
ENDBRANCH   8   9
ENDBRANCH   5   8
TORSDOF 3
ENDMDL
