MODEL 1
REMARK VINA RESULT:     103.8      0.000      0.000
REMARK  4 active torsions:
REMARK  status: ('A' for Active; 'I' for Inactive)
REMARK    1  A    between atoms: C_11  and  N_2 
REMARK    2  A    between atoms: C_12  and  C_6 
REMARK    3  A    between atoms: C_15  and  C_11 
REMARK    4  A    between atoms: O_29  and  C_24 
ROOT
ATOM      1  C   UNL d   1     -48.712  28.882  34.609  0.00  0.00     0.137 A 
ATOM      2  N   UNL d   1     -47.916  30.046  34.825  0.00  0.00    -0.256 N 
ATOM      3  C   UNL d   1     -49.195  29.306  34.087  0.00  0.00     0.192 A 
ATOM      4  C   UNL d   1     -48.072  29.252  34.978  0.00  0.00     0.272 A 
ATOM      5  N   UNL d   1     -49.040  30.096  33.934  0.00  0.00    -0.204 NA
ATOM      6  C   UNL d   1     -48.396  30.472  34.304  0.00  0.00     0.152 A 
ATOM      7  C   UNL d   1     -48.871  28.086  34.761  0.00  0.00     0.205 A 
ATOM      8  C   UNL d   1     -49.501  27.718  34.399  0.00  0.00     0.062 A 
ATOM      9  O   UNL d   1     -49.829  28.932  33.724  0.00  0.00    -0.289 OA
ATOM     10  C   UNL d   1     -49.984  28.137  33.878  0.00  0.00     0.107 A 
ATOM     11  C   UNL d   1     -50.627  27.760  33.509  0.00  0.00     0.049 A 
ATOM     12  C   UNL d   1     -49.658  26.920  34.553  0.00  0.00     0.007 A 
ATOM     13  O   UNL d   1     -47.595  28.827  35.497  0.00  0.00    -0.266 OA
ATOM     14  O   UNL d   1     -48.389  27.668  35.281  0.00  0.00    -0.286 OA
ATOM     15  C   UNL d   1     -50.780  26.968  33.664  0.00  0.00     0.096 A 
ATOM     16  C   UNL d   1     -50.297  26.550  34.184  0.00  0.00     0.024 A 
ENDROOT
BRANCH   6  17
ATOM     17  C   UNL d   1     -48.242  31.268  34.149  0.00  0.00     0.035 A 
ATOM     18  C   UNL d   1     -48.811  31.838  34.319  0.00  0.00     0.003 A 
ATOM     19  C   UNL d   1     -48.645  32.627  34.160  0.00  0.00     0.000 A 
ATOM     20  C   UNL d   1     -47.924  32.849  33.835  0.00  0.00     0.000 A 
ATOM     21  C   UNL d   1     -47.357  32.271  33.666  0.00  0.00     0.000 A 
ATOM     22  C   UNL d   1     -47.767  33.642  33.678  0.00  0.00     0.000 C 
ATOM     23  C   UNL d   1     -47.515  31.479  33.823  0.00  0.00     0.003 A 
ENDBRANCH   6  17
BRANCH   2  24
ATOM     24  C   UNL d   1     -47.277  30.415  35.194  0.00  0.00     0.109 C 
BRANCH  24  25
ATOM     25  C   UNL d   1     -47.118  30.275  36.003  0.00  0.00     0.118 A 
ATOM     26  O   UNL d   1     -47.669  30.305  36.615  0.00  0.00    -0.304 OA
ATOM     27  C   UNL d   1     -47.270  30.130  37.325  0.00  0.00     0.123 A 
ATOM     28  C   UNL d   1     -46.467  29.992  37.144  0.00  0.00     0.029 A 
ATOM     29  C   UNL d   1     -46.375  30.083  36.317  0.00  0.00     0.028 A 
ENDBRANCH  24  25
ENDBRANCH   2  24
BRANCH  15  30
ATOM     30  O   UNL d   1     -51.409  26.590  33.306  0.00  0.00    -0.328 OA
ATOM     31  C   UNL d   1     -51.442  25.767  33.306  0.00  0.00     0.181 C 
ENDBRANCH  15  30
TORSDOF 4
ENDMDL
MODEL 2
REMARK VINA RESULT:     104.6      3.386      5.617
REMARK  4 active torsions:
REMARK  status: ('A' for Active; 'I' for Inactive)
REMARK    1  A    between atoms: C_11  and  N_2 
REMARK    2  A    between atoms: C_12  and  C_6 
REMARK    3  A    between atoms: C_15  and  C_11 
REMARK    4  A    between atoms: O_29  and  C_24 
ROOT
ATOM      1  C   UNL d   1     -51.792  24.605  33.574  0.00  0.00     0.137 A 
ATOM      2  N   UNL d   1     -50.523  25.242  33.708  0.00  0.00    -0.256 N 
ATOM      3  C   UNL d   1     -52.170  25.340  33.624  0.00  0.00     0.192 A 
ATOM      4  C   UNL d   1     -50.969  24.556  33.616  0.00  0.00     0.272 A 
ATOM      5  N   UNL d   1     -51.727  26.024  33.715  0.00  0.00    -0.204 NA
ATOM      6  C   UNL d   1     -50.897  25.978  33.758  0.00  0.00     0.152 A 
ATOM      7  C   UNL d   1     -52.241  23.918  33.482  0.00  0.00     0.205 A 
ATOM      8  C   UNL d   1     -53.053  23.962  33.440  0.00  0.00     0.062 A 
ATOM      9  O   UNL d   1     -52.989  25.381  33.581  0.00  0.00    -0.289 OA
ATOM     10  C   UNL d   1     -53.433  24.692  33.489  0.00  0.00     0.107 A 
ATOM     11  C   UNL d   1     -54.263  24.736  33.446  0.00  0.00     0.049 A 
ATOM     12  C   UNL d   1     -53.501  23.272  33.348  0.00  0.00     0.007 A 
ATOM     13  O   UNL d   1     -50.597  23.823  33.567  0.00  0.00    -0.266 OA
ATOM     14  O   UNL d   1     -51.862  23.189  33.433  0.00  0.00    -0.286 OA
ATOM     15  C   UNL d   1     -54.703  24.049  33.354  0.00  0.00     0.096 A 
ATOM     16  C   UNL d   1     -54.324  23.320  33.306  0.00  0.00     0.024 A 
ENDROOT
BRANCH   6  17
ATOM     17  C   UNL d   1     -50.454  26.668  33.850  0.00  0.00     0.035 A 
ATOM     18  C   UNL d   1     -50.609  27.176  34.479  0.00  0.00     0.003 A 
ATOM     19  C   UNL d   1     -50.160  27.860  34.559  0.00  0.00     0.000 A 
ATOM     20  C   UNL d   1     -49.564  28.039  34.023  0.00  0.00     0.000 A 
ATOM     21  C   UNL d   1     -49.413  27.524  33.394  0.00  0.00     0.000 A 
ATOM     22  C   UNL d   1     -49.120  28.726  34.112  0.00  0.00     0.000 C 
ATOM     23  C   UNL d   1     -49.858  26.837  33.306  0.00  0.00     0.003 A 
ENDBRANCH   6  17
BRANCH   2  24
ATOM     24  C   UNL d   1     -49.701  25.193  33.750  0.00  0.00     0.109 C 
BRANCH  24  25
ATOM     25  C   UNL d   1     -49.325  24.449  33.816  0.00  0.00     0.118 A 
ATOM     26  O   UNL d   1     -48.751  24.151  33.306  0.00  0.00    -0.304 OA
ATOM     27  C   UNL d   1     -48.534  23.396  33.580  0.00  0.00     0.123 A 
ATOM     28  C   UNL d   1     -48.981  23.231  34.266  0.00  0.00     0.029 A 
ATOM     29  C   UNL d   1     -49.475  23.891  34.411  0.00  0.00     0.028 A 
ENDBRANCH  24  25
ENDBRANCH   2  24
BRANCH  15  30
ATOM     30  O   UNL d   1     -55.519  24.083  33.311  0.00  0.00    -0.328 OA
ATOM     31  C   UNL d   1     -55.930  24.597  33.805  0.00  0.00     0.181 C 
ENDBRANCH  15  30
TORSDOF 4
ENDMDL
