MODEL 1
REMARK VINA RESULT:      -6.6      0.000      0.000
REMARK  2 active torsions:
REMARK  status: ('A' for Active; 'I' for Inactive)
REMARK    1  A    between atoms: C_5  and  C_1 
REMARK    2  A    between atoms: N_7  and  C_3 
REMARK       I    between atoms: C_8  and  N_7 
ROOT
ATOM      1  C   UNL d   1     -47.018  12.771  23.103  0.00  0.00     0.231 A 
ATOM      2  O   UNL d   1     -46.579  12.807  22.403  0.00  0.00    -0.252 OA
ATOM      3  C   UNL d   1     -45.857  13.163  22.576  0.00  0.00     0.297 A 
ATOM      4  N   UNL d   1     -46.563  13.103  23.698  0.00  0.00    -0.117 NA
ATOM      5  N   UNL d   1     -45.848  13.345  23.373  0.00  0.00    -0.101 NA
ENDROOT
BRANCH   1   6
ATOM      6  C   UNL d   1     -47.778  12.453  23.179  0.00  0.00     0.168 A 
ATOM      7  O   UNL d   1     -48.431  12.929  23.034  0.00  0.00    -0.297 OA
ATOM      8  C   UNL d   1     -49.180  12.616  23.109  0.00  0.00     0.149 A 
ATOM      9  C   UNL d   1     -49.284  11.834  23.326  0.00  0.00     0.149 A 
ATOM     10  O   UNL d   1     -48.638  11.350  23.473  0.00  0.00    -0.299 OA
ATOM     11  C   UNL d   1     -47.885  11.663  23.399  0.00  0.00     0.151 A 
ENDBRANCH   1   6
BRANCH   3  12
ATOM     12  N   UNL d   1     -45.255  13.305  22.033  0.00  0.00    -0.165 NA
ATOM     13  C   UNL d   1     -44.590  12.835  22.021  0.00  0.00     0.282 C 
ATOM     14  O   UNL d   1     -44.509  12.204  22.558  0.00  0.00    -0.265 OA
ATOM     15  C   UNL d   1     -43.987  12.979  21.475  0.00  0.00     0.068 C 
ENDBRANCH   3  12
TORSDOF 2
ENDMDL
MODEL 2
REMARK VINA RESULT:      -6.3      1.560      1.933
REMARK  2 active torsions:
REMARK  status: ('A' for Active; 'I' for Inactive)
REMARK    1  A    between atoms: C_5  and  C_1 
REMARK    2  A    between atoms: N_7  and  C_3 
REMARK       I    between atoms: C_8  and  N_7 
ROOT
ATOM      1  C   UNL d   1     -47.302  12.839  23.009  0.00  0.00     0.231 A 
ATOM      2  O   UNL d   1     -47.170  12.030  23.118  0.00  0.00    -0.252 OA
ATOM      3  C   UNL d   1     -46.441  11.941  23.489  0.00  0.00     0.297 A 
ATOM      4  N   UNL d   1     -46.656  13.239  23.313  0.00  0.00    -0.117 NA
ATOM      5  N   UNL d   1     -46.125  12.685  23.609  0.00  0.00    -0.101 NA
ENDROOT
BRANCH   1   6
ATOM      6  C   UNL d   1     -47.971  13.174  22.656  0.00  0.00     0.168 A 
ATOM      7  O   UNL d   1     -48.145  13.002  21.872  0.00  0.00    -0.297 OA
ATOM      8  C   UNL d   1     -48.804  13.332  21.524  0.00  0.00     0.149 A 
ATOM      9  C   UNL d   1     -49.291  13.833  21.951  0.00  0.00     0.149 A 
ATOM     10  O   UNL d   1     -49.127  14.012  22.734  0.00  0.00    -0.299 OA
ATOM     11  C   UNL d   1     -48.465  13.681  23.085  0.00  0.00     0.151 A 
ENDBRANCH   1   6
BRANCH   3  12
ATOM     12  N   UNL d   1     -46.098  11.222  23.698  0.00  0.00    -0.165 NA
ATOM     13  C   UNL d   1     -45.331  11.053  23.484  0.00  0.00     0.282 C 
ATOM     14  O   UNL d   1     -44.882  11.605  23.051  0.00  0.00    -0.265 OA
ATOM     15  C   UNL d   1     -44.989  10.331  23.695  0.00  0.00     0.068 C 
ENDBRANCH   3  12
TORSDOF 2
ENDMDL
MODEL 3
REMARK VINA RESULT:      -6.3      2.073      2.704
REMARK  2 active torsions:
REMARK  status: ('A' for Active; 'I' for Inactive)
REMARK    1  A    between atoms: C_5  and  C_1 
REMARK    2  A    between atoms: N_7  and  C_3 
REMARK       I    between atoms: C_8  and  N_7 
ROOT
ATOM      1  C   UNL d   1     -48.757  14.049  22.894  0.00  0.00     0.231 A 
ATOM      2  O   UNL d   1     -48.060  14.173  22.468  0.00  0.00    -0.252 OA
ATOM      3  C   UNL d   1     -47.600  13.493  22.533  0.00  0.00     0.297 A 
ATOM      4  N   UNL d   1     -48.720  13.297  23.216  0.00  0.00    -0.117 NA
ATOM      5  N   UNL d   1     -48.007  12.954  22.993  0.00  0.00    -0.101 NA
ENDROOT
BRANCH   1   6
ATOM      6  C   UNL d   1     -49.375  14.593  22.975  0.00  0.00     0.168 A 
ATOM      7  O   UNL d   1     -49.367  15.125  23.601  0.00  0.00    -0.297 OA
ATOM      8  C   UNL d   1     -49.976  15.661  23.680  0.00  0.00     0.149 A 
ATOM      9  C   UNL d   1     -50.593  15.671  23.142  0.00  0.00     0.149 A 
ATOM     10  O   UNL d   1     -50.610  15.145  22.513  0.00  0.00    -0.299 OA
ATOM     11  C   UNL d   1     -49.999  14.606  22.432  0.00  0.00     0.151 A 
ENDBRANCH   1   6
BRANCH   3  12
ATOM     12  N   UNL d   1     -46.860  13.386  22.189  0.00  0.00    -0.165 NA
ATOM     13  C   UNL d   1     -46.183  13.472  22.633  0.00  0.00     0.282 C 
ATOM     14  O   UNL d   1     -46.229  13.670  23.440  0.00  0.00    -0.265 OA
ATOM     15  C   UNL d   1     -45.440  13.364  22.287  0.00  0.00     0.068 C 
ENDBRANCH   3  12
TORSDOF 2
ENDMDL
MODEL 4
REMARK VINA RESULT:      -6.1      1.560      3.850
REMARK  2 active torsions:
REMARK  status: ('A' for Active; 'I' for Inactive)
REMARK    1  A    between atoms: C_5  and  C_1 
REMARK    2  A    between atoms: N_7  and  C_3 
REMARK       I    between atoms: C_8  and  N_7 
ROOT
ATOM      1  C   UNL d   1     -47.679  12.566  23.125  0.00  0.00     0.231 A 
ATOM      2  O   UNL d   1     -48.431  12.792  23.384  0.00  0.00    -0.252 OA
ATOM      3  C   UNL d   1     -48.890  12.111  23.452  0.00  0.00     0.297 A 
ATOM      4  N   UNL d   1     -47.681  11.752  23.036  0.00  0.00    -0.117 NA
ATOM      5  N   UNL d   1     -48.427  11.472  23.237  0.00  0.00    -0.101 NA
ENDROOT
BRANCH   1   6
ATOM      6  C   UNL d   1     -47.045  13.079  22.985  0.00  0.00     0.168 A 
ATOM      7  O   UNL d   1     -47.168  13.890  23.002  0.00  0.00    -0.297 OA
ATOM      8  C   UNL d   1     -46.544  14.395  22.864  0.00  0.00     0.149 A 
ATOM      9  C   UNL d   1     -45.797  14.097  22.708  0.00  0.00     0.149 A 
ATOM     10  O   UNL d   1     -45.662  13.289  22.688  0.00  0.00    -0.299 OA
ATOM     11  C   UNL d   1     -46.289  12.780  22.827  0.00  0.00     0.151 A 
ENDBRANCH   1   6
BRANCH   3  12
ATOM     12  N   UNL d   1     -49.676  12.089  23.694  0.00  0.00    -0.165 NA
ATOM     13  C   UNL d   1     -50.275  12.046  23.145  0.00  0.00     0.282 C 
ATOM     14  O   UNL d   1     -50.102  12.023  22.331  0.00  0.00    -0.265 OA
ATOM     15  C   UNL d   1     -51.064  12.025  23.390  0.00  0.00     0.068 C 
ENDBRANCH   3  12
TORSDOF 2
ENDMDL
MODEL 5
REMARK VINA RESULT:      -5.3      7.134      8.215
REMARK  2 active torsions:
REMARK  status: ('A' for Active; 'I' for Inactive)
REMARK    1  A    between atoms: C_5  and  C_1 
REMARK    2  A    between atoms: N_7  and  C_3 
REMARK       I    between atoms: C_8  and  N_7 
ROOT
ATOM      1  C   UNL d   1     -40.430  14.476  18.880  0.00  0.00     0.231 A 
ATOM      2  O   UNL d   1     -39.702  14.522  18.491  0.00  0.00    -0.252 OA
ATOM      3  C   UNL d   1     -39.773  14.119  17.776  0.00  0.00     0.297 A 
ATOM      4  N   UNL d   1     -40.940  14.048  18.404  0.00  0.00    -0.117 NA
ATOM      5  N   UNL d   1     -40.535  13.828  17.723  0.00  0.00    -0.101 NA
ENDROOT
BRANCH   1   6
ATOM      6  C   UNL d   1     -40.602  14.808  19.619  0.00  0.00     0.168 A 
ATOM      7  O   UNL d   1     -40.827  15.596  19.667  0.00  0.00    -0.297 OA
ATOM      8  C   UNL d   1     -40.996  15.922  20.394  0.00  0.00     0.149 A 
ATOM      9  C   UNL d   1     -40.944  15.469  21.074  0.00  0.00     0.149 A 
ATOM     10  O   UNL d   1     -40.721  14.681  21.037  0.00  0.00    -0.299 OA
ATOM     11  C   UNL d   1     -40.550  14.352  20.307  0.00  0.00     0.151 A 
ENDBRANCH   1   6
BRANCH   3  12
ATOM     12  N   UNL d   1     -39.173  14.031  17.219  0.00  0.00    -0.165 NA
ATOM     13  C   UNL d   1     -38.767  13.328  17.159  0.00  0.00     0.282 C 
ATOM     14  O   UNL d   1     -38.951  12.688  17.659  0.00  0.00    -0.265 OA
ATOM     15  C   UNL d   1     -38.165  13.241  16.599  0.00  0.00     0.068 C 
ENDBRANCH   3  12
TORSDOF 2
ENDMDL
MODEL 6
REMARK VINA RESULT:      -5.2      7.505      9.272
REMARK  2 active torsions:
REMARK  status: ('A' for Active; 'I' for Inactive)
REMARK    1  A    between atoms: C_5  and  C_1 
REMARK    2  A    between atoms: N_7  and  C_3 
REMARK       I    between atoms: C_8  and  N_7 
ROOT
ATOM      1  C   UNL d   1     -39.777  14.029  17.871  0.00  0.00     0.231 A 
ATOM      2  O   UNL d   1     -39.640  14.351  18.620  0.00  0.00    -0.252 OA
ATOM      3  C   UNL d   1     -40.358  14.365  19.024  0.00  0.00     0.297 A 
ATOM      4  N   UNL d   1     -40.573  13.849  17.820  0.00  0.00    -0.117 NA
ATOM      5  N   UNL d   1     -40.932  14.056  18.531  0.00  0.00    -0.101 NA
ENDROOT
BRANCH   1   6
ATOM      6  C   UNL d   1     -39.204  13.915  17.285  0.00  0.00     0.168 A 
ATOM      7  O   UNL d   1     -39.094  14.489  16.709  0.00  0.00    -0.297 OA
ATOM      8  C   UNL d   1     -38.530  14.376  16.131  0.00  0.00     0.149 A 
ATOM      9  C   UNL d   1     -38.074  13.696  16.124  0.00  0.00     0.149 A 
ATOM     10  O   UNL d   1     -38.176  13.116  16.695  0.00  0.00    -0.299 OA
ATOM     11  C   UNL d   1     -38.743  13.228  17.275  0.00  0.00     0.151 A 
ENDBRANCH   1   6
BRANCH   3  12
ATOM     12  N   UNL d   1     -40.466  14.643  19.791  0.00  0.00    -0.165 NA
ATOM     13  C   UNL d   1     -40.712  15.409  19.920  0.00  0.00     0.282 C 
ATOM     14  O   UNL d   1     -40.856  15.921  19.279  0.00  0.00    -0.265 OA
ATOM     15  C   UNL d   1     -40.821  15.688  20.690  0.00  0.00     0.068 C 
ENDBRANCH   3  12
TORSDOF 2
ENDMDL
MODEL 7
REMARK VINA RESULT:      -5.0      7.421      8.319
REMARK  2 active torsions:
REMARK  status: ('A' for Active; 'I' for Inactive)
REMARK    1  A    between atoms: C_5  and  C_1 
REMARK    2  A    between atoms: N_7  and  C_3 
REMARK       I    between atoms: C_8  and  N_7 
ROOT
ATOM      1  C   UNL d   1     -40.303  14.473  19.124  0.00  0.00     0.231 A 
ATOM      2  O   UNL d   1     -40.744  15.045  18.721  0.00  0.00    -0.252 OA
ATOM      3  C   UNL d   1     -40.942  14.738  17.983  0.00  0.00     0.297 A 
ATOM      4  N   UNL d   1     -40.234  13.822  18.632  0.00  0.00    -0.117 NA
ATOM      5  N   UNL d   1     -40.627  13.985  17.929  0.00  0.00    -0.101 NA
ENDROOT
BRANCH   1   6
ATOM      6  C   UNL d   1     -39.993  14.554  19.887  0.00  0.00     0.168 A 
ATOM      7  O   UNL d   1     -39.227  14.834  19.984  0.00  0.00    -0.297 OA
ATOM      8  C   UNL d   1     -38.921  14.914  20.735  0.00  0.00     0.149 A 
ATOM      9  C   UNL d   1     -39.372  14.717  21.390  0.00  0.00     0.149 A 
ATOM     10  O   UNL d   1     -40.138  14.436  21.304  0.00  0.00    -0.299 OA
ATOM     11  C   UNL d   1     -40.447  14.356  20.550  0.00  0.00     0.151 A 
ENDBRANCH   1   6
BRANCH   3  12
ATOM     12  N   UNL d   1     -41.380  15.129  17.407  0.00  0.00    -0.165 NA
ATOM     13  C   UNL d   1     -41.006  15.528  16.804  0.00  0.00     0.282 C 
ATOM     14  O   UNL d   1     -40.175  15.545  16.760  0.00  0.00    -0.265 OA
ATOM     15  C   UNL d   1     -41.447  15.921  16.226  0.00  0.00     0.068 C 
ENDBRANCH   3  12
TORSDOF 2
ENDMDL
MODEL 8
REMARK VINA RESULT:      -4.7      7.326      8.440
REMARK  2 active torsions:
REMARK  status: ('A' for Active; 'I' for Inactive)
REMARK    1  A    between atoms: C_5  and  C_1 
REMARK    2  A    between atoms: N_7  and  C_3 
REMARK       I    between atoms: C_8  and  N_7 
ROOT
ATOM      1  C   UNL d   1     -40.565  14.738  18.242  0.00  0.00     0.231 A 
ATOM      2  O   UNL d   1     -40.114  15.002  18.883  0.00  0.00    -0.252 OA
ATOM      3  C   UNL d   1     -40.176  14.441  19.483  0.00  0.00     0.297 A 
ATOM      4  N   UNL d   1     -40.899  14.021  18.453  0.00  0.00    -0.117 NA
ATOM      5  N   UNL d   1     -40.659  13.838  19.217  0.00  0.00    -0.101 NA
ENDROOT
BRANCH   1   6
ATOM      6  C   UNL d   1     -40.657  15.136  17.522  0.00  0.00     0.168 A 
ATOM      7  O   UNL d   1     -41.388  15.450  17.323  0.00  0.00    -0.297 OA
ATOM      8  C   UNL d   1     -41.478  15.842  16.614  0.00  0.00     0.149 A 
ATOM      9  C   UNL d   1     -40.844  15.922  16.102  0.00  0.00     0.149 A 
ATOM     10  O   UNL d   1     -40.109  15.611  16.291  0.00  0.00    -0.299 OA
ATOM     11  C   UNL d   1     -40.018  15.218  17.003  0.00  0.00     0.151 A 
ENDBRANCH   1   6
BRANCH   3  12
ATOM     12  N   UNL d   1     -39.810  14.490  20.219  0.00  0.00    -0.165 NA
ATOM     13  C   UNL d   1     -40.205  14.812  20.854  0.00  0.00     0.282 C 
ATOM     14  O   UNL d   1     -40.982  15.096  20.770  0.00  0.00    -0.265 OA
ATOM     15  C   UNL d   1     -39.836  14.860  21.593  0.00  0.00     0.068 C 
ENDBRANCH   3  12
TORSDOF 2
ENDMDL
