MODEL 1
REMARK VINA RESULT:      43.3      0.000      0.000
REMARK  6 active torsions:
REMARK  status: ('A' for Active; 'I' for Inactive)
REMARK    1  A    between atoms: C_7  and  C_1 
REMARK    2  A    between atoms: S_9  and  C_2 
REMARK    3  A    between atoms: C_11  and  C_4 
REMARK    4  A    between atoms: C_15  and  S_9 
REMARK    5  A    between atoms: C_12  and  C_15 
REMARK    6  A    between atoms: O_21  and  C_12 
ROOT
ATOM      1  C   UNL d   1     -51.127  25.717  33.351  0.00  0.00     0.045 A 
ATOM      2  C   UNL d   1     -50.404  26.100  33.352  0.00  0.00     0.112 A 
ATOM      3  C   UNL d   1     -50.455  24.447  33.332  0.00  0.00     0.057 A 
ATOM      4  C   UNL d   1     -51.162  24.893  33.341  0.00  0.00     0.008 A 
ATOM      5  C   UNL d   1     -49.731  24.830  33.333  0.00  0.00     0.085 A 
ATOM      6  N   UNL d   1     -49.697  25.668  33.343  0.00  0.00    -0.239 NA
ATOM      7  C   UNL d   1     -50.495  23.633  33.322  0.00  0.00     0.197 A 
ATOM      8  O   UNL d   1     -51.229  23.244  33.320  0.00  0.00    -0.286 OA
ATOM      9  C   UNL d   1     -49.030  24.408  33.325  0.00  0.00     0.019 A 
ATOM     10  C   UNL d   1     -49.794  23.198  33.313  0.00  0.00     0.042 A 
ATOM     11  C   UNL d   1     -49.070  23.581  33.315  0.00  0.00     0.005 A 
ENDROOT
BRANCH   4  12
ATOM     12  C   UNL d   1     -51.880  24.512  33.339  0.00  0.00     0.000 A 
ATOM     13  C   UNL d   1     -52.576  24.950  33.347  0.00  0.00     0.000 A 
ATOM     14  C   UNL d   1     -53.300  24.567  33.346  0.00  0.00     0.000 A 
ATOM     15  C   UNL d   1     -53.329  23.746  33.336  0.00  0.00     0.000 A 
ATOM     16  C   UNL d   1     -52.627  23.297  33.328  0.00  0.00     0.000 A 
ATOM     17  C   UNL d   1     -54.059  23.359  33.335  0.00  0.00     0.000 C 
ATOM     18  C   UNL d   1     -51.904  23.680  33.329  0.00  0.00     0.000 A 
ENDBRANCH   4  12
BRANCH   1  19
ATOM     19  C   UNL d   1     -51.837  26.168  33.359  0.00  0.00     0.124 C 
ATOM     20  N   UNL d   1     -51.960  26.722  33.966  0.00  0.00    -0.146 N 
ENDBRANCH   1  19
BRANCH   2  21
ATOM     21  S   UNL d   1     -50.351  26.954  33.362  0.00  0.00    -0.062 SA
BRANCH  21  22
ATOM     22  C   UNL d   1     -49.704  27.312  33.706  0.00  0.00     0.105 C 
BRANCH  22  23
ATOM     23  C   UNL d   1     -49.534  28.109  33.541  0.00  0.00     0.303 C 
ATOM     24  O   UNL d   1     -48.765  28.402  33.610  0.00  0.00    -0.259 OA
BRANCH  23  25
ATOM     25  O   UNL d   1     -50.137  28.609  33.306  0.00  0.00    -0.295 OA
ATOM     26  C   UNL d   1     -50.130  29.403  33.553  0.00  0.00     0.185 C 
ENDBRANCH  23  25
ENDBRANCH  22  23
ENDBRANCH  21  22
ENDBRANCH   2  21
TORSDOF 6
ENDMDL
