MODEL 1
REMARK VINA RESULT:      -5.2      0.000      0.000
REMARK  5 active torsions:
REMARK  status: ('A' for Active; 'I' for Inactive)
REMARK    1  A    between atoms: N_4  and  C_1 
REMARK       I    between atoms: C_3  and  N_4 
REMARK    2  A    between atoms: C_8  and  C_3 
REMARK    3  A    between atoms: S_9  and  C_5 
REMARK    4  A    between atoms: C_12  and  S_9 
REMARK    5  A    between atoms: C_15  and  C_12 
ROOT
ATOM      1  C   UNL d   1      58.571  -0.575  29.707  0.00  0.00     0.219 A 
ATOM      2  S   UNL d   1      58.392  -0.560  30.547  0.00  0.00    -0.019 SA
ATOM      3  C   UNL d   1      57.754   0.023  30.645  0.00  0.00     0.165 A 
ATOM      4  N   UNL d   1      58.122  -0.099  29.422  0.00  0.00    -0.120 NA
ATOM      5  N   UNL d   1      57.616   0.268  30.015  0.00  0.00    -0.133 NA
ENDROOT
BRANCH   1   6
ATOM      6  N   UNL d   1      59.209  -1.100  29.299  0.00  0.00    -0.181 NA
ATOM      7  C   UNL d   1      59.200  -1.950  29.389  0.00  0.00     0.282 C 
ATOM      8  O   UNL d   1      58.698  -2.228  29.778  0.00  0.00    -0.265 OA
BRANCH   7   9
ATOM      9  C   UNL d   1      59.702  -2.519  29.082  0.00  0.00     0.069 A 
ATOM     10  C   UNL d   1      59.386  -3.198  28.765  0.00  0.00     0.062 A 
ATOM     11 CL   UNL d   1      58.499  -3.328  28.748  0.00  0.00    -0.082 Cl
ATOM     12  C   UNL d   1      59.880  -3.774  28.455  0.00  0.00     0.012 A 
ATOM     13  C   UNL d   1      60.698  -3.672  28.462  0.00  0.00     0.001 A 
ATOM     14  C   UNL d   1      61.022  -2.978  28.787  0.00  0.00     0.000 A 
ATOM     15  C   UNL d   1      60.516  -2.398  29.099  0.00  0.00     0.006 A 
ENDBRANCH   7   9
ENDBRANCH   1   6
BRANCH   3  16
ATOM     16  S   UNL d   1      57.289   0.329  31.360  0.00  0.00    -0.059 SA
BRANCH  16  17
ATOM     17  C   UNL d   1      56.948  -0.226  31.721  0.00  0.00     0.037 C 
BRANCH  17  18
ATOM     18  C   UNL d   1      56.531  -0.075  32.406  0.00  0.00     0.007 A 
ATOM     19  C   UNL d   1      55.852  -0.494  32.592  0.00  0.00     0.001 A 
ATOM     20  C   UNL d   1      55.429  -0.341  33.287  0.00  0.00     0.007 A 
ATOM     21  C   UNL d   1      55.702   0.247  33.802  0.00  0.00     0.035 A 
ATOM     22  C   UNL d   1      56.400   0.682  33.617  0.00  0.00     0.007 A 
ATOM     23 BR   UNL d   1      55.262   0.440  34.573  0.00  0.00    -0.049 Br
ATOM     24  C   UNL d   1      56.799   0.499  32.908  0.00  0.00     0.001 A 
ENDBRANCH  17  18
ENDBRANCH  16  17
ENDBRANCH   3  16
TORSDOF 5
ENDMDL
