MODEL 1
REMARK VINA RESULT:      33.2      0.000      0.000
REMARK  4 active torsions:
REMARK  status: ('A' for Active; 'I' for Inactive)
REMARK    1  A    between atoms: C_2  and  S_1 
REMARK    2  A    between atoms: N_4  and  S_1 
REMARK    3  A    between atoms: C_16  and  N_4 
REMARK    4  A    between atoms: C_17  and  C_16 
ROOT
ATOM      1  S   UNL d   1      14.251  12.617  -1.576  0.00  0.00     0.287 S 
ATOM      2  O   UNL d   1      13.923  12.081  -1.042  0.00  0.00    -0.198 OA
ATOM      3  O   UNL d   1      14.574  13.153  -2.117  0.00  0.00    -0.198 OA
ENDROOT
BRANCH   1   4
ATOM      4  C   UNL d   1      14.877  12.754  -1.056  0.00  0.00     0.123 A 
ATOM      5  C   UNL d   1      15.086  13.527  -0.844  0.00  0.00     0.094 A 
ATOM      6  N   UNL d   1      14.665  14.164  -1.157  0.00  0.00    -0.243 NA
ATOM      7  C   UNL d   1      15.700  13.669  -0.332  0.00  0.00     0.018 A 
ATOM      8  C   UNL d   1      14.864  14.920  -0.956  0.00  0.00     0.099 A 
ATOM      9  C   UNL d   1      15.488  15.058  -0.436  0.00  0.00     0.021 A 
ATOM     10  C   UNL d   1      15.916  14.442  -0.116  0.00  0.00     0.003 A 
ATOM     11  C   UNL d   1      16.127  13.032  -0.014  0.00  0.00     0.002 A 
ATOM     12  C   UNL d   1      15.923  12.276  -0.220  0.00  0.00     0.001 A 
ATOM     13  C   UNL d   1      15.298  12.139  -0.741  0.00  0.00     0.015 A 
ENDBRANCH   1   4
BRANCH   1  14
ATOM     14  N   UNL d   1      13.621  12.475  -2.094  0.00  0.00    -0.157 NA
BRANCH  14  15
ATOM     15  C   UNL d   1      13.713  11.933  -2.715  0.00  0.00     0.112 C 
BRANCH  15  16
ATOM     16  C   UNL d   1      13.533  12.145  -3.479  0.00  0.00     0.022 A 
ATOM     17  C   UNL d   1      13.919  11.796  -4.130  0.00  0.00     0.028 A 
ATOM     18  C   UNL d   1      13.728  12.018  -4.883  0.00  0.00     0.119 A 
ATOM     19  O   UNL d   1      14.005  11.779  -5.604  0.00  0.00    -0.300 OA
ATOM     20  C   UNL d   1      13.139  12.602  -5.013  0.00  0.00     0.119 A 
ATOM     21  C   UNL d   1      13.598  12.206  -6.194  0.00  0.00     0.304 A 
ATOM     22  O   UNL d   1      13.073  12.704  -5.814  0.00  0.00    -0.300 OA
ATOM     23  C   UNL d   1      12.771  12.936  -4.387  0.00  0.00     0.026 A 
ATOM     24  C   UNL d   1      12.967  12.707  -3.604  0.00  0.00     0.004 A 
ENDBRANCH  15  16
ENDBRANCH  14  15
ENDBRANCH   1  14
TORSDOF 4
ENDMDL
