MODEL 1
REMARK VINA RESULT:      -3.4      0.000      0.000
REMARK  2 active torsions:
REMARK  status: ('A' for Active; 'I' for Inactive)
REMARK       I    between atoms: C_6  and  N_1 
REMARK    1  A    between atoms: C_7  and  C_3 
REMARK    2  A    between atoms: C_8  and  C_4 
ROOT
ATOM      1  N   UNL d   1      31.888  16.477 -24.529  0.00  0.00    -0.195 N 
ATOM      2  N   UNL d   1      31.239  16.003 -24.411  0.00  0.00    -0.163 NA
ATOM      3  C   UNL d   1      30.650  16.474 -24.075  0.00  0.00     0.106 A 
ATOM      4  C   UNL d   1      31.706  17.238 -24.268  0.00  0.00     0.088 A 
ATOM      5  C   UNL d   1      30.941  17.228 -23.990  0.00  0.00     0.040 A 
ATOM      6  C   UNL d   1      32.636  16.240 -24.864  0.00  0.00     0.281 C 
ATOM      7  O   UNL d   1      33.232  16.766 -24.948  0.00  0.00    -0.265 OA
ATOM      8  C   UNL d   1      32.726  15.453 -25.097  0.00  0.00     0.068 C 
ENDROOT
BRANCH   3   9
ATOM      9  C   UNL d   1      29.894  16.222 -23.862  0.00  0.00     0.058 A 
ATOM     10  C   UNL d   1      29.244  16.428 -24.326  0.00  0.00     0.197 A 
ATOM     11  O   UNL d   1      29.372  16.880 -24.986  0.00  0.00    -0.286 OA
ATOM     12  C   UNL d   1      28.512  16.168 -24.096  0.00  0.00     0.042 A 
ATOM     13  C   UNL d   1      28.399  15.729 -23.452  0.00  0.00     0.003 A 
ATOM     14  C   UNL d   1      29.050  15.523 -22.988  0.00  0.00     0.000 A 
ATOM     15  C   UNL d   1      29.790  15.762 -23.185  0.00  0.00     0.005 A 
ENDBRANCH   3   9
BRANCH   4  16
ATOM     16  C   UNL d   1      32.217  17.891 -24.290  0.00  0.00     0.018 A 
ATOM     17  C   UNL d   1      32.589  18.168 -23.616  0.00  0.00     0.002 A 
ATOM     18  C   UNL d   1      32.434  17.769 -22.907  0.00  0.00     0.000 C 
ATOM     19  C   UNL d   1      33.084  18.798 -23.627  0.00  0.00     0.000 A 
ATOM     20  C   UNL d   1      33.238  19.195 -24.334  0.00  0.00     0.000 A 
ATOM     21  C   UNL d   1      32.881  18.944 -25.041  0.00  0.00     0.000 A 
ATOM     22  C   UNL d   1      32.375  18.292 -24.995  0.00  0.00     0.002 A 
ENDBRANCH   4  16
TORSDOF 2
ENDMDL
MODEL 2
REMARK VINA RESULT:      -2.3      0.999      3.851
REMARK  2 active torsions:
REMARK  status: ('A' for Active; 'I' for Inactive)
REMARK       I    between atoms: C_6  and  N_1 
REMARK    1  A    between atoms: C_7  and  C_3 
REMARK    2  A    between atoms: C_8  and  C_4 
ROOT
ATOM      1  N   UNL d   1      30.936  16.673 -24.470  0.00  0.00    -0.195 N 
ATOM      2  N   UNL d   1      31.639  17.072 -24.551  0.00  0.00    -0.163 NA
ATOM      3  C   UNL d   1      31.533  17.822 -24.221  0.00  0.00     0.106 A 
ATOM      4  C   UNL d   1      30.396  17.169 -24.094  0.00  0.00     0.088 A 
ATOM      5  C   UNL d   1      30.771  17.875 -23.943  0.00  0.00     0.040 A 
ATOM      6  C   UNL d   1      30.771  15.876 -24.728  0.00  0.00     0.281 C 
ATOM      7  O   UNL d   1      30.051  15.549 -24.613  0.00  0.00    -0.265 OA
ATOM      8  C   UNL d   1      31.377  15.454 -25.097  0.00  0.00     0.068 C 
ENDROOT
BRANCH   3   9
ATOM      9  C   UNL d   1      32.104  18.415 -24.181  0.00  0.00     0.058 A 
ATOM     10  C   UNL d   1      32.559  18.505 -23.499  0.00  0.00     0.197 A 
ATOM     11  O   UNL d   1      32.427  17.998 -22.881  0.00  0.00    -0.286 OA
ATOM     12  C   UNL d   1      33.115  19.095 -23.484  0.00  0.00     0.042 A 
ATOM     13  C   UNL d   1      33.235  19.581 -24.091  0.00  0.00     0.003 A 
ATOM     14  C   UNL d   1      32.780  19.491 -24.773  0.00  0.00     0.000 A 
ATOM     15  C   UNL d   1      32.221  18.918 -24.824  0.00  0.00     0.005 A 
ENDBRANCH   3   9
BRANCH   4  16
ATOM     16  C   UNL d   1      29.611  16.975 -23.906  0.00  0.00     0.018 A 
ATOM     17  C   UNL d   1      28.978  17.371 -24.241  0.00  0.00     0.002 A 
ATOM     18  C   UNL d   1      29.152  17.975 -24.779  0.00  0.00     0.000 C 
ATOM     19  C   UNL d   1      28.217  17.190 -24.066  0.00  0.00     0.000 A 
ATOM     20  C   UNL d   1      28.045  16.586 -23.529  0.00  0.00     0.000 A 
ATOM     21  C   UNL d   1      28.660  16.161 -23.166  0.00  0.00     0.000 A 
ATOM     22  C   UNL d   1      29.433  16.372 -23.369  0.00  0.00     0.002 A 
ENDBRANCH   4  16
TORSDOF 2
ENDMDL
MODEL 3
REMARK VINA RESULT:      -1.8      1.539      4.144
REMARK  2 active torsions:
REMARK  status: ('A' for Active; 'I' for Inactive)
REMARK       I    between atoms: C_6  and  N_1 
REMARK    1  A    between atoms: C_7  and  C_3 
REMARK    2  A    between atoms: C_8  and  C_4 
ROOT
ATOM      1  N   UNL d   1      29.740  17.267 -24.384  0.00  0.00    -0.195 N 
ATOM      2  N   UNL d   1      30.544  17.310 -24.492  0.00  0.00    -0.163 NA
ATOM      3  C   UNL d   1      30.863  16.590 -24.244  0.00  0.00     0.106 A 
ATOM      4  C   UNL d   1      29.558  16.526 -24.071  0.00  0.00     0.088 A 
ATOM      5  C   UNL d   1      30.255  16.115 -23.987  0.00  0.00     0.040 A 
ATOM      6  C   UNL d   1      29.170  17.878 -24.561  0.00  0.00     0.281 C 
ATOM      7  O   UNL d   1      28.391  17.762 -24.427  0.00  0.00    -0.265 OA
ATOM      8  C   UNL d   1      29.448  18.589 -24.874  0.00  0.00     0.068 C 
ENDROOT
BRANCH   3   9
ATOM      9  C   UNL d   1      31.662  16.388 -24.254  0.00  0.00     0.058 A 
ATOM     10  C   UNL d   1      32.144  16.573 -23.611  0.00  0.00     0.197 A 
ATOM     11  O   UNL d   1      31.809  16.954 -22.979  0.00  0.00    -0.286 OA
ATOM     12  C   UNL d   1      32.926  16.365 -23.645  0.00  0.00     0.042 A 
ATOM     13  C   UNL d   1      33.241  15.995 -24.264  0.00  0.00     0.003 A 
ATOM     14  C   UNL d   1      32.759  15.809 -24.908  0.00  0.00     0.000 A 
ATOM     15  C   UNL d   1      31.980  16.000 -24.910  0.00  0.00     0.005 A 
ENDBRANCH   3   9
BRANCH   4  16
ATOM     16  C   UNL d   1      28.797  16.257 -23.878  0.00  0.00     0.018 A 
ATOM     17  C   UNL d   1      28.400  15.719 -24.350  0.00  0.00     0.002 A 
ATOM     18  C   UNL d   1      28.788  15.453 -25.030  0.00  0.00     0.000 C 
ATOM     19  C   UNL d   1      27.665  15.454 -24.172  0.00  0.00     0.000 A 
ATOM     20  C   UNL d   1      27.278  15.721 -23.493  0.00  0.00     0.000 A 
ATOM     21  C   UNL d   1      27.648  16.267 -22.988  0.00  0.00     0.000 A 
ATOM     22  C   UNL d   1      28.406  16.521 -23.200  0.00  0.00     0.002 A 
ENDBRANCH   4  16
TORSDOF 2
ENDMDL
