MODEL 1
REMARK VINA RESULT:      -6.5      0.000      0.000
REMARK  7 active torsions:
REMARK  status: ('A' for Active; 'I' for Inactive)
REMARK    1  A    between atoms: C_2  and  S_1 
REMARK    2  A    between atoms: N_3  and  S_1 
REMARK    3  A    between atoms: C_18  and  N_3 
REMARK    4  A    between atoms: C_6  and  C_21 
REMARK       I    between atoms: N_7  and  C_6 
REMARK    5  A    between atoms: C_12  and  N_7 
REMARK    6  A    between atoms: C_22  and  C_18 
REMARK    7  A    between atoms: C_21  and  C_22 
ROOT
ATOM      1  N   UNL d   1     -48.220  13.041  22.520  0.00  0.00    -0.228 N 
ATOM      2  C   UNL d   1     -48.051  12.882  21.740  0.00  0.00     0.111 C 
ENDROOT
BRANCH   1   3
ATOM      3  S   UNL d   1     -48.792  13.599  22.716  0.00  0.00     0.271 S 
ATOM      4  O   UNL d   1     -48.314  14.171  22.414  0.00  0.00    -0.200 OA
ATOM      5  O   UNL d   1     -49.287  13.007  23.030  0.00  0.00    -0.200 OA
BRANCH   3   6
ATOM      6  C   UNL d   1     -49.353  14.157  22.908  0.00  0.00     0.104 A 
ATOM      7  C   UNL d   1     -50.145  13.948  22.951  0.00  0.00     0.013 A 
ATOM      8  C   UNL d   1     -50.725  14.511  23.146  0.00  0.00     0.001 A 
ATOM      9  C   UNL d   1     -50.500  15.287  23.297  0.00  0.00     0.000 A 
ATOM     10  C   UNL d   1     -49.709  15.507  23.258  0.00  0.00     0.001 A 
ATOM     11  C   UNL d   1     -51.064  15.845  23.489  0.00  0.00     0.000 C 
ATOM     12  C   UNL d   1     -49.132  14.946  23.063  0.00  0.00     0.013 A 
ENDBRANCH   3   6
ENDBRANCH   1   3
BRANCH   1  13
ATOM     13  C   UNL d   1     -47.817  12.642  23.122  0.00  0.00     0.092 C 
BRANCH  13  14
ATOM     14  C   UNL d   1     -47.053  12.357  22.983  0.00  0.00     0.025 C 
BRANCH  14  15
ATOM     15  C   UNL d   1     -46.675  11.902  23.558  0.00  0.00     0.064 C 
BRANCH  15  16
ATOM     16  C   UNL d   1     -45.886  11.684  23.458  0.00  0.00     0.279 C 
ATOM     17  N   UNL d   1     -45.653  10.898  23.573  0.00  0.00    -0.208 NA
ATOM     18  O   UNL d   1     -45.325  12.251  23.243  0.00  0.00    -0.265 OA
BRANCH  17  19
ATOM     19  C   UNL d   1     -44.865  10.680  23.474  0.00  0.00     0.088 A 
ATOM     20  C   UNL d   1     -44.614   9.930  23.698  0.00  0.00     0.040 A 
ATOM     21  C   UNL d   1     -43.827   9.707  23.601  0.00  0.00     0.101 A 
ATOM     22  N   UNL d   1     -43.285  10.243  23.275  0.00  0.00    -0.242 NA
ATOM     23  C   UNL d   1     -43.537  10.997  23.050  0.00  0.00     0.101 A 
ATOM     24  C   UNL d   1     -44.326  11.214  23.149  0.00  0.00     0.040 A 
ENDBRANCH  17  19
ENDBRANCH  15  16
ENDBRANCH  14  15
ENDBRANCH  13  14
ENDBRANCH   1  13
TORSDOF 7
ENDMDL
MODEL 2
REMARK VINA RESULT:      -5.6      1.419      5.946
REMARK  7 active torsions:
REMARK  status: ('A' for Active; 'I' for Inactive)
REMARK    1  A    between atoms: C_2  and  S_1 
REMARK    2  A    between atoms: N_3  and  S_1 
REMARK    3  A    between atoms: C_18  and  N_3 
REMARK    4  A    between atoms: C_6  and  C_21 
REMARK       I    between atoms: N_7  and  C_6 
REMARK    5  A    between atoms: C_12  and  N_7 
REMARK    6  A    between atoms: C_22  and  C_18 
REMARK    7  A    between atoms: C_21  and  C_22 
ROOT
ATOM      1  N   UNL d   1     -45.951  12.673  22.889  0.00  0.00    -0.228 N 
ATOM      2  C   UNL d   1     -45.718  13.222  22.334  0.00  0.00     0.111 C 
ENDROOT
BRANCH   1   3
ATOM      3  S   UNL d   1     -45.478  12.020  23.052  0.00  0.00     0.271 S 
ATOM      4  O   UNL d   1     -44.874  12.379  22.659  0.00  0.00    -0.200 OA
ATOM      5  O   UNL d   1     -46.101  11.647  23.458  0.00  0.00    -0.200 OA
BRANCH   3   6
ATOM      6  C   UNL d   1     -45.003  11.376  23.209  0.00  0.00     0.104 A 
ATOM      7  C   UNL d   1     -44.201  11.404  23.044  0.00  0.00     0.013 A 
ATOM      8  C   UNL d   1     -43.710  10.753  23.201  0.00  0.00     0.001 A 
ATOM      9  C   UNL d   1     -44.035  10.071  23.526  0.00  0.00     0.000 A 
ATOM     10  C   UNL d   1     -44.838  10.032  23.696  0.00  0.00     0.001 A 
ATOM     11  C   UNL d   1     -43.557   9.427  23.683  0.00  0.00     0.000 C 
ATOM     12  C   UNL d   1     -45.327  10.682  23.539  0.00  0.00     0.013 A 
ENDBRANCH   3   6
ENDBRANCH   1   3
BRANCH   1  13
ATOM     13  C   UNL d   1     -46.665  12.769  23.295  0.00  0.00     0.092 C 
BRANCH  13  14
ATOM     14  C   UNL d   1     -47.227  13.305  23.010  0.00  0.00     0.025 C 
BRANCH  14  15
ATOM     15  C   UNL d   1     -47.915  13.444  23.443  0.00  0.00     0.064 C 
BRANCH  15  16
ATOM     16  C   UNL d   1     -48.528  13.888  23.112  0.00  0.00     0.279 C 
ATOM     17  N   UNL d   1     -49.227  13.516  22.872  0.00  0.00    -0.208 NA
ATOM     18  O   UNL d   1     -48.443  14.704  23.021  0.00  0.00    -0.265 OA
BRANCH  17  19
ATOM     19  C   UNL d   1     -49.839  13.959  22.542  0.00  0.00     0.088 A 
ATOM     20  C   UNL d   1     -50.219  14.534  22.991  0.00  0.00     0.040 A 
ATOM     21  C   UNL d   1     -50.831  14.980  22.666  0.00  0.00     0.101 A 
ATOM     22  N   UNL d   1     -51.064  14.847  21.882  0.00  0.00    -0.242 NA
ATOM     23  C   UNL d   1     -50.683  14.270  21.431  0.00  0.00     0.101 A 
ATOM     24  C   UNL d   1     -50.071  13.826  21.761  0.00  0.00     0.040 A 
ENDBRANCH  17  19
ENDBRANCH  15  16
ENDBRANCH  14  15
ENDBRANCH  13  14
ENDBRANCH   1  13
TORSDOF 7
ENDMDL
MODEL 3
REMARK VINA RESULT:      -5.5      3.399      4.454
REMARK  7 active torsions:
REMARK  status: ('A' for Active; 'I' for Inactive)
REMARK    1  A    between atoms: C_2  and  S_1 
REMARK    2  A    between atoms: N_3  and  S_1 
REMARK    3  A    between atoms: C_18  and  N_3 
REMARK    4  A    between atoms: C_6  and  C_21 
REMARK       I    between atoms: N_7  and  C_6 
REMARK    5  A    between atoms: C_12  and  N_7 
REMARK    6  A    between atoms: C_22  and  C_18 
REMARK    7  A    between atoms: C_21  and  C_22 
ROOT
ATOM      1  N   UNL d   1     -44.853  12.679  22.196  0.00  0.00    -0.228 N 
ATOM      2  C   UNL d   1     -44.631  12.023  22.623  0.00  0.00     0.111 C 
ENDROOT
BRANCH   1   3
ATOM      3  S   UNL d   1     -45.582  13.036  22.331  0.00  0.00     0.271 S 
ATOM      4  O   UNL d   1     -45.657  13.146  21.537  0.00  0.00    -0.200 OA
ATOM      5  O   UNL d   1     -45.507  12.922  23.151  0.00  0.00    -0.200 OA
BRANCH   3   6
ATOM      6  C   UNL d   1     -46.305  13.390  22.456  0.00  0.00     0.104 A 
ATOM      7  C   UNL d   1     -46.345  14.145  22.772  0.00  0.00     0.013 A 
ATOM      8  C   UNL d   1     -47.078  14.514  22.903  0.00  0.00     0.001 A 
ATOM      9  C   UNL d   1     -47.771  14.115  22.713  0.00  0.00     0.000 A 
ATOM     10  C   UNL d   1     -47.743  13.358  22.396  0.00  0.00     0.001 A 
ATOM     11  C   UNL d   1     -48.495  14.473  22.840  0.00  0.00     0.000 C 
ATOM     12  C   UNL d   1     -47.012  12.990  22.266  0.00  0.00     0.013 A 
ENDBRANCH   3   6
ENDBRANCH   1   3
BRANCH   1  13
ATOM     13  C   UNL d   1     -44.347  12.992  21.622  0.00  0.00     0.092 C 
BRANCH  13  14
ATOM     14  C   UNL d   1     -43.531  12.884  21.694  0.00  0.00     0.025 C 
BRANCH  14  15
ATOM     15  C   UNL d   1     -43.036  13.061  21.059  0.00  0.00     0.064 C 
BRANCH  15  16
ATOM     16  C   UNL d   1     -42.309  13.430  21.191  0.00  0.00     0.279 C 
ATOM     17  N   UNL d   1     -42.018  13.982  20.648  0.00  0.00    -0.208 NA
ATOM     18  O   UNL d   1     -41.871  13.247  21.868  0.00  0.00    -0.265 OA
BRANCH  17  19
ATOM     19  C   UNL d   1     -41.292  14.350  20.781  0.00  0.00     0.088 A 
ATOM     20  C   UNL d   1     -41.268  15.124  21.056  0.00  0.00     0.040 A 
ATOM     21  C   UNL d   1     -40.545  15.496  21.190  0.00  0.00     0.101 A 
ATOM     22  N   UNL d   1     -39.839  15.087  21.046  0.00  0.00    -0.242 NA
ATOM     23  C   UNL d   1     -39.864  14.309  20.770  0.00  0.00     0.101 A 
ATOM     24  C   UNL d   1     -40.589  13.941  20.637  0.00  0.00     0.040 A 
ENDBRANCH  17  19
ENDBRANCH  15  16
ENDBRANCH  14  15
ENDBRANCH  13  14
ENDBRANCH   1  13
TORSDOF 7
ENDMDL
MODEL 4
REMARK VINA RESULT:      -5.5      3.020      4.091
REMARK  7 active torsions:
REMARK  status: ('A' for Active; 'I' for Inactive)
REMARK    1  A    between atoms: C_2  and  S_1 
REMARK    2  A    between atoms: N_3  and  S_1 
REMARK    3  A    between atoms: C_18  and  N_3 
REMARK    4  A    between atoms: C_6  and  C_21 
REMARK       I    between atoms: N_7  and  C_6 
REMARK    5  A    between atoms: C_12  and  N_7 
REMARK    6  A    between atoms: C_22  and  C_18 
REMARK    7  A    between atoms: C_21  and  C_22 
ROOT
ATOM      1  N   UNL d   1     -45.577  13.273  22.396  0.00  0.00    -0.228 N 
ATOM      2  C   UNL d   1     -45.500  14.082  22.439  0.00  0.00     0.111 C 
ENDROOT
BRANCH   1   3
ATOM      3  S   UNL d   1     -46.264  12.906  22.662  0.00  0.00     0.271 S 
ATOM      4  O   UNL d   1     -46.522  12.871  21.901  0.00  0.00    -0.200 OA
ATOM      5  O   UNL d   1     -45.999  12.941  23.451  0.00  0.00    -0.200 OA
BRANCH   3   6
ATOM      6  C   UNL d   1     -46.947  12.542  22.919  0.00  0.00     0.104 A 
ATOM      7  C   UNL d   1     -47.678  12.810  22.663  0.00  0.00     0.013 A 
ATOM      8  C   UNL d   1     -48.379  12.445  22.919  0.00  0.00     0.001 A 
ATOM      9  C   UNL d   1     -48.337  11.806  23.436  0.00  0.00     0.000 A 
ATOM     10  C   UNL d   1     -47.610  11.530  23.698  0.00  0.00     0.001 A 
ATOM     11  C   UNL d   1     -49.023  11.443  23.691  0.00  0.00     0.000 C 
ATOM     12  C   UNL d   1     -46.911  11.894  23.442  0.00  0.00     0.013 A 
ENDBRANCH   3   6
ENDBRANCH   1   3
BRANCH   1  13
ATOM     13  C   UNL d   1     -44.965  12.812  22.085  0.00  0.00     0.092 C 
BRANCH  13  14
ATOM     14  C   UNL d   1     -44.301  13.182  21.760  0.00  0.00     0.025 C 
BRANCH  14  15
ATOM     15  C   UNL d   1     -43.614  12.747  21.626  0.00  0.00     0.064 C 
BRANCH  15  16
ATOM     16  C   UNL d   1     -42.982  13.087  21.220  0.00  0.00     0.279 C 
ATOM     17  N   UNL d   1     -42.436  13.563  21.622  0.00  0.00    -0.208 NA
ATOM     18  O   UNL d   1     -42.892  12.953  20.410  0.00  0.00    -0.265 OA
BRANCH  17  19
ATOM     19  C   UNL d   1     -41.805  13.903  21.215  0.00  0.00     0.088 A 
ATOM     20  C   UNL d   1     -41.124  13.465  21.074  0.00  0.00     0.040 A 
ATOM     21  C   UNL d   1     -40.489  13.799  20.668  0.00  0.00     0.101 A 
ATOM     22  N   UNL d   1     -40.539  14.582  20.402  0.00  0.00    -0.242 NA
ATOM     23  C   UNL d   1     -41.223  15.023  20.545  0.00  0.00     0.101 A 
ATOM     24  C   UNL d   1     -41.855  14.683  20.951  0.00  0.00     0.040 A 
ENDBRANCH  17  19
ENDBRANCH  15  16
ENDBRANCH  14  15
ENDBRANCH  13  14
ENDBRANCH   1  13
TORSDOF 7
ENDMDL
MODEL 5
REMARK VINA RESULT:      -5.3      1.310      1.712
REMARK  7 active torsions:
REMARK  status: ('A' for Active; 'I' for Inactive)
REMARK    1  A    between atoms: C_2  and  S_1 
REMARK    2  A    between atoms: N_3  and  S_1 
REMARK    3  A    between atoms: C_18  and  N_3 
REMARK    4  A    between atoms: C_6  and  C_21 
REMARK       I    between atoms: N_7  and  C_6 
REMARK    5  A    between atoms: C_12  and  N_7 
REMARK    6  A    between atoms: C_22  and  C_18 
REMARK    7  A    between atoms: C_21  and  C_22 
ROOT
ATOM      1  N   UNL d   1     -48.262  13.066  22.713  0.00  0.00    -0.228 N 
ATOM      2  C   UNL d   1     -48.419  12.511  22.138  0.00  0.00     0.111 C 
ENDROOT
BRANCH   1   3
ATOM      3  S   UNL d   1     -48.826  13.633  22.908  0.00  0.00     0.271 S 
ATOM      4  O   UNL d   1     -48.646  14.022  22.227  0.00  0.00    -0.200 OA
ATOM      5  O   UNL d   1     -49.013  13.232  23.612  0.00  0.00    -0.200 OA
BRANCH   3   6
ATOM      6  C   UNL d   1     -49.382  14.199  23.094  0.00  0.00     0.104 A 
ATOM      7  C   UNL d   1     -49.176  14.992  23.104  0.00  0.00     0.013 A 
ATOM      8  C   UNL d   1     -49.737  15.576  23.293  0.00  0.00     0.001 A 
ATOM      9  C   UNL d   1     -50.508  15.353  23.471  0.00  0.00     0.000 A 
ATOM     10  C   UNL d   1     -50.725  14.561  23.464  0.00  0.00     0.001 A 
ATOM     11  C   UNL d   1     -51.064  15.922  23.657  0.00  0.00     0.000 C 
ATOM     12  C   UNL d   1     -50.166  13.980  23.276  0.00  0.00     0.013 A 
ENDBRANCH   3   6
ENDBRANCH   1   3
BRANCH   1  13
ATOM     13  C   UNL d   1     -47.535  13.064  23.106  0.00  0.00     0.092 C 
BRANCH  13  14
ATOM     14  C   UNL d   1     -46.834  13.059  22.668  0.00  0.00     0.025 C 
BRANCH  14  15
ATOM     15  C   UNL d   1     -46.177  12.650  22.951  0.00  0.00     0.064 C 
BRANCH  15  16
ATOM     16  C   UNL d   1     -45.427  12.809  22.645  0.00  0.00     0.279 C 
ATOM     17  N   UNL d   1     -44.952  12.192  22.366  0.00  0.00    -0.208 NA
ATOM     18  O   UNL d   1     -45.150  13.587  22.616  0.00  0.00    -0.265 OA
BRANCH  17  19
ATOM     19  C   UNL d   1     -44.203  12.351  22.060  0.00  0.00     0.088 A 
ATOM     20  C   UNL d   1     -44.121  12.858  21.418  0.00  0.00     0.040 A 
ATOM     21  C   UNL d   1     -43.375  13.021  21.108  0.00  0.00     0.101 A 
ATOM     22  N   UNL d   1     -42.705  12.671  21.446  0.00  0.00    -0.242 NA
ATOM     23  C   UNL d   1     -42.787  12.162  22.091  0.00  0.00     0.101 A 
ATOM     24  C   UNL d   1     -43.536  12.002  22.397  0.00  0.00     0.040 A 
ENDBRANCH  17  19
ENDBRANCH  15  16
ENDBRANCH  14  15
ENDBRANCH  13  14
ENDBRANCH   1  13
TORSDOF 7
ENDMDL
MODEL 6
REMARK VINA RESULT:      -5.2      1.933      6.030
REMARK  7 active torsions:
REMARK  status: ('A' for Active; 'I' for Inactive)
REMARK    1  A    between atoms: C_2  and  S_1 
REMARK    2  A    between atoms: N_3  and  S_1 
REMARK    3  A    between atoms: C_18  and  N_3 
REMARK    4  A    between atoms: C_6  and  C_21 
REMARK       I    between atoms: N_7  and  C_6 
REMARK    5  A    between atoms: C_12  and  N_7 
REMARK    6  A    between atoms: C_22  and  C_18 
REMARK    7  A    between atoms: C_21  and  C_22 
ROOT
ATOM      1  N   UNL d   1     -46.073  12.862  22.590  0.00  0.00    -0.228 N 
ATOM      2  C   UNL d   1     -46.247  12.440  23.264  0.00  0.00     0.111 C 
ENDROOT
BRANCH   1   3
ATOM      3  S   UNL d   1     -45.306  12.873  22.293  0.00  0.00     0.271 S 
ATOM      4  O   UNL d   1     -45.247  12.088  22.460  0.00  0.00    -0.200 OA
ATOM      5  O   UNL d   1     -45.365  13.685  22.119  0.00  0.00    -0.200 OA
BRANCH   3   6
ATOM      6  C   UNL d   1     -44.545  12.876  22.000  0.00  0.00     0.104 A 
ATOM      7  C   UNL d   1     -44.082  12.202  22.048  0.00  0.00     0.013 A 
ATOM      8  C   UNL d   1     -43.305  12.196  21.751  0.00  0.00     0.001 A 
ATOM      9  C   UNL d   1     -42.999  12.876  21.406  0.00  0.00     0.000 A 
ATOM     10  C   UNL d   1     -43.455  13.558  21.353  0.00  0.00     0.001 A 
ATOM     11  C   UNL d   1     -42.237  12.877  21.113  0.00  0.00     0.000 C 
ATOM     12  C   UNL d   1     -44.229  13.563  21.649  0.00  0.00     0.013 A 
ENDBRANCH   3   6
ENDBRANCH   1   3
BRANCH   1  13
ATOM     13  C   UNL d   1     -46.667  13.284  22.198  0.00  0.00     0.092 C 
BRANCH  13  14
ATOM     14  C   UNL d   1     -47.409  13.366  22.551  0.00  0.00     0.025 C 
BRANCH  14  15
ATOM     15  C   UNL d   1     -48.039  13.671  22.115  0.00  0.00     0.064 C 
BRANCH  15  16
ATOM     16  C   UNL d   1     -48.697  13.984  22.502  0.00  0.00     0.279 C 
ATOM     17  N   UNL d   1     -48.966  14.744  22.316  0.00  0.00    -0.208 NA
ATOM     18  O   UNL d   1     -49.088  13.539  23.077  0.00  0.00    -0.265 OA
BRANCH  17  19
ATOM     19  C   UNL d   1     -49.624  15.057  22.702  0.00  0.00     0.088 A 
ATOM     20  C   UNL d   1     -49.523  15.606  23.306  0.00  0.00     0.040 A 
ATOM     21  C   UNL d   1     -50.176  15.922  23.696  0.00  0.00     0.101 A 
ATOM     22  N   UNL d   1     -50.939  15.684  23.478  0.00  0.00    -0.242 NA
ATOM     23  C   UNL d   1     -51.041  15.132  22.871  0.00  0.00     0.101 A 
ATOM     24  C   UNL d   1     -50.383  14.820  22.484  0.00  0.00     0.040 A 
ENDBRANCH  17  19
ENDBRANCH  15  16
ENDBRANCH  14  15
ENDBRANCH  13  14
ENDBRANCH   1  13
TORSDOF 7
ENDMDL
MODEL 7
REMARK VINA RESULT:      -4.9      9.073     10.483
REMARK  7 active torsions:
REMARK  status: ('A' for Active; 'I' for Inactive)
REMARK    1  A    between atoms: C_2  and  S_1 
REMARK    2  A    between atoms: N_3  and  S_1 
REMARK    3  A    between atoms: C_18  and  N_3 
REMARK    4  A    between atoms: C_6  and  C_21 
REMARK       I    between atoms: N_7  and  C_6 
REMARK    5  A    between atoms: C_12  and  N_7 
REMARK    6  A    between atoms: C_22  and  C_18 
REMARK    7  A    between atoms: C_21  and  C_22 
ROOT
ATOM      1  N   UNL d   1     -39.557  15.225  18.181  0.00  0.00    -0.228 N 
ATOM      2  C   UNL d   1     -40.360  15.350  18.232  0.00  0.00     0.111 C 
ENDROOT
BRANCH   1   3
ATOM      3  S   UNL d   1     -39.232  14.878  17.510  0.00  0.00     0.271 S 
ATOM      4  O   UNL d   1     -39.451  15.526  17.087  0.00  0.00    -0.200 OA
ATOM      5  O   UNL d   1     -39.004  14.206  17.945  0.00  0.00    -0.200 OA
BRANCH   3   6
ATOM      6  C   UNL d   1     -38.912  14.540  16.840  0.00  0.00     0.104 A 
ATOM      7  C   UNL d   1     -38.823  14.984  16.157  0.00  0.00     0.013 A 
ATOM      8  C   UNL d   1     -38.498  14.648  15.470  0.00  0.00     0.001 A 
ATOM      9  C   UNL d   1     -38.262  13.860  15.478  0.00  0.00     0.000 A 
ATOM     10  C   UNL d   1     -38.346  13.407  16.157  0.00  0.00     0.001 A 
ATOM     11  C   UNL d   1     -37.941  13.524  14.806  0.00  0.00     0.000 C 
ATOM     12  C   UNL d   1     -38.671  13.742  16.842  0.00  0.00     0.013 A 
ENDBRANCH   3   6
ENDBRANCH   1   3
BRANCH   1  13
ATOM     13  C   UNL d   1     -39.062  15.446  18.805  0.00  0.00     0.092 C 
BRANCH  13  14
ATOM     14  C   UNL d   1     -39.364  15.482  19.573  0.00  0.00     0.025 C 
BRANCH  14  15
ATOM     15  C   UNL d   1     -38.946  15.883  20.160  0.00  0.00     0.064 C 
BRANCH  15  16
ATOM     16  C   UNL d   1     -39.013  15.649  20.948  0.00  0.00     0.279 C 
ATOM     17  N   UNL d   1     -38.416  15.195  21.300  0.00  0.00    -0.208 NA
ATOM     18  O   UNL d   1     -39.676  15.869  21.389  0.00  0.00    -0.265 OA
BRANCH  17  19
ATOM     19  C   UNL d   1     -38.483  14.961  22.087  0.00  0.00     0.088 A 
ATOM     20  C   UNL d   1     -38.499  15.527  22.684  0.00  0.00     0.040 A 
ATOM     21  C   UNL d   1     -38.566  15.299  23.473  0.00  0.00     0.101 A 
ATOM     22  N   UNL d   1     -38.617  14.495  23.665  0.00  0.00    -0.242 NA
ATOM     23  C   UNL d   1     -38.601  13.927  23.066  0.00  0.00     0.101 A 
ATOM     24  C   UNL d   1     -38.534  14.160  22.278  0.00  0.00     0.040 A 
ENDBRANCH  17  19
ENDBRANCH  15  16
ENDBRANCH  14  15
ENDBRANCH  13  14
ENDBRANCH   1  13
TORSDOF 7
ENDMDL
MODEL 8
REMARK VINA RESULT:      -4.8      4.613      7.179
REMARK  7 active torsions:
REMARK  status: ('A' for Active; 'I' for Inactive)
REMARK    1  A    between atoms: C_2  and  S_1 
REMARK    2  A    between atoms: N_3  and  S_1 
REMARK    3  A    between atoms: C_18  and  N_3 
REMARK    4  A    between atoms: C_6  and  C_21 
REMARK       I    between atoms: N_7  and  C_6 
REMARK    5  A    between atoms: C_12  and  N_7 
REMARK    6  A    between atoms: C_22  and  C_18 
REMARK    7  A    between atoms: C_21  and  C_22 
ROOT
ATOM      1  N   UNL d   1     -41.711  13.715  21.021  0.00  0.00    -0.228 N 
ATOM      2  C   UNL d   1     -41.374  13.501  21.730  0.00  0.00     0.111 C 
ENDROOT
BRANCH   1   3
ATOM      3  S   UNL d   1     -41.287  14.162  20.476  0.00  0.00     0.271 S 
ATOM      4  O   UNL d   1     -41.503  13.641  19.903  0.00  0.00    -0.200 OA
ATOM      5  O   UNL d   1     -41.062  14.703  21.068  0.00  0.00    -0.200 OA
BRANCH   3   6
ATOM      6  C   UNL d   1     -40.868  14.600  19.931  0.00  0.00     0.104 A 
ATOM      7  C   UNL d   1     -40.380  14.227  19.389  0.00  0.00     0.013 A 
ATOM      8  C   UNL d   1     -39.949  14.666  18.829  0.00  0.00     0.001 A 
ATOM      9  C   UNL d   1     -40.015  15.485  18.820  0.00  0.00     0.000 A 
ATOM     10  C   UNL d   1     -40.502  15.869  19.359  0.00  0.00     0.001 A 
ATOM     11  C   UNL d   1     -39.595  15.922  18.273  0.00  0.00     0.000 C 
ATOM     12  C   UNL d   1     -40.931  15.432  19.916  0.00  0.00     0.013 A 
ENDBRANCH   3   6
ENDBRANCH   1   3
BRANCH   1  13
ATOM     13  C   UNL d   1     -42.485  13.484  20.842  0.00  0.00     0.092 C 
BRANCH  13  14
ATOM     14  C   UNL d   1     -42.963  13.165  21.436  0.00  0.00     0.025 C 
BRANCH  14  15
ATOM     15  C   UNL d   1     -43.705  12.860  21.245  0.00  0.00     0.064 C 
BRANCH  15  16
ATOM     16  C   UNL d   1     -44.300  12.832  21.816  0.00  0.00     0.279 C 
ATOM     17  N   UNL d   1     -45.021  13.216  21.685  0.00  0.00    -0.208 NA
ATOM     18  O   UNL d   1     -44.175  12.419  22.521  0.00  0.00    -0.265 OA
BRANCH  17  19
ATOM     19  C   UNL d   1     -45.615  13.187  22.256  0.00  0.00     0.088 A 
ATOM     20  C   UNL d   1     -46.007  12.480  22.406  0.00  0.00     0.040 A 
ATOM     21  C   UNL d   1     -46.602  12.446  22.976  0.00  0.00     0.101 A 
ATOM     22  N   UNL d   1     -46.804  13.128  23.399  0.00  0.00    -0.242 NA
ATOM     23  C   UNL d   1     -46.410  13.838  23.249  0.00  0.00     0.101 A 
ATOM     24  C   UNL d   1     -45.816  13.867  22.678  0.00  0.00     0.040 A 
ENDBRANCH  17  19
ENDBRANCH  15  16
ENDBRANCH  14  15
ENDBRANCH  13  14
ENDBRANCH   1  13
TORSDOF 7
ENDMDL
