MODEL 1
REMARK VINA RESULT:      -5.3      0.000      0.000
REMARK  1 active torsions:
REMARK  status: ('A' for Active; 'I' for Inactive)
REMARK    1  A    between atoms: C_4  and  C_1 
REMARK       I    between atoms: N_5  and  C_1 
ROOT
ATOM      1  N   UNL d   1     -41.124-123.208 -53.708  0.00  0.00    -0.242 NA
ATOM      2  C   UNL d   1     -42.105-122.229 -54.613  0.00  0.00     0.062 A 
ATOM      3  C   UNL d   1     -41.386-122.484 -53.407  0.00  0.00     0.099 A 
ATOM      4  C   UNL d   1     -41.359-123.438 -54.468  0.00  0.00     0.099 A 
ATOM      5  C   UNL d   1     -41.848-122.950 -54.920  0.00  0.00     0.025 A 
ATOM      6  C   UNL d   1     -41.875-121.996 -53.859  0.00  0.00     0.025 A 
ENDROOT
BRANCH   2   7
ATOM      7  C   UNL d   1     -42.373-121.913 -54.805  0.00  0.00     0.298 C 
ATOM      8  O   UNL d   1     -42.996-121.612 -54.575  0.00  0.00    -0.264 OA
ATOM      9  N   UNL d   1     -42.183-121.615 -55.483  0.00  0.00    -0.085 NA
ATOM     10  N   UNL d   1     -41.728-121.890 -55.566  0.00  0.00    -0.019 N 
ENDBRANCH   2   7
TORSDOF 1
ENDMDL
MODEL 2
REMARK VINA RESULT:      -4.5      0.937      1.852
REMARK  1 active torsions:
REMARK  status: ('A' for Active; 'I' for Inactive)
REMARK    1  A    between atoms: C_4  and  C_1 
REMARK       I    between atoms: N_5  and  C_1 
ROOT
ATOM      1  N   UNL d   1     -42.458-121.746 -55.450  0.00  0.00    -0.242 NA
ATOM      2  C   UNL d   1     -41.633-122.503 -54.231  0.00  0.00     0.062 A 
ATOM      3  C   UNL d   1     -42.621-121.568 -54.660  0.00  0.00     0.099 A 
ATOM      4  C   UNL d   1     -41.876-122.309 -55.624  0.00  0.00     0.099 A 
ATOM      5  C   UNL d   1     -41.464-122.687 -55.017  0.00  0.00     0.025 A 
ATOM      6  C   UNL d   1     -42.209-121.945 -54.052  0.00  0.00     0.025 A 
ENDROOT
BRANCH   2   7
ATOM      7  C   UNL d   1     -41.447-122.671 -53.849  0.00  0.00     0.298 C 
ATOM      8  O   UNL d   1     -41.123-122.336 -53.289  0.00  0.00    -0.264 OA
ATOM      9  N   UNL d   1     -41.449-123.426 -53.727  0.00  0.00    -0.085 NA
ATOM     10  N   UNL d   1     -41.699-123.579 -54.177  0.00  0.00    -0.019 N 
ENDBRANCH   2   7
TORSDOF 1
ENDMDL
MODEL 3
REMARK VINA RESULT:      -3.7      1.945      2.477
REMARK  1 active torsions:
REMARK  status: ('A' for Active; 'I' for Inactive)
REMARK    1  A    between atoms: C_4  and  C_1 
REMARK       I    between atoms: N_5  and  C_1 
ROOT
ATOM      1  N   UNL d   1     -41.211-123.389 -51.040  0.00  0.00    -0.242 NA
ATOM      2  C   UNL d   1     -41.149-122.598 -52.493  0.00  0.00     0.062 A 
ATOM      3  C   UNL d   1     -41.231-122.564 -51.069  0.00  0.00     0.099 A 
ATOM      4  C   UNL d   1     -41.158-123.817 -51.749  0.00  0.00     0.099 A 
ATOM      5  C   UNL d   1     -41.127-123.422 -52.472  0.00  0.00     0.025 A 
ATOM      6  C   UNL d   1     -41.200-122.170 -51.793  0.00  0.00     0.025 A 
ENDROOT
BRANCH   2   7
ATOM      7  C   UNL d   1     -41.135-122.317 -52.853  0.00  0.00     0.298 C 
ATOM      8  O   UNL d   1     -41.123-121.590 -52.892  0.00  0.00    -0.264 OA
ATOM      9  N   UNL d   1     -41.123-122.610 -53.560  0.00  0.00    -0.085 NA
ATOM     10  N   UNL d   1     -41.134-123.131 -53.431  0.00  0.00    -0.019 N 
ENDBRANCH   2   7
TORSDOF 1
ENDMDL
MODEL 4
REMARK VINA RESULT:      -3.6      2.398      3.200
REMARK  1 active torsions:
REMARK  status: ('A' for Active; 'I' for Inactive)
REMARK    1  A    between atoms: C_4  and  C_1 
REMARK       I    between atoms: N_5  and  C_1 
ROOT
ATOM      1  N   UNL d   1     -41.141-123.655 -52.660  0.00  0.00    -0.242 NA
ATOM      2  C   UNL d   1     -41.352-122.352 -51.662  0.00  0.00     0.062 A 
ATOM      3  C   UNL d   1     -41.265-122.902 -52.975  0.00  0.00     0.099 A 
ATOM      4  C   UNL d   1     -41.123-123.750 -51.837  0.00  0.00     0.099 A 
ATOM      5  C   UNL d   1     -41.229-123.101 -51.339  0.00  0.00     0.025 A 
ATOM      6  C   UNL d   1     -41.370-122.252 -52.478  0.00  0.00     0.025 A 
ENDROOT
BRANCH   2   7
ATOM      7  C   UNL d   1     -41.417-121.953 -51.449  0.00  0.00     0.298 C 
ATOM      8  O   UNL d   1     -41.123-121.296 -51.565  0.00  0.00    -0.264 OA
ATOM      9  N   UNL d   1     -41.908-121.912 -50.863  0.00  0.00    -0.085 NA
ATOM     10  N   UNL d   1     -42.066-122.425 -50.856  0.00  0.00    -0.019 N 
ENDBRANCH   2   7
TORSDOF 1
ENDMDL
MODEL 5
REMARK VINA RESULT:      -3.4      4.082      4.878
REMARK  1 active torsions:
REMARK  status: ('A' for Active; 'I' for Inactive)
REMARK    1  A    between atoms: C_4  and  C_1 
REMARK       I    between atoms: N_5  and  C_1 
ROOT
ATOM      1  N   UNL d   1     -42.049-123.273 -48.404  0.00  0.00    -0.242 NA
ATOM      2  C   UNL d   1     -42.114-122.779 -49.983  0.00  0.00     0.062 A 
ATOM      3  C   UNL d   1     -42.767-123.043 -48.742  0.00  0.00     0.099 A 
ATOM      4  C   UNL d   1     -41.361-123.253 -48.866  0.00  0.00     0.099 A 
ATOM      5  C   UNL d   1     -41.394-123.007 -49.653  0.00  0.00     0.025 A 
ATOM      6  C   UNL d   1     -42.800-122.796 -49.529  0.00  0.00     0.025 A 
ENDROOT
BRANCH   2   7
ATOM      7  C   UNL d   1     -42.205-122.634 -50.406  0.00  0.00     0.298 C 
ATOM      8  O   UNL d   1     -42.550-122.038 -50.643  0.00  0.00    -0.264 OA
ATOM      9  N   UNL d   1     -41.978-123.050 -51.006  0.00  0.00    -0.085 NA
ATOM     10  N   UNL d   1     -41.743-123.453 -50.739  0.00  0.00    -0.019 N 
ENDBRANCH   2   7
TORSDOF 1
ENDMDL
