MODEL 1
REMARK VINA RESULT:       8.3      0.000      0.000
REMARK  4 active torsions:
REMARK  status: ('A' for Active; 'I' for Inactive)
REMARK    1  A    between atoms: C_10  and  C_2 
REMARK    2  A    between atoms: C_13  and  C_6 
REMARK    3  A    between atoms: O_17  and  C_10 
REMARK    4  A    between atoms: C_23  and  O_17 
ROOT
ATOM      1  C   UNL d   1     -42.181-123.087 -49.411  0.00  0.00     0.081 A 
ATOM      2  C   UNL d   1     -42.172-123.133 -50.843  0.00  0.00     0.106 A 
ATOM      3  C   UNL d   1     -41.470-123.576 -50.830  0.00  0.00     0.208 A 
ATOM      4  C   UNL d   1     -41.478-123.531 -49.397  0.00  0.00     0.108 A 
ATOM      5  C   UNL d   1     -42.531-122.846 -48.701  0.00  0.00     0.281 A 
ATOM      6  C   UNL d   1     -42.530-122.887 -50.133  0.00  0.00     0.015 A 
ATOM      7  O   UNL d   1     -41.128-123.772 -50.100  0.00  0.00    -0.288 OA
ATOM      8  N   UNL d   1     -42.182-123.047 -47.977  0.00  0.00    -0.208 NA
ATOM      9  C   UNL d   1     -41.126-123.734 -48.675  0.00  0.00     0.044 A 
ATOM     10  C   UNL d   1     -41.476-123.492 -47.956  0.00  0.00     0.087 A 
ATOM     11  O   UNL d   1     -43.226-122.407 -48.717  0.00  0.00    -0.265 OA
ATOM     12  N   UNL d   1     -41.123-123.815 -51.528  0.00  0.00    -0.121 N 
ATOM     13  C   UNL d   1     -41.135-123.688 -47.242  0.00  0.00     0.021 C 
ENDROOT
BRANCH   6  14
ATOM     14  C   UNL d   1     -43.224-122.448 -50.146  0.00  0.00     0.004 A 
ATOM     15  C   UNL d   1     -43.950-122.837 -50.117  0.00  0.00     0.021 A 
ATOM     16  C   UNL d   1     -44.645-122.398 -50.129  0.00  0.00     0.099 A 
ATOM     17  N   UNL d   1     -44.611-121.578 -50.170  0.00  0.00    -0.242 NA
ATOM     18  C   UNL d   1     -43.879-121.193 -50.198  0.00  0.00     0.099 A 
ATOM     19  C   UNL d   1     -43.191-121.628 -50.186  0.00  0.00     0.021 A 
ENDBRANCH   6  14
BRANCH   2  20
ATOM     20  C   UNL d   1     -42.514-122.937 -51.565  0.00  0.00     0.304 C 
ATOM     21  O   UNL d   1     -43.138-123.387 -51.854  0.00  0.00    -0.259 OA
BRANCH  20  22
ATOM     22  O   UNL d   1     -42.236-122.300 -51.993  0.00  0.00    -0.271 OA
BRANCH  22  23
ATOM     23  C   UNL d   1     -42.006-122.385 -52.777  0.00  0.00     0.126 C 
ATOM     24  C   UNL d   1     -41.963-121.722 -53.265  0.00  0.00     0.029 C 
ENDBRANCH  22  23
ENDBRANCH  20  22
ENDBRANCH   2  20
TORSDOF 4
ENDMDL
MODEL 2
REMARK VINA RESULT:      10.8      1.958      2.951
REMARK  4 active torsions:
REMARK  status: ('A' for Active; 'I' for Inactive)
REMARK    1  A    between atoms: C_10  and  C_2 
REMARK    2  A    between atoms: C_13  and  C_6 
REMARK    3  A    between atoms: O_17  and  C_10 
REMARK    4  A    between atoms: C_23  and  O_17 
ROOT
ATOM      1  C   UNL d   1     -41.597-122.498 -51.834  0.00  0.00     0.081 A 
ATOM      2  C   UNL d   1     -41.723-122.553 -53.260  0.00  0.00     0.106 A 
ATOM      3  C   UNL d   1     -41.709-123.382 -53.235  0.00  0.00     0.208 A 
ATOM      4  C   UNL d   1     -41.584-123.329 -51.808  0.00  0.00     0.108 A 
ATOM      5  C   UNL d   1     -41.541-122.062 -51.133  0.00  0.00     0.281 A 
ATOM      6  C   UNL d   1     -41.667-122.108 -52.560  0.00  0.00     0.015 A 
ATOM      7  O   UNL d   1     -41.639-123.765 -52.502  0.00  0.00    -0.288 OA
ATOM      8  N   UNL d   1     -41.472-122.453 -50.406  0.00  0.00    -0.208 NA
ATOM      9  C   UNL d   1     -41.514-123.723 -51.083  0.00  0.00     0.044 A 
ATOM     10  C   UNL d   1     -41.457-123.287 -50.372  0.00  0.00     0.087 A 
ATOM     11  O   UNL d   1     -41.555-121.241 -51.161  0.00  0.00    -0.265 OA
ATOM     12  N   UNL d   1     -41.765-123.814 -53.924  0.00  0.00    -0.121 N 
ATOM     13  C   UNL d   1     -41.388-123.669 -49.655  0.00  0.00     0.021 C 
ENDROOT
BRANCH   6  14
ATOM     14  C   UNL d   1     -41.681-121.286 -52.584  0.00  0.00     0.004 A 
ATOM     15  C   UNL d   1     -42.257-120.904 -53.032  0.00  0.00     0.021 A 
ATOM     16  C   UNL d   1     -42.270-120.082 -53.056  0.00  0.00     0.099 A 
ATOM     17  N   UNL d   1     -41.712-119.650 -52.635  0.00  0.00    -0.242 NA
ATOM     18  C   UNL d   1     -41.136-120.040 -52.187  0.00  0.00     0.099 A 
ATOM     19  C   UNL d   1     -41.123-120.854 -52.163  0.00  0.00     0.021 A 
ENDBRANCH   6  14
BRANCH   2  20
ATOM     20  C   UNL d   1     -41.793-122.170 -53.986  0.00  0.00     0.304 C 
ATOM     21  O   UNL d   1     -41.123-121.856 -54.344  0.00  0.00    -0.259 OA
BRANCH  20  22
ATOM     22  O   UNL d   1     -42.520-122.103 -54.348  0.00  0.00    -0.271 OA
BRANCH  22  23
ATOM     23  C   UNL d   1     -42.580-121.926 -55.148  0.00  0.00     0.126 C 
ATOM     24  C   UNL d   1     -42.900-122.480 -55.667  0.00  0.00     0.029 C 
ENDBRANCH  22  23
ENDBRANCH  20  22
ENDBRANCH   2  20
TORSDOF 4
ENDMDL
MODEL 3
REMARK VINA RESULT:      11.0      2.033      4.237
REMARK  4 active torsions:
REMARK  status: ('A' for Active; 'I' for Inactive)
REMARK    1  A    between atoms: C_10  and  C_2 
REMARK    2  A    between atoms: C_13  and  C_6 
REMARK    3  A    between atoms: O_17  and  C_10 
REMARK    4  A    between atoms: C_23  and  O_17 
ROOT
ATOM      1  C   UNL d   1     -41.676-122.563 -53.345  0.00  0.00     0.081 A 
ATOM      2  C   UNL d   1     -41.433-121.403 -52.539  0.00  0.00     0.106 A 
ATOM      3  C   UNL d   1     -41.306-120.949 -53.221  0.00  0.00     0.208 A 
ATOM      4  C   UNL d   1     -41.548-122.108 -54.029  0.00  0.00     0.108 A 
ATOM      5  C   UNL d   1     -41.861-123.367 -53.412  0.00  0.00     0.281 A 
ATOM      6  C   UNL d   1     -41.619-122.212 -52.598  0.00  0.00     0.015 A 
ATOM      7  O   UNL d   1     -41.365-121.310 -53.966  0.00  0.00    -0.288 OA
ATOM      8  N   UNL d   1     -41.918-123.718 -54.160  0.00  0.00    -0.208 NA
ATOM      9  C   UNL d   1     -41.605-122.456 -54.779  0.00  0.00     0.044 A 
ATOM     10  C   UNL d   1     -41.791-123.267 -54.851  0.00  0.00     0.087 A 
ATOM     11  O   UNL d   1     -41.986-123.815 -52.734  0.00  0.00    -0.265 OA
ATOM     12  N   UNL d   1     -41.124-120.157 -53.158  0.00  0.00    -0.121 N 
ATOM     13  C   UNL d   1     -41.848-123.616 -55.586  0.00  0.00     0.021 C 
ENDROOT
BRANCH   6  14
ATOM     14  C   UNL d   1     -41.745-122.663 -51.923  0.00  0.00     0.004 A 
ATOM     15  C   UNL d   1     -41.125-123.107 -51.610  0.00  0.00     0.021 A 
ATOM     16  C   UNL d   1     -41.252-123.558 -50.935  0.00  0.00     0.099 A 
ATOM     17  N   UNL d   1     -41.991-123.563 -50.577  0.00  0.00    -0.242 NA
ATOM     18  C   UNL d   1     -42.610-123.115 -50.896  0.00  0.00     0.099 A 
ATOM     19  C   UNL d   1     -42.485-122.669 -51.565  0.00  0.00     0.021 A 
ENDBRANCH   6  14
BRANCH   2  20
ATOM     20  C   UNL d   1     -41.375-121.049 -51.798  0.00  0.00     0.304 C 
ATOM     21  O   UNL d   1     -41.159-121.502 -51.148  0.00  0.00    -0.259 OA
BRANCH  20  22
ATOM     22  O   UNL d   1     -41.529-120.253 -51.710  0.00  0.00    -0.271 OA
BRANCH  22  23
ATOM     23  C   UNL d   1     -41.129-119.804 -51.150  0.00  0.00     0.126 C 
ATOM     24  C   UNL d   1     -41.151-118.981 -51.194  0.00  0.00     0.029 C 
ENDBRANCH  22  23
ENDBRANCH  20  22
ENDBRANCH   2  20
TORSDOF 4
ENDMDL
