MODEL 1
REMARK VINA RESULT:      22.4      0.000      0.000
REMARK  1 active torsions:
REMARK  status: ('A' for Active; 'I' for Inactive)
REMARK    1  A    between atoms: C_8  and  C_4 
ROOT
ATOM      1  N   UNL d   1     -52.045  26.008  33.440  0.00  0.00    -0.211 NA
ATOM      2  C   UNL d   1     -51.529  26.652  33.420  0.00  0.00     0.140 A 
ATOM      3  C   UNL d   1     -50.708  26.538  33.382  0.00  0.00     0.051 A 
ATOM      4  C   UNL d   1     -51.740  25.236  33.421  0.00  0.00     0.183 A 
ATOM      5  C   UNL d   1     -50.398  25.753  33.363  0.00  0.00     0.104 A 
ATOM      6  O   UNL d   1     -50.920  25.112  33.383  0.00  0.00    -0.289 OA
ATOM      7  S   UNL d   1     -51.835  27.424  33.439  0.00  0.00    -0.057 SA
ATOM      8  C   UNL d   1     -50.186  27.176  33.362  0.00  0.00     0.004 A 
ATOM      9  C   UNL d   1     -49.590  25.634  33.326  0.00  0.00     0.025 A 
ATOM     10  C   UNL d   1     -49.372  27.054  33.324  0.00  0.00     0.000 A 
ATOM     11  C   UNL d   1     -49.066  26.282  33.306  0.00  0.00     0.002 A 
ENDROOT
BRANCH   4  12
ATOM     12  C   UNL d   1     -52.257  24.582  33.441  0.00  0.00     0.041 A 
ATOM     13  C   UNL d   1     -51.962  23.829  33.586  0.00  0.00     0.004 A 
ATOM     14  C   UNL d   1     -52.470  23.188  33.605  0.00  0.00     0.000 A 
ATOM     15  C   UNL d   1     -53.276  23.299  33.478  0.00  0.00     0.000 A 
ATOM     16  C   UNL d   1     -53.565  24.049  33.334  0.00  0.00     0.000 A 
ATOM     17  C   UNL d   1     -53.049  24.704  33.314  0.00  0.00     0.004 A 
ENDBRANCH   4  12
TORSDOF 1
ENDMDL
MODEL 2
REMARK VINA RESULT:      24.3      1.399      1.792
REMARK  1 active torsions:
REMARK  status: ('A' for Active; 'I' for Inactive)
REMARK    1  A    between atoms: C_8  and  C_4 
ROOT
ATOM      1  N   UNL d   1     -51.446  23.741  33.540  0.00  0.00    -0.211 NA
ATOM      2  C   UNL d   1     -50.646  23.942  33.515  0.00  0.00     0.140 A 
ATOM      3  C   UNL d   1     -50.409  24.735  33.452  0.00  0.00     0.051 A 
ATOM      4  C   UNL d   1     -52.022  24.338  33.501  0.00  0.00     0.183 A 
ATOM      5  C   UNL d   1     -50.995  25.342  33.413  0.00  0.00     0.104 A 
ATOM      6  O   UNL d   1     -51.795  25.134  33.438  0.00  0.00    -0.289 OA
ATOM      7  S   UNL d   1     -50.070  23.345  33.553  0.00  0.00    -0.057 SA
ATOM      8  C   UNL d   1     -49.613  24.946  33.426  0.00  0.00     0.004 A 
ATOM      9  C   UNL d   1     -50.768  26.125  33.351  0.00  0.00     0.025 A 
ATOM     10  C   UNL d   1     -49.385  25.735  33.363  0.00  0.00     0.000 A 
ATOM     11  C   UNL d   1     -49.962  26.333  33.325  0.00  0.00     0.002 A 
ENDROOT
BRANCH   4  12
ATOM     12  C   UNL d   1     -52.832  24.140  33.526  0.00  0.00     0.041 A 
ATOM     13  C   UNL d   1     -53.064  23.385  33.754  0.00  0.00     0.004 A 
ATOM     14  C   UNL d   1     -53.858  23.192  33.777  0.00  0.00     0.000 A 
ATOM     15  C   UNL d   1     -54.424  23.755  33.573  0.00  0.00     0.000 A 
ATOM     16  C   UNL d   1     -54.189  24.504  33.348  0.00  0.00     0.000 A 
ATOM     17  C   UNL d   1     -53.379  24.702  33.323  0.00  0.00     0.004 A 
ENDBRANCH   4  12
TORSDOF 1
ENDMDL
