MODEL 1
REMARK VINA RESULT:      -6.7      0.000      0.000
REMARK  6 active torsions:
REMARK  status: ('A' for Active; 'I' for Inactive)
REMARK    1  A    between atoms: N_7  and  C_1 
REMARK    2  A    between atoms: C_6  and  C_4 
REMARK    3  A    between atoms: C_20  and  N_9 
REMARK    4  A    between atoms: C_23  and  C_13 
REMARK    5  A    between atoms: O_19  and  C_23 
REMARK    6  A    between atoms: C_21  and  O_19 
ROOT
ATOM      1  C   UNL d   1     -46.163  12.977  22.362  0.00  0.00     0.198 A 
ATOM      2  C   UNL d   1     -45.853  13.745  22.416  0.00  0.00     0.191 A 
ATOM      3  O   UNL d   1     -45.573  12.471  22.111  0.00  0.00    -0.268 OA
ATOM      4  C   UNL d   1     -44.905  12.902  22.008  0.00  0.00     0.208 A 
ATOM      5  N   UNL d   1     -45.061  13.694  22.192  0.00  0.00    -0.206 NA
ATOM      6  C   UNL d   1     -46.245  14.453  22.650  0.00  0.00     0.124 C 
ATOM      7  N   UNL d   1     -46.642  15.155  22.884  0.00  0.00    -0.190 NA
ENDROOT
BRANCH   1   8
ATOM      8  N   UNL d   1     -46.961  12.851  22.556  0.00  0.00    -0.280 N 
ATOM      9  C   UNL d   1     -47.524  12.917  21.979  0.00  0.00     0.101 A 
ATOM     10  C   UNL d   1     -48.317  12.792  22.172  0.00  0.00     0.100 A 
ATOM     11  N   UNL d   1     -48.525  12.604  22.936  0.00  0.00    -0.301 N 
ATOM     12  C   UNL d   1     -47.945  12.535  23.535  0.00  0.00     0.100 A 
ATOM     13  C   UNL d   1     -47.153  12.660  23.342  0.00  0.00     0.101 A 
BRANCH  11  14
ATOM     14  C   UNL d   1     -49.313  12.479  23.127  0.00  0.00     0.064 A 
ATOM     15  C   UNL d   1     -49.539  11.775  23.461  0.00  0.00     0.018 A 
ATOM     16  C   UNL d   1     -50.336  11.649  23.655  0.00  0.00     0.002 A 
ATOM     17  C   UNL d   1     -50.877  12.231  23.507  0.00  0.00     0.000 A 
ATOM     18  C   UNL d   1     -50.661  12.954  23.167  0.00  0.00     0.002 A 
ATOM     19  C   UNL d   1     -49.864  13.080  22.973  0.00  0.00     0.018 A 
ENDBRANCH  11  14
ENDBRANCH   1   8
BRANCH   4  20
ATOM     20  C   UNL d   1     -44.115  13.099  21.829  0.00  0.00     0.141 A 
ATOM     21  O   UNL d   1     -43.483  13.619  21.837  0.00  0.00    -0.301 OA
ATOM     22  C   UNL d   1     -42.863  13.235  21.471  0.00  0.00     0.125 A 
ATOM     23  C   UNL d   1     -43.065  12.505  21.232  0.00  0.00     0.029 A 
ATOM     24  C   UNL d   1     -43.847  12.405  21.449  0.00  0.00     0.030 A 
BRANCH  22  25
ATOM     25  C   UNL d   1     -42.100  13.542  21.347  0.00  0.00     0.147 C 
BRANCH  25  26
ATOM     26  O   UNL d   1     -41.966  14.313  21.084  0.00  0.00    -0.303 OA
BRANCH  26  27
ATOM     27  C   UNL d   1     -41.225  14.601  21.002  0.00  0.00     0.100 A 
ATOM     28  C   UNL d   1     -41.095  15.394  20.823  0.00  0.00     0.023 A 
ATOM     29  C   UNL d   1     -41.761  15.922  20.721  0.00  0.00     0.002 C 
ATOM     30  C   UNL d   1     -40.353  15.711  20.735  0.00  0.00     0.002 A 
ATOM     31  C   UNL d   1     -39.697  15.206  20.832  0.00  0.00     0.000 A 
ATOM     32  C   UNL d   1     -39.803  14.412  21.011  0.00  0.00     0.002 A 
ATOM     33  C   UNL d   1     -40.567  14.125  21.093  0.00  0.00     0.025 A 
ENDBRANCH  26  27
ENDBRANCH  25  26
ENDBRANCH  22  25
ENDBRANCH   4  20
TORSDOF 6
ENDMDL
MODEL 2
REMARK VINA RESULT:      -4.6      0.743      1.105
REMARK  6 active torsions:
REMARK  status: ('A' for Active; 'I' for Inactive)
REMARK    1  A    between atoms: N_7  and  C_1 
REMARK    2  A    between atoms: C_6  and  C_4 
REMARK    3  A    between atoms: C_20  and  N_9 
REMARK    4  A    between atoms: C_23  and  C_13 
REMARK    5  A    between atoms: O_19  and  C_23 
REMARK    6  A    between atoms: C_21  and  O_19 
ROOT
ATOM      1  C   UNL d   1     -46.083  12.836  22.326  0.00  0.00     0.198 A 
ATOM      2  C   UNL d   1     -45.535  12.315  22.669  0.00  0.00     0.191 A 
ATOM      3  O   UNL d   1     -45.681  13.378  21.866  0.00  0.00    -0.268 OA
ATOM      4  C   UNL d   1     -44.898  13.210  21.913  0.00  0.00     0.208 A 
ATOM      5  N   UNL d   1     -44.791  12.554  22.407  0.00  0.00    -0.206 NA
ATOM      6  C   UNL d   1     -45.681  11.665  23.185  0.00  0.00     0.124 C 
ATOM      7  N   UNL d   1     -45.834  11.019  23.698  0.00  0.00    -0.190 NA
ENDROOT
BRANCH   1   8
ATOM      8  N   UNL d   1     -46.891  12.734  22.489  0.00  0.00    -0.280 N 
ATOM      9  C   UNL d   1     -47.344  12.287  21.990  0.00  0.00     0.101 A 
ATOM     10  C   UNL d   1     -48.146  12.185  22.152  0.00  0.00     0.100 A 
ATOM     11  N   UNL d   1     -48.475  12.534  22.810  0.00  0.00    -0.301 N 
ATOM     12  C   UNL d   1     -48.010  12.997  23.329  0.00  0.00     0.100 A 
ATOM     13  C   UNL d   1     -47.208  13.098  23.166  0.00  0.00     0.101 A 
BRANCH  11  14
ATOM     14  C   UNL d   1     -49.273  12.433  22.971  0.00  0.00     0.064 A 
ATOM     15  C   UNL d   1     -49.506  11.877  23.514  0.00  0.00     0.018 A 
ATOM     16  C   UNL d   1     -50.314  11.776  23.678  0.00  0.00     0.002 A 
ATOM     17  C   UNL d   1     -50.858  12.233  23.292  0.00  0.00     0.000 A 
ATOM     18  C   UNL d   1     -50.634  12.804  22.736  0.00  0.00     0.002 A 
ATOM     19  C   UNL d   1     -49.827  12.906  22.572  0.00  0.00     0.018 A 
ENDBRANCH  11  14
ENDBRANCH   1   8
BRANCH   4  20
ATOM     20  C   UNL d   1     -44.075  13.254  21.792  0.00  0.00     0.141 A 
ATOM     21  O   UNL d   1     -43.317  13.426  22.050  0.00  0.00    -0.301 OA
ATOM     22  C   UNL d   1     -42.817  13.259  21.427  0.00  0.00     0.125 A 
ATOM     23  C   UNL d   1     -43.213  12.991  20.792  0.00  0.00     0.029 A 
ATOM     24  C   UNL d   1     -44.003  12.983  21.005  0.00  0.00     0.030 A 
BRANCH  22  25
ATOM     25  C   UNL d   1     -41.990  13.345  21.424  0.00  0.00     0.147 C 
BRANCH  25  26
ATOM     26  O   UNL d   1     -41.605  13.933  20.992  0.00  0.00    -0.303 OA
BRANCH  26  27
ATOM     27  C   UNL d   1     -40.835  14.108  21.120  0.00  0.00     0.100 A 
ATOM     28  C   UNL d   1     -40.507  14.810  20.843  0.00  0.00     0.023 A 
ATOM     29  C   UNL d   1     -40.991  15.365  20.410  0.00  0.00     0.002 C 
ATOM     30  C   UNL d   1     -39.728  15.009  20.961  0.00  0.00     0.002 A 
ATOM     31  C   UNL d   1     -39.247  14.476  21.382  0.00  0.00     0.000 A 
ATOM     32  C   UNL d   1     -39.553  13.769  21.668  0.00  0.00     0.002 A 
ATOM     33  C   UNL d   1     -40.344  13.600  21.531  0.00  0.00     0.025 A 
ENDBRANCH  26  27
ENDBRANCH  25  26
ENDBRANCH  22  25
ENDBRANCH   4  20
TORSDOF 6
ENDMDL
