MODEL 1
REMARK VINA RESULT:      -5.1      0.000      0.000
REMARK  5 active torsions:
REMARK  status: ('A' for Active; 'I' for Inactive)
REMARK    1  A    between atoms: C_7  and  N_1 
REMARK       I    between atoms: C_4  and  N_8 
REMARK       I    between atoms: N_10  and  C_4 
REMARK    2  A    between atoms: N_8  and  C_5 
REMARK    3  A    between atoms: C_15  and  N_10 
REMARK    4  A    between atoms: O_18  and  C_14 
REMARK    5  A    between atoms: C_19  and  C_15 
ROOT
ATOM      1  N   UNL d   1     -41.579-122.220 -52.240  0.00  0.00    -0.272 N 
ATOM      2  C   UNL d   1     -41.331-121.527 -51.861  0.00  0.00     0.266 A 
ATOM      3  C   UNL d   1     -41.335-121.682 -51.045  0.00  0.00     0.082 A 
ATOM      4  C   UNL d   1     -41.582-122.460 -50.929  0.00  0.00     0.108 A 
ATOM      5  C   UNL d   1     -41.731-122.789 -51.673  0.00  0.00     0.102 A 
ATOM      6  O   UNL d   1     -41.123-120.821 -52.221  0.00  0.00    -0.267 OA
ENDROOT
BRANCH   1   7
ATOM      7  C   UNL d   1     -41.657-122.316 -53.055  0.00  0.00     0.067 A 
ATOM      8  C   UNL d   1     -42.233-121.889 -53.467  0.00  0.00     0.020 A 
ATOM      9  C   UNL d   1     -42.312-121.986 -54.283  0.00  0.00     0.026 A 
ATOM     10  C   UNL d   1     -41.817-122.507 -54.686  0.00  0.00     0.094 A 
ATOM     11  C   UNL d   1     -41.243-122.934 -54.281  0.00  0.00     0.026 A 
ATOM     12  C   UNL d   1     -41.164-122.836 -53.458  0.00  0.00     0.020 A 
BRANCH  10  13
ATOM     13  O   UNL d   1     -41.903-122.597 -55.502  0.00  0.00    -0.328 OA
ATOM     14  C   UNL d   1     -42.322-122.032 -55.930  0.00  0.00     0.181 C 
ENDBRANCH  10  13
ENDBRANCH   1   7
BRANCH   4  15
ATOM     15  N   UNL d   1     -41.663-122.839 -50.198  0.00  0.00    -0.189 NA
ATOM     16  C   UNL d   1     -42.400-122.876 -49.839  0.00  0.00     0.369 C 
ATOM     17  N   UNL d   1     -42.486-123.253 -49.109  0.00  0.00    -0.189 NA
ATOM     18  O   UNL d   1     -43.057-122.539 -50.203  0.00  0.00    -0.242 OA
BRANCH  17  19
ATOM     19  C   UNL d   1     -41.833-123.585 -48.751  0.00  0.00     0.104 C 
BRANCH  19  20
ATOM     20  C   UNL d   1     -41.834-123.739 -47.941  0.00  0.00     0.019 C 
ATOM     21  C   UNL d   1     -41.128-123.816 -47.527  0.00  0.00     0.002 C 
ATOM     22  C   UNL d   1     -42.553-123.817 -47.536  0.00  0.00     0.002 C 
ENDBRANCH  19  20
ENDBRANCH  17  19
ENDBRANCH   4  15
TORSDOF 5
ENDMDL
MODEL 2
REMARK VINA RESULT:      -4.2      1.187      5.103
REMARK  5 active torsions:
REMARK  status: ('A' for Active; 'I' for Inactive)
REMARK    1  A    between atoms: C_7  and  N_1 
REMARK       I    between atoms: C_4  and  N_8 
REMARK       I    between atoms: N_10  and  C_4 
REMARK    2  A    between atoms: N_8  and  C_5 
REMARK    3  A    between atoms: C_15  and  N_10 
REMARK    4  A    between atoms: O_18  and  C_14 
REMARK    5  A    between atoms: C_19  and  C_15 
ROOT
ATOM      1  N   UNL d   1     -41.878-122.289 -50.722  0.00  0.00    -0.272 N 
ATOM      2  C   UNL d   1     -41.454-121.583 -50.801  0.00  0.00     0.266 A 
ATOM      3  C   UNL d   1     -41.428-121.405 -51.612  0.00  0.00     0.082 A 
ATOM      4  C   UNL d   1     -41.832-121.997 -52.021  0.00  0.00     0.108 A 
ATOM      5  C   UNL d   1     -42.109-122.542 -51.465  0.00  0.00     0.102 A 
ATOM      6  O   UNL d   1     -41.123-121.142 -50.195  0.00  0.00    -0.267 OA
ENDROOT
BRANCH   1   7
ATOM      7  C   UNL d   1     -42.040-122.672 -50.010  0.00  0.00     0.067 A 
ATOM      8  C   UNL d   1     -42.811-122.680 -49.712  0.00  0.00     0.020 A 
ATOM      9  C   UNL d   1     -42.973-123.063 -48.999  0.00  0.00     0.026 A 
ATOM     10  C   UNL d   1     -42.366-123.437 -48.584  0.00  0.00     0.094 A 
ATOM     11  C   UNL d   1     -41.597-123.431 -48.876  0.00  0.00     0.026 A 
ATOM     12  C   UNL d   1     -41.434-123.045 -49.596  0.00  0.00     0.020 A 
BRANCH  10  13
ATOM     13  O   UNL d   1     -42.536-123.817 -47.872  0.00  0.00    -0.328 OA
ATOM     14  C   UNL d   1     -42.699-123.367 -47.202  0.00  0.00     0.181 C 
ENDBRANCH  10  13
ENDBRANCH   1   7
BRANCH   4  15
ATOM     15  N   UNL d   1     -41.938-122.033 -52.841  0.00  0.00    -0.189 NA
ATOM     16  C   UNL d   1     -41.692-122.698 -53.253  0.00  0.00     0.369 C 
ATOM     17  N   UNL d   1     -41.796-122.739 -54.072  0.00  0.00    -0.189 NA
ATOM     18  O   UNL d   1     -41.343-123.329 -52.857  0.00  0.00    -0.242 OA
BRANCH  17  19
ATOM     19  C   UNL d   1     -42.142-122.113 -54.463  0.00  0.00     0.104 C 
BRANCH  19  20
ATOM     20  C   UNL d   1     -42.248-122.138 -55.281  0.00  0.00     0.019 C 
ATOM     21  C   UNL d   1     -41.972-121.529 -55.759  0.00  0.00     0.002 C 
ATOM     22  C   UNL d   1     -42.637-122.783 -55.627  0.00  0.00     0.002 C 
ENDBRANCH  19  20
ENDBRANCH  17  19
ENDBRANCH   4  15
TORSDOF 5
ENDMDL
