MODEL 1
REMARK VINA RESULT:      -6.2      0.000      0.000
REMARK  5 active torsions:
REMARK  status: ('A' for Active; 'I' for Inactive)
REMARK    1  A    between atoms: N_2  and  S_1 
REMARK    2  A    between atoms: C_4  and  S_1 
REMARK    3  A    between atoms: C_3  and  N_2 
REMARK    4  A    between atoms: N_7  and  C_3 
REMARK    5  A    between atoms: C_15  and  N_7 
ROOT
ATOM      1  S   UNL d   1     -41.877-122.713 -51.015  0.00  0.00     0.287 S 
ATOM      2  O   UNL d   1     -41.736-121.904 -50.870  0.00  0.00    -0.198 OA
ATOM      3  O   UNL d   1     -42.016-123.514 -51.158  0.00  0.00    -0.198 OA
ENDROOT
BRANCH   1   4
ATOM      4  N   UNL d   1     -41.792-122.582 -51.829  0.00  0.00    -0.128 NA
BRANCH   4   5
ATOM      5  C   UNL d   1     -41.385-122.731 -52.529  0.00  0.00     0.232 C 
ATOM      6  S   UNL d   1     -41.123-123.495 -52.700  0.00  0.00    -0.036 SA
BRANCH   5   7
ATOM      7  N   UNL d   1     -41.240-122.116 -53.058  0.00  0.00    -0.217 NA
BRANCH   7   8
ATOM      8  C   UNL d   1     -41.547-122.157 -53.823  0.00  0.00     0.084 A 
ATOM      9  C   UNL d   1     -42.198-121.694 -54.024  0.00  0.00     0.019 A 
ATOM     10  C   UNL d   1     -42.507-121.732 -54.786  0.00  0.00     0.002 A 
ATOM     11  C   UNL d   1     -42.167-122.229 -55.344  0.00  0.00     0.000 A 
ATOM     12  C   UNL d   1     -41.517-122.691 -55.143  0.00  0.00     0.002 A 
ATOM     13  C   UNL d   1     -41.206-122.656 -54.383  0.00  0.00     0.019 A 
ENDBRANCH   7   8
ENDBRANCH   5   7
ENDBRANCH   4   5
ENDBRANCH   1   4
BRANCH   1  14
ATOM     14  C   UNL d   1     -41.963-122.844 -50.196  0.00  0.00     0.105 A 
ATOM     15  C   UNL d   1     -42.692-122.704 -49.837  0.00  0.00     0.013 A 
ATOM     16  C   UNL d   1     -42.785-122.833 -49.018  0.00  0.00     0.007 A 
ATOM     17  C   UNL d   1     -42.141-123.104 -48.564  0.00  0.00     0.035 A 
ATOM     18  C   UNL d   1     -41.411-123.243 -48.932  0.00  0.00     0.007 A 
ATOM     19 BR   UNL d   1     -42.237-123.230 -47.754  0.00  0.00    -0.049 Br
ATOM     20  C   UNL d   1     -41.318-123.115 -49.741  0.00  0.00     0.013 A 
ENDBRANCH   1  14
TORSDOF 5
ENDMDL
MODEL 2
REMARK VINA RESULT:      -5.6      2.042      4.817
REMARK  5 active torsions:
REMARK  status: ('A' for Active; 'I' for Inactive)
REMARK    1  A    between atoms: N_2  and  S_1 
REMARK    2  A    between atoms: C_4  and  S_1 
REMARK    3  A    between atoms: C_3  and  N_2 
REMARK    4  A    between atoms: N_7  and  C_3 
REMARK    5  A    between atoms: C_15  and  N_7 
ROOT
ATOM      1  S   UNL d   1     -41.522-122.752 -52.795  0.00  0.00     0.287 S 
ATOM      2  O   UNL d   1     -41.156-122.017 -52.651  0.00  0.00    -0.198 OA
ATOM      3  O   UNL d   1     -41.885-123.479 -52.939  0.00  0.00    -0.198 OA
ENDROOT
BRANCH   1   4
ATOM      4  N   UNL d   1     -41.405-122.966 -52.003  0.00  0.00    -0.128 NA
BRANCH   4   5
ATOM      5  C   UNL d   1     -41.542-122.820 -51.205  0.00  0.00     0.232 C 
ATOM      6  S   UNL d   1     -41.123-122.225 -50.815  0.00  0.00    -0.036 SA
BRANCH   5   7
ATOM      7  N   UNL d   1     -42.099-123.268 -50.796  0.00  0.00    -0.217 NA
BRANCH   7   8
ATOM      8  C   UNL d   1     -42.068-123.303 -49.972  0.00  0.00     0.084 A 
ATOM      9  C   UNL d   1     -41.503-123.780 -49.607  0.00  0.00     0.019 A 
ATOM     10  C   UNL d   1     -41.469-123.817 -48.785  0.00  0.00     0.002 A 
ATOM     11  C   UNL d   1     -41.996-123.382 -48.331  0.00  0.00     0.000 A 
ATOM     12  C   UNL d   1     -42.560-122.906 -48.696  0.00  0.00     0.002 A 
ATOM     13  C   UNL d   1     -42.597-122.866 -49.515  0.00  0.00     0.019 A 
ENDBRANCH   7   8
ENDBRANCH   5   7
ENDBRANCH   4   5
ENDBRANCH   1   4
BRANCH   1  14
ATOM     14  C   UNL d   1     -41.640-122.535 -53.592  0.00  0.00     0.105 A 
ATOM     15  C   UNL d   1     -41.196-122.902 -54.182  0.00  0.00     0.013 A 
ATOM     16  C   UNL d   1     -41.308-122.691 -54.981  0.00  0.00     0.007 A 
ATOM     17  C   UNL d   1     -41.869-122.108 -55.182  0.00  0.00     0.035 A 
ATOM     18  C   UNL d   1     -42.312-121.743 -54.583  0.00  0.00     0.007 A 
ATOM     19 BR   UNL d   1     -41.977-121.902 -55.973  0.00  0.00    -0.049 Br
ATOM     20  C   UNL d   1     -42.201-121.952 -53.793  0.00  0.00     0.013 A 
ENDBRANCH   1  14
TORSDOF 5
ENDMDL
