MODEL 1
REMARK VINA RESULT:      83.9      0.000      0.000
REMARK  5 active torsions:
REMARK  status: ('A' for Active; 'I' for Inactive)
REMARK    1  A    between atoms: C_17  and  N_5 
REMARK    2  A    between atoms: S_14  and  C_6 
REMARK    3  A    between atoms: C_11  and  C_18 
REMARK    4  A    between atoms: C_18  and  S_14 
REMARK    5  A    between atoms: C_19  and  C_17 
ROOT
ATOM      1  C   UNL d   1      61.062  47.434  50.272  0.00  0.00     0.081 A 
ATOM      2  C   UNL d   1      60.302  47.137  50.418  0.00  0.00     0.117 A 
ATOM      3  N   UNL d   1      59.723  47.628  50.745  0.00  0.00    -0.215 NA
ATOM      4  C   UNL d   1      61.245  48.218  50.450  0.00  0.00     0.268 A 
ATOM      5  N   UNL d   1      60.664  48.716  50.780  0.00  0.00    -0.253 N 
ATOM      6  C   UNL d   1      59.904  48.416  50.925  0.00  0.00     0.182 A 
ATOM      7  S   UNL d   1      60.290  46.351  50.186  0.00  0.00    -0.068 SA
ATOM      8  C   UNL d   1      61.518  46.825  49.948  0.00  0.00     0.013 A 
ATOM      9  C   UNL d   1      61.042  46.157  49.895  0.00  0.00     0.031 A 
ATOM     10  O   UNL d   1      61.994  48.510  50.306  0.00  0.00    -0.267 OA
ATOM     11  C   UNL d   1      62.305  46.917  49.732  0.00  0.00     0.001 A 
ATOM     12  C   UNL d   1      61.234  45.407  49.610  0.00  0.00     0.006 A 
ATOM     13  C   UNL d   1      62.819  46.360  49.405  0.00  0.00     0.000 A 
ATOM     14  C   UNL d   1      61.954  45.146  49.309  0.00  0.00     0.001 A 
ATOM     15  C   UNL d   1      62.663  45.564  49.215  0.00  0.00     0.000 A 
ENDROOT
BRANCH   6  16
ATOM     16  S   UNL d   1      59.324  48.911  51.254  0.00  0.00    -0.048 SA
BRANCH  16  17
ATOM     17  C   UNL d   1      58.957  49.478  50.787  0.00  0.00     0.058 C 
BRANCH  17  18
ATOM     18  C   UNL d   1      58.131  49.527  50.768  0.00  0.00     0.095 A 
ATOM     19  N   UNL d   1      57.659  49.420  50.118  0.00  0.00    -0.238 NA
ATOM     20  C   UNL d   1      56.882  49.520  50.355  0.00  0.00     0.111 A 
ATOM     21  C   UNL d   1      56.214  49.465  49.893  0.00  0.00     0.028 C 
ATOM     22  S   UNL d   1      56.882  49.688  51.147  0.00  0.00    -0.066 SA
ATOM     23  C   UNL d   1      57.649  49.693  51.403  0.00  0.00     0.057 A 
ENDBRANCH  17  18
ENDBRANCH  16  17
ENDBRANCH   6  16
BRANCH   5  24
ATOM     24  C   UNL d   1      60.835  49.497  50.961  0.00  0.00     0.085 C 
BRANCH  24  25
ATOM     25  C   UNL d   1      61.045  49.700  51.747  0.00  0.00     0.019 C 
ATOM     26  C   UNL d   1      61.703  49.353  52.103  0.00  0.00     0.002 C 
ENDBRANCH  24  25
ENDBRANCH   5  24
TORSDOF 5
ENDMDL
