MODEL 1
REMARK VINA RESULT:      -2.8      0.000      0.000
REMARK  7 active torsions:
REMARK  status: ('A' for Active; 'I' for Inactive)
REMARK    1  A    between atoms: C_2  and  S_1 
REMARK    2  A    between atoms: N_4  and  S_1 
REMARK    3  A    between atoms: C_13  and  N_4 
REMARK    4  A    between atoms: C_14  and  N_4 
REMARK    5  A    between atoms: O_12  and  C_7 
REMARK    6  A    between atoms: C_16  and  C_13 
REMARK    7  A    between atoms: C_17  and  C_14 
ROOT
ATOM      1  S   UNL d   1      58.008  -0.309  30.629  0.00  0.00     0.271 S 
ATOM      2  O   UNL d   1      57.320  -0.265  30.176  0.00  0.00    -0.200 OA
ATOM      3  O   UNL d   1      58.696  -0.352  31.082  0.00  0.00    -0.200 OA
ENDROOT
BRANCH   1   4
ATOM      4  C   UNL d   1      57.574  -0.152  31.304  0.00  0.00     0.106 A 
ATOM      5  C   UNL d   1      56.962  -0.655  31.528  0.00  0.00     0.038 A 
ATOM      6  C   UNL d   1      56.525  -0.496  32.208  0.00  0.00     0.105 A 
ATOM      7  C   UNL d   1      56.700   0.165  32.662  0.00  0.00     0.080 A 
ATOM      8  C   UNL d   1      57.310   0.670  32.441  0.00  0.00     0.014 A 
ATOM      9 CL   UNL d   1      56.261   0.323  33.343  0.00  0.00    -0.080 Cl
ATOM     10  C   UNL d   1      57.747   0.511  31.761  0.00  0.00     0.014 A 
BRANCH   6  11
ATOM     11  O   UNL d   1      55.915  -1.001  32.428  0.00  0.00    -0.327 OA
ATOM     12  C   UNL d   1      56.084  -1.693  32.844  0.00  0.00     0.181 C 
ENDBRANCH   6  11
ENDBRANCH   1   4
BRANCH   1  13
ATOM     13  N   UNL d   1      58.446  -0.467  29.949  0.00  0.00    -0.229 N 
BRANCH  13  14
ATOM     14  C   UNL d   1      58.322  -1.167  29.532  0.00  0.00     0.092 C 
BRANCH  14  15
ATOM     15  C   UNL d   1      58.939  -1.706  29.437  0.00  0.00     0.020 C 
ATOM     16  C   UNL d   1      58.794  -2.444  29.102  0.00  0.00     0.002 C 
ENDBRANCH  14  15
ENDBRANCH  13  14
BRANCH  13  17
ATOM     17  C   UNL d   1      59.008   0.073  29.685  0.00  0.00     0.092 C 
BRANCH  17  18
ATOM     18  C   UNL d   1      59.094   0.218  28.877  0.00  0.00     0.020 C 
ATOM     19  C   UNL d   1      59.727   0.677  28.606  0.00  0.00     0.002 C 
ENDBRANCH  17  18
ENDBRANCH  13  17
ENDBRANCH   1  13
TORSDOF 7
ENDMDL
MODEL 2
REMARK VINA RESULT:      -2.3      0.298      1.425
REMARK  7 active torsions:
REMARK  status: ('A' for Active; 'I' for Inactive)
REMARK    1  A    between atoms: C_2  and  S_1 
REMARK    2  A    between atoms: N_4  and  S_1 
REMARK    3  A    between atoms: C_13  and  N_4 
REMARK    4  A    between atoms: C_14  and  N_4 
REMARK    5  A    between atoms: O_12  and  C_7 
REMARK    6  A    between atoms: C_16  and  C_13 
REMARK    7  A    between atoms: C_17  and  C_14 
ROOT
ATOM      1  S   UNL d   1      57.939  -0.311  30.617  0.00  0.00     0.271 S 
ATOM      2  O   UNL d   1      58.556  -0.552  31.109  0.00  0.00    -0.200 OA
ATOM      3  O   UNL d   1      57.322  -0.070  30.126  0.00  0.00    -0.200 OA
ENDROOT
BRANCH   1   4
ATOM      4  C   UNL d   1      57.473  -0.168  31.273  0.00  0.00     0.106 A 
ATOM      5  C   UNL d   1      56.915  -0.724  31.512  0.00  0.00     0.038 A 
ATOM      6  C   UNL d   1      56.445  -0.580  32.173  0.00  0.00     0.105 A 
ATOM      7  C   UNL d   1      56.533   0.120  32.593  0.00  0.00     0.080 A 
ATOM      8  C   UNL d   1      57.089   0.678  32.357  0.00  0.00     0.014 A 
ATOM      9 CL   UNL d   1      56.063   0.264  33.255  0.00  0.00    -0.080 Cl
ATOM     10  C   UNL d   1      57.559   0.533  31.696  0.00  0.00     0.014 A 
BRANCH   6  11
ATOM     11  O   UNL d   1      55.889  -1.138  32.410  0.00  0.00    -0.327 OA
ATOM     12  C   UNL d   1      55.923  -1.454  33.171  0.00  0.00     0.181 C 
ENDBRANCH   6  11
ENDBRANCH   1   4
BRANCH   1  13
ATOM     13  N   UNL d   1      58.409  -0.455  29.955  0.00  0.00    -0.229 N 
BRANCH  13  14
ATOM     14  C   UNL d   1      58.586   0.157  29.434  0.00  0.00     0.092 C 
BRANCH  14  15
ATOM     15  C   UNL d   1      59.354   0.453  29.390  0.00  0.00     0.020 C 
ATOM     16  C   UNL d   1      59.668   0.682  28.664  0.00  0.00     0.002 C 
ENDBRANCH  14  15
ENDBRANCH  13  14
BRANCH  13  17
ATOM     17  C   UNL d   1      58.703  -1.211  29.815  0.00  0.00     0.092 C 
BRANCH  17  18
ATOM     18  C   UNL d   1      58.621  -1.555  29.070  0.00  0.00     0.020 C 
ATOM     19  C   UNL d   1      58.781  -2.360  28.967  0.00  0.00     0.002 C 
ENDBRANCH  17  18
ENDBRANCH  13  17
ENDBRANCH   1  13
TORSDOF 7
ENDMDL
MODEL 3
REMARK VINA RESULT:      -1.9      1.165      1.604
REMARK  7 active torsions:
REMARK  status: ('A' for Active; 'I' for Inactive)
REMARK    1  A    between atoms: C_2  and  S_1 
REMARK    2  A    between atoms: N_4  and  S_1 
REMARK    3  A    between atoms: C_13  and  N_4 
REMARK    4  A    between atoms: C_14  and  N_4 
REMARK    5  A    between atoms: O_12  and  C_7 
REMARK    6  A    between atoms: C_16  and  C_13 
REMARK    7  A    between atoms: C_17  and  C_14 
ROOT
ATOM      1  S   UNL d   1      57.298  -0.479  31.394  0.00  0.00     0.271 S 
ATOM      2  O   UNL d   1      57.698   0.223  31.557  0.00  0.00    -0.200 OA
ATOM      3  O   UNL d   1      56.898  -1.182  31.230  0.00  0.00    -0.200 OA
ENDROOT
BRANCH   1   4
ATOM      4  C   UNL d   1      56.862  -0.391  32.079  0.00  0.00     0.106 A 
ATOM      5  C   UNL d   1      57.133   0.101  32.681  0.00  0.00     0.038 A 
ATOM      6  C   UNL d   1      56.693   0.190  33.372  0.00  0.00     0.105 A 
ATOM      7  C   UNL d   1      55.983  -0.212  33.459  0.00  0.00     0.080 A 
ATOM      8  C   UNL d   1      55.708  -0.704  32.860  0.00  0.00     0.014 A 
ATOM      9 CL   UNL d   1      55.542  -0.123  34.151  0.00  0.00    -0.080 Cl
ATOM     10  C   UNL d   1      56.148  -0.793  32.169  0.00  0.00     0.014 A 
BRANCH   6  11
ATOM     11  O   UNL d   1      56.968   0.682  33.970  0.00  0.00    -0.327 OA
ATOM     12  C   UNL d   1      57.742   0.602  34.245  0.00  0.00     0.181 C 
ENDBRANCH   6  11
ENDBRANCH   1   4
BRANCH   1  13
ATOM     13  N   UNL d   1      57.738  -0.569  30.702  0.00  0.00    -0.229 N 
BRANCH  13  14
ATOM     14  C   UNL d   1      57.864  -1.320  30.388  0.00  0.00     0.092 C 
BRANCH  14  15
ATOM     15  C   UNL d   1      58.548  -1.476  29.954  0.00  0.00     0.020 C 
ATOM     16  C   UNL d   1      58.743  -2.250  29.754  0.00  0.00     0.002 C 
ENDBRANCH  14  15
ENDBRANCH  13  14
BRANCH  13  17
ATOM     17  C   UNL d   1      58.052   0.091  30.325  0.00  0.00     0.092 C 
BRANCH  17  18
ATOM     18  C   UNL d   1      57.813   0.281  29.558  0.00  0.00     0.020 C 
ATOM     19  C   UNL d   1      58.331   0.682  29.052  0.00  0.00     0.002 C 
ENDBRANCH  17  18
ENDBRANCH  13  17
ENDBRANCH   1  13
TORSDOF 7
ENDMDL
MODEL 4
REMARK VINA RESULT:      -1.5      1.868      3.939
REMARK  7 active torsions:
REMARK  status: ('A' for Active; 'I' for Inactive)
REMARK    1  A    between atoms: C_2  and  S_1 
REMARK    2  A    between atoms: N_4  and  S_1 
REMARK    3  A    between atoms: C_13  and  N_4 
REMARK    4  A    between atoms: C_14  and  N_4 
REMARK    5  A    between atoms: O_12  and  C_7 
REMARK    6  A    between atoms: C_16  and  C_13 
REMARK    7  A    between atoms: C_17  and  C_14 
ROOT
ATOM      1  S   UNL d   1      57.396   0.119  31.518  0.00  0.00     0.271 S 
ATOM      2  O   UNL d   1      56.715   0.471  31.212  0.00  0.00    -0.200 OA
ATOM      3  O   UNL d   1      58.076  -0.233  31.823  0.00  0.00    -0.200 OA
ENDROOT
BRANCH   1   4
ATOM      4  C   UNL d   1      57.778   0.241  30.806  0.00  0.00     0.106 A 
ATOM      5  C   UNL d   1      58.586   0.095  30.741  0.00  0.00     0.038 A 
ATOM      6  C   UNL d   1      58.971   0.218  30.023  0.00  0.00     0.105 A 
ATOM      7  C   UNL d   1      58.549   0.486  29.372  0.00  0.00     0.080 A 
ATOM      8  C   UNL d   1      57.742   0.632  29.433  0.00  0.00     0.014 A 
ATOM      9 CL   UNL d   1      58.935   0.609  28.654  0.00  0.00    -0.080 Cl
ATOM     10  C   UNL d   1      57.357   0.510  30.151  0.00  0.00     0.014 A 
BRANCH   6  11
ATOM     11  O   UNL d   1      59.778   0.071  29.962  0.00  0.00    -0.327 OA
ATOM     12  C   UNL d   1      60.318   0.675  30.118  0.00  0.00     0.181 C 
ENDBRANCH   6  11
ENDBRANCH   1   4
BRANCH   1  13
ATOM     13  N   UNL d   1      57.010  -0.004  32.236  0.00  0.00    -0.229 N 
BRANCH  13  14
ATOM     14  C   UNL d   1      57.331   0.295  32.933  0.00  0.00     0.092 C 
BRANCH  14  15
ATOM     15  C   UNL d   1      56.849   0.414  33.592  0.00  0.00     0.020 C 
ATOM     16  C   UNL d   1      57.175   0.680  34.300  0.00  0.00     0.002 C 
ENDBRANCH  14  15
ENDBRANCH  13  14
BRANCH  13  17
ATOM     17  C   UNL d   1      56.303  -0.425  32.258  0.00  0.00     0.092 C 
BRANCH  17  18
ATOM     18  C   UNL d   1      56.192  -1.017  32.821  0.00  0.00     0.020 C 
ATOM     19  C   UNL d   1      55.613  -1.596  32.702  0.00  0.00     0.002 C 
ENDBRANCH  17  18
ENDBRANCH  13  17
ENDBRANCH   1  13
TORSDOF 7
ENDMDL
MODEL 5
REMARK VINA RESULT:      -0.6      2.153      4.417
REMARK  7 active torsions:
REMARK  status: ('A' for Active; 'I' for Inactive)
REMARK    1  A    between atoms: C_2  and  S_1 
REMARK    2  A    between atoms: N_4  and  S_1 
REMARK    3  A    between atoms: C_13  and  N_4 
REMARK    4  A    between atoms: C_14  and  N_4 
REMARK    5  A    between atoms: O_12  and  C_7 
REMARK    6  A    between atoms: C_16  and  C_13 
REMARK    7  A    between atoms: C_17  and  C_14 
ROOT
ATOM      1  S   UNL d   1      56.445  -0.112  33.063  0.00  0.00     0.271 S 
ATOM      2  O   UNL d   1      56.463  -0.903  33.296  0.00  0.00    -0.200 OA
ATOM      3  O   UNL d   1      56.427   0.680  32.831  0.00  0.00    -0.200 OA
ENDROOT
BRANCH   1   4
ATOM      4  C   UNL d   1      56.787  -0.314  32.349  0.00  0.00     0.106 A 
ATOM      5  C   UNL d   1      57.246   0.234  31.942  0.00  0.00     0.038 A 
ATOM      6  C   UNL d   1      57.591   0.030  31.222  0.00  0.00     0.105 A 
ATOM      7  C   UNL d   1      57.476  -0.721  30.911  0.00  0.00     0.080 A 
ATOM      8  C   UNL d   1      57.017  -1.271  31.315  0.00  0.00     0.014 A 
ATOM      9 CL   UNL d   1      57.821  -0.925  30.190  0.00  0.00    -0.080 Cl
ATOM     10  C   UNL d   1      56.673  -1.067  32.035  0.00  0.00     0.014 A 
BRANCH   6  11
ATOM     11  O   UNL d   1      58.049   0.580  30.817  0.00  0.00    -0.327 OA
ATOM     12  C   UNL d   1      58.689   0.326  30.362  0.00  0.00     0.181 C 
ENDBRANCH   6  11
ENDBRANCH   1   4
BRANCH   1  13
ATOM     13  N   UNL d   1      56.100   0.092  33.784  0.00  0.00    -0.229 N 
BRANCH  13  14
ATOM     14  C   UNL d   1      55.284   0.036  33.881  0.00  0.00     0.092 C 
BRANCH  14  15
ATOM     15  C   UNL d   1      54.798   0.667  33.665  0.00  0.00     0.020 C 
ATOM     16  C   UNL d   1      54.010   0.682  33.901  0.00  0.00     0.002 C 
ENDBRANCH  14  15
ENDBRANCH  13  14
BRANCH  13  17
ATOM     17  C   UNL d   1      56.570   0.352  34.407  0.00  0.00     0.092 C 
BRANCH  17  18
ATOM     18  C   UNL d   1      56.228   0.532  35.136  0.00  0.00     0.020 C 
ATOM     19  C   UNL d   1      56.708   0.682  35.792  0.00  0.00     0.002 C 
ENDBRANCH  17  18
ENDBRANCH  13  17
ENDBRANCH   1  13
TORSDOF 7
ENDMDL
