MODEL 1
REMARK VINA RESULT:      -4.4      0.000      0.000
REMARK  3 active torsions:
REMARK  status: ('A' for Active; 'I' for Inactive)
REMARK    1  A    between atoms: S_6  and  C_1 
REMARK    2  A    between atoms: C_3  and  C_9 
REMARK       I    between atoms: N_4  and  C_3 
REMARK    3  A    between atoms: C_9  and  S_6 
ROOT
ATOM      1  C   UNL d   1      58.257  -0.777  30.036  0.00  0.00     0.114 A 
ATOM      2  C   UNL d   1      58.806  -0.462  29.512  0.00  0.00     0.042 A 
ATOM      3  N   UNL d   1      58.105  -1.588  30.030  0.00  0.00    -0.217 NA
ATOM      4  N   UNL d   1      59.053  -1.762  28.973  0.00  0.00    -0.224 NA
ATOM      5  C   UNL d   1      58.503  -2.081  29.498  0.00  0.00     0.200 A 
ATOM      6  C   UNL d   1      59.204  -0.955  28.980  0.00  0.00     0.085 A 
ATOM      7  C   UNL d   1      58.959   0.349  29.518  0.00  0.00     0.004 A 
ATOM      8  C   UNL d   1      59.755  -0.636  28.455  0.00  0.00     0.019 A 
ATOM      9  C   UNL d   1      59.510   0.667  28.993  0.00  0.00     0.000 A 
ATOM     10  C   UNL d   1      59.908   0.174  28.461  0.00  0.00     0.002 A 
ENDROOT
BRANCH   1  11
ATOM     11  S   UNL d   1      57.859  -0.285  30.567  0.00  0.00    -0.062 SA
BRANCH  11  12
ATOM     12  C   UNL d   1      57.376  -0.604  31.145  0.00  0.00     0.098 C 
BRANCH  12  13
ATOM     13  C   UNL d   1      57.012  -0.118  31.705  0.00  0.00     0.271 C 
ATOM     14  N   UNL d   1      56.491  -0.443  32.265  0.00  0.00    -0.272 N 
ATOM     15  C   UNL d   1      56.286  -1.228  32.330  0.00  0.00     0.083 A 
ATOM     16  C   UNL d   1      56.093  -0.026  32.852  0.00  0.00     0.083 A 
ATOM     17  C   UNL d   1      55.756  -1.308  32.961  0.00  0.00     0.021 A 
ATOM     18  C   UNL d   1      55.643  -0.554  33.277  0.00  0.00     0.021 A 
ATOM     19  O   UNL d   1      57.165   0.682  31.707  0.00  0.00    -0.266 OA
ENDBRANCH  12  13
ENDBRANCH  11  12
ENDBRANCH   1  11
TORSDOF 3
ENDMDL
MODEL 2
REMARK VINA RESULT:      -4.3      1.276      4.673
REMARK  3 active torsions:
REMARK  status: ('A' for Active; 'I' for Inactive)
REMARK    1  A    between atoms: S_6  and  C_1 
REMARK    2  A    between atoms: C_3  and  C_9 
REMARK       I    between atoms: N_4  and  C_3 
REMARK    3  A    between atoms: C_9  and  S_6 
ROOT
ATOM      1  C   UNL d   1      57.047   0.124  32.684  0.00  0.00     0.114 A 
ATOM      2  C   UNL d   1      56.367   0.126  33.146  0.00  0.00     0.042 A 
ATOM      3  N   UNL d   1      57.757   0.402  33.000  0.00  0.00    -0.217 NA
ATOM      4  N   UNL d   1      57.099   0.682  34.240  0.00  0.00    -0.224 NA
ATOM      5  C   UNL d   1      57.783   0.681  33.778  0.00  0.00     0.200 A 
ATOM      6  C   UNL d   1      56.393   0.405  33.924  0.00  0.00     0.085 A 
ATOM      7  C   UNL d   1      55.657  -0.152  32.829  0.00  0.00     0.004 A 
ATOM      8  C   UNL d   1      55.710   0.406  34.385  0.00  0.00     0.019 A 
ATOM      9  C   UNL d   1      54.974  -0.150  33.291  0.00  0.00     0.000 A 
ATOM     10  C   UNL d   1      55.000   0.128  34.070  0.00  0.00     0.002 A 
ENDROOT
BRANCH   1  11
ATOM     11  S   UNL d   1      57.021  -0.154  31.906  0.00  0.00    -0.062 SA
BRANCH  11  12
ATOM     12  C   UNL d   1      57.631   0.011  31.387  0.00  0.00     0.098 C 
BRANCH  12  13
ATOM     13  C   UNL d   1      57.747  -0.453  30.713  0.00  0.00     0.271 C 
ATOM     14  N   UNL d   1      58.217  -0.172  30.088  0.00  0.00    -0.272 N 
ATOM     15  C   UNL d   1      58.598   0.546  30.061  0.00  0.00     0.083 A 
ATOM     16  C   UNL d   1      58.379  -0.573  29.388  0.00  0.00     0.083 A 
ATOM     17  C   UNL d   1      59.003   0.600  29.341  0.00  0.00     0.021 A 
ATOM     18  C   UNL d   1      58.859  -0.101  28.931  0.00  0.00     0.021 A 
ATOM     19  O   UNL d   1      57.399  -1.187  30.662  0.00  0.00    -0.266 OA
ENDBRANCH  12  13
ENDBRANCH  11  12
ENDBRANCH   1  11
TORSDOF 3
ENDMDL
MODEL 3
REMARK VINA RESULT:      -3.1      1.774      2.538
REMARK  3 active torsions:
REMARK  status: ('A' for Active; 'I' for Inactive)
REMARK    1  A    between atoms: S_6  and  C_1 
REMARK    2  A    between atoms: C_3  and  C_9 
REMARK       I    between atoms: N_4  and  C_3 
REMARK    3  A    between atoms: C_9  and  S_6 
ROOT
ATOM      1  C   UNL d   1      58.994  -2.314  29.073  0.00  0.00     0.114 A 
ATOM      2  C   UNL d   1      59.704  -2.689  28.898  0.00  0.00     0.042 A 
ATOM      3  N   UNL d   1      58.283  -2.724  28.980  0.00  0.00    -0.217 NA
ATOM      4  N   UNL d   1      59.002  -3.879  28.537  0.00  0.00    -0.224 NA
ATOM      5  C   UNL d   1      58.287  -3.506  28.713  0.00  0.00     0.200 A 
ATOM      6  C   UNL d   1      59.708  -3.471  28.630  0.00  0.00     0.085 A 
ATOM      7  C   UNL d   1      60.415  -2.279  28.990  0.00  0.00     0.004 A 
ATOM      8  C   UNL d   1      60.423  -3.844  28.455  0.00  0.00     0.019 A 
ATOM      9  C   UNL d   1      61.130  -2.653  28.815  0.00  0.00     0.000 A 
ATOM     10  C   UNL d   1      61.133  -3.436  28.547  0.00  0.00     0.002 A 
ENDROOT
BRANCH   1  11
ATOM     11  S   UNL d   1      58.990  -1.533  29.340  0.00  0.00    -0.062 SA
BRANCH  11  12
ATOM     12  C   UNL d   1      58.332  -1.229  29.721  0.00  0.00     0.098 C 
BRANCH  12  13
ATOM     13  C   UNL d   1      58.290  -0.426  29.908  0.00  0.00     0.271 C 
ATOM     14  N   UNL d   1      57.834  -0.172  30.555  0.00  0.00    -0.272 N 
ATOM     15  C   UNL d   1      57.401  -0.648  31.053  0.00  0.00     0.083 A 
ATOM     16  C   UNL d   1      57.742   0.608  30.804  0.00  0.00     0.083 A 
ATOM     17  C   UNL d   1      57.033  -0.169  31.619  0.00  0.00     0.021 A 
ATOM     18  C   UNL d   1      57.253   0.609  31.454  0.00  0.00     0.021 A 
ATOM     19  O   UNL d   1      58.695   0.118  29.458  0.00  0.00    -0.266 OA
ENDBRANCH  12  13
ENDBRANCH  11  12
ENDBRANCH   1  11
TORSDOF 3
ENDMDL
MODEL 4
REMARK VINA RESULT:      -2.6      1.586      4.318
REMARK  3 active torsions:
REMARK  status: ('A' for Active; 'I' for Inactive)
REMARK    1  A    between atoms: S_6  and  C_1 
REMARK    2  A    between atoms: C_3  and  C_9 
REMARK       I    between atoms: N_4  and  C_3 
REMARK    3  A    between atoms: C_9  and  S_6 
ROOT
ATOM      1  C   UNL d   1      57.671  -0.636  30.962  0.00  0.00     0.114 A 
ATOM      2  C   UNL d   1      57.162  -0.641  31.608  0.00  0.00     0.042 A 
ATOM      3  N   UNL d   1      58.141   0.026  30.817  0.00  0.00    -0.217 NA
ATOM      4  N   UNL d   1      57.590   0.674  31.968  0.00  0.00    -0.224 NA
ATOM      5  C   UNL d   1      58.101   0.681  31.321  0.00  0.00     0.200 A 
ATOM      6  C   UNL d   1      57.122   0.014  32.111  0.00  0.00     0.085 A 
ATOM      7  C   UNL d   1      56.692  -1.304  31.752  0.00  0.00     0.004 A 
ATOM      8  C   UNL d   1      56.611   0.007  32.758  0.00  0.00     0.019 A 
ATOM      9  C   UNL d   1      56.181  -1.310  32.400  0.00  0.00     0.000 A 
ATOM     10  C   UNL d   1      56.140  -0.655  32.903  0.00  0.00     0.002 A 
ENDROOT
BRANCH   1  11
ATOM     11  S   UNL d   1      57.711  -1.291  30.459  0.00  0.00    -0.062 SA
BRANCH  11  12
ATOM     12  C   UNL d   1      58.411  -1.479  30.080  0.00  0.00     0.098 C 
BRANCH  12  13
ATOM     13  C   UNL d   1      58.422  -2.034  29.468  0.00  0.00     0.271 C 
ATOM     14  N   UNL d   1      59.146  -2.319  29.176  0.00  0.00    -0.272 N 
ATOM     15  C   UNL d   1      59.886  -2.104  29.436  0.00  0.00     0.083 A 
ATOM     16  C   UNL d   1      59.238  -2.870  28.571  0.00  0.00     0.083 A 
ATOM     17  C   UNL d   1      60.449  -2.519  28.994  0.00  0.00     0.021 A 
ATOM     18  C   UNL d   1      60.035  -2.992  28.461  0.00  0.00     0.021 A 
ATOM     19  O   UNL d   1      57.721  -2.302  29.152  0.00  0.00    -0.266 OA
ENDBRANCH  12  13
ENDBRANCH  11  12
ENDBRANCH   1  11
TORSDOF 3
ENDMDL
MODEL 5
REMARK VINA RESULT:      -2.0      9.399      9.970
REMARK  3 active torsions:
REMARK  status: ('A' for Active; 'I' for Inactive)
REMARK    1  A    between atoms: S_6  and  C_1 
REMARK    2  A    between atoms: C_3  and  C_9 
REMARK       I    between atoms: N_4  and  C_3 
REMARK    3  A    between atoms: C_9  and  S_6 
ROOT
ATOM      1  C   UNL d   1      59.199  -9.598  33.696  0.00  0.00     0.114 A 
ATOM      2  C   UNL d   1      59.795  -9.306  34.182  0.00  0.00     0.042 A 
ATOM      3  N   UNL d   1      58.472  -9.810  34.024  0.00  0.00    -0.217 NA
ATOM      4  N   UNL d   1      58.944  -9.436  35.322  0.00  0.00    -0.224 NA
ATOM      5  C   UNL d   1      58.345  -9.729  34.837  0.00  0.00     0.200 A 
ATOM      6  C   UNL d   1      59.667  -9.225  34.995  0.00  0.00     0.085 A 
ATOM      7  C   UNL d   1      60.522  -9.094  33.854  0.00  0.00     0.004 A 
ATOM      8  C   UNL d   1      60.267  -8.932  35.480  0.00  0.00     0.019 A 
ATOM      9  C   UNL d   1      61.121  -8.801  34.340  0.00  0.00     0.000 A 
ATOM     10  C   UNL d   1      60.993  -8.720  35.153  0.00  0.00     0.002 A 
ENDROOT
BRANCH   1  11
ATOM     11  S   UNL d   1      59.327  -9.678  32.884  0.00  0.00    -0.062 SA
BRANCH  11  12
ATOM     12  C   UNL d   1      58.698  -9.814  32.377  0.00  0.00     0.098 C 
BRANCH  12  13
ATOM     13  C   UNL d   1      58.807  -9.794  31.559  0.00  0.00     0.271 C 
ATOM     14  N   UNL d   1      58.148  -9.778  31.051  0.00  0.00    -0.272 N 
ATOM     15  C   UNL d   1      57.367  -9.780  31.278  0.00  0.00     0.083 A 
ATOM     16  C   UNL d   1      58.175  -9.758  30.229  0.00  0.00     0.083 A 
ATOM     17  C   UNL d   1      56.897  -9.761  30.598  0.00  0.00     0.021 A 
ATOM     18  C   UNL d   1      57.410  -9.747  29.952  0.00  0.00     0.021 A 
ATOM     19  O   UNL d   1      59.560  -9.789  31.249  0.00  0.00    -0.266 OA
ENDBRANCH  12  13
ENDBRANCH  11  12
ENDBRANCH   1  11
TORSDOF 3
ENDMDL
