MODEL 1
REMARK VINA RESULT:      -5.3      0.000      0.000
REMARK  5 active torsions:
REMARK  status: ('A' for Active; 'I' for Inactive)
REMARK    1  A    between atoms: C_4  and  S_1 
REMARK    2  A    between atoms: N_5  and  S_1 
REMARK       I    between atoms: N_2  and  C_3 
REMARK    3  A    between atoms: C_3  and  C_6 
REMARK    4  A    between atoms: C_16  and  N_5 
REMARK    5  A    between atoms: C_19  and  C_16 
ROOT
ATOM      1  C   UNL d   1     -48.457  14.339  22.933  0.00  0.00     0.057 A 
ATOM      2  C   UNL d   1     -48.301  13.647  23.362  0.00  0.00     0.005 A 
ATOM      3  C   UNL d   1     -47.837  14.723  22.542  0.00  0.00     0.005 A 
ATOM      4  C   UNL d   1     -46.917  13.732  23.004  0.00  0.00     0.020 A 
ATOM      5  C   UNL d   1     -47.528  13.346  23.395  0.00  0.00     0.002 A 
ATOM      6  C   UNL d   1     -47.066  14.419  22.578  0.00  0.00     0.002 A 
ENDROOT
BRANCH   4   7
ATOM      7  C   UNL d   1     -46.153  13.432  23.038  0.00  0.00     0.112 C 
BRANCH   7   8
ATOM      8  N   UNL d   1     -45.801  13.108  22.373  0.00  0.00    -0.157 NA
BRANCH   8   9
ATOM      9  S   UNL d   1     -45.148  12.616  22.442  0.00  0.00     0.285 S 
ATOM     10  O   UNL d   1     -45.248  12.374  21.663  0.00  0.00    -0.198 OA
ATOM     11  O   UNL d   1     -45.048  12.861  23.229  0.00  0.00    -0.198 OA
BRANCH   9  12
ATOM     12  C   UNL d   1     -44.490  12.120  22.509  0.00  0.00     0.105 A 
ATOM     13  C   UNL d   1     -43.802  12.295  22.109  0.00  0.00     0.012 A 
ATOM     14  C   UNL d   1     -43.142  11.797  22.177  0.00  0.00     0.001 A 
ATOM     15  C   UNL d   1     -43.768  12.981  21.630  0.00  0.00     0.001 C 
ATOM     16  C   UNL d   1     -43.181  11.128  22.646  0.00  0.00     0.000 A 
ATOM     17  C   UNL d   1     -43.876  10.941  23.057  0.00  0.00     0.001 A 
ATOM     18  C   UNL d   1     -44.534  11.445  22.984  0.00  0.00     0.013 A 
ATOM     19  C   UNL d   1     -43.918  10.268  23.531  0.00  0.00     0.000 C 
ENDBRANCH   9  12
ENDBRANCH   8   9
ENDBRANCH   7   8
ENDBRANCH   4   7
BRANCH   1  20
ATOM     20  C   UNL d   1     -49.221  14.639  22.899  0.00  0.00     0.265 C 
ATOM     21  N   UNL d   1     -49.763  14.340  22.341  0.00  0.00    -0.273 N 
ATOM     22  C   UNL d   1     -50.531  14.640  22.306  0.00  0.00     0.067 A 
ATOM     23  C   UNL d   1     -49.532  13.744  21.825  0.00  0.00     0.083 A 
ATOM     24  C   UNL d   1     -50.765  15.240  22.825  0.00  0.00     0.019 C 
ATOM     25  C   UNL d   1     -51.064  14.342  21.753  0.00  0.00     0.018 A 
ATOM     26  C   UNL d   1     -50.822  13.750  21.245  0.00  0.00     0.003 A 
ATOM     27  C   UNL d   1     -50.061  13.451  21.278  0.00  0.00     0.019 A 
ATOM     28  O   UNL d   1     -49.451  15.237  23.419  0.00  0.00    -0.267 OA
ENDBRANCH   1  20
TORSDOF 5
ENDMDL
MODEL 2
REMARK VINA RESULT:      -5.3      0.536      1.457
REMARK  5 active torsions:
REMARK  status: ('A' for Active; 'I' for Inactive)
REMARK    1  A    between atoms: C_4  and  S_1 
REMARK    2  A    between atoms: N_5  and  S_1 
REMARK       I    between atoms: N_2  and  C_3 
REMARK    3  A    between atoms: C_3  and  C_6 
REMARK    4  A    between atoms: C_16  and  N_5 
REMARK    5  A    between atoms: C_19  and  C_16 
ROOT
ATOM      1  C   UNL d   1     -48.344  14.348  22.885  0.00  0.00     0.057 A 
ATOM      2  C   UNL d   1     -47.827  14.877  22.512  0.00  0.00     0.005 A 
ATOM      3  C   UNL d   1     -48.057  13.623  23.160  0.00  0.00     0.005 A 
ATOM      4  C   UNL d   1     -46.747  13.954  22.693  0.00  0.00     0.020 A 
ATOM      5  C   UNL d   1     -47.026  14.676  22.418  0.00  0.00     0.002 A 
ATOM      6  C   UNL d   1     -47.256  13.425  23.064  0.00  0.00     0.002 A 
ENDROOT
BRANCH   4   7
ATOM      7  C   UNL d   1     -45.954  13.757  22.599  0.00  0.00     0.112 C 
BRANCH   7   8
ATOM      8  N   UNL d   1     -45.736  13.112  22.143  0.00  0.00    -0.157 NA
BRANCH   8   9
ATOM      9  S   UNL d   1     -44.944  12.941  22.013  0.00  0.00     0.285 S 
ATOM     10  O   UNL d   1     -44.754  13.261  22.746  0.00  0.00    -0.198 OA
ATOM     11  O   UNL d   1     -45.136  12.618  21.273  0.00  0.00    -0.198 OA
BRANCH   9  12
ATOM     12  C   UNL d   1     -44.145  12.769  21.884  0.00  0.00     0.105 A 
ATOM     13  C   UNL d   1     -43.808  12.109  22.224  0.00  0.00     0.012 A 
ATOM     14  C   UNL d   1     -43.007  11.937  22.094  0.00  0.00     0.001 A 
ATOM     15  C   UNL d   1     -44.277  11.608  22.703  0.00  0.00     0.001 C 
ATOM     16  C   UNL d   1     -42.554  12.430  21.626  0.00  0.00     0.000 A 
ATOM     17  C   UNL d   1     -42.886  13.103  21.276  0.00  0.00     0.001 A 
ATOM     18  C   UNL d   1     -43.691  13.269  21.410  0.00  0.00     0.013 A 
ATOM     19  C   UNL d   1     -42.432  13.602  20.803  0.00  0.00     0.000 C 
ENDBRANCH   9  12
ENDBRANCH   8   9
ENDBRANCH   7   8
ENDBRANCH   4   7
BRANCH   1  20
ATOM     20  C   UNL d   1     -49.136  14.545  22.979  0.00  0.00     0.265 C 
ATOM     21  N   UNL d   1     -49.704  14.266  22.436  0.00  0.00    -0.273 N 
ATOM     22  C   UNL d   1     -50.500  14.463  22.530  0.00  0.00     0.067 A 
ATOM     23  C   UNL d   1     -49.470  13.794  21.806  0.00  0.00     0.083 A 
ATOM     24  C   UNL d   1     -50.737  14.939  23.163  0.00  0.00     0.019 C 
ATOM     25  C   UNL d   1     -51.059  14.186  21.991  0.00  0.00     0.018 A 
ATOM     26  C   UNL d   1     -50.813  13.717  21.369  0.00  0.00     0.003 A 
ATOM     27  C   UNL d   1     -50.025  13.520  21.274  0.00  0.00     0.019 A 
ATOM     28  O   UNL d   1     -49.369  15.020  23.613  0.00  0.00    -0.267 OA
ENDBRANCH   1  20
TORSDOF 5
ENDMDL
MODEL 3
REMARK VINA RESULT:      -4.4      1.398      5.838
REMARK  5 active torsions:
REMARK  status: ('A' for Active; 'I' for Inactive)
REMARK    1  A    between atoms: C_4  and  S_1 
REMARK    2  A    between atoms: N_5  and  S_1 
REMARK       I    between atoms: N_2  and  C_3 
REMARK    3  A    between atoms: C_3  and  C_6 
REMARK    4  A    between atoms: C_16  and  N_5 
REMARK    5  A    between atoms: C_19  and  C_16 
ROOT
ATOM      1  C   UNL d   1     -45.268  12.592  22.582  0.00  0.00     0.057 A 
ATOM      2  C   UNL d   1     -45.676  12.722  21.873  0.00  0.00     0.005 A 
ATOM      3  C   UNL d   1     -45.581  12.883  23.290  0.00  0.00     0.005 A 
ATOM      4  C   UNL d   1     -46.699  13.427  22.585  0.00  0.00     0.020 A 
ATOM      5  C   UNL d   1     -46.394  13.141  21.878  0.00  0.00     0.002 A 
ATOM      6  C   UNL d   1     -46.298  13.301  23.292  0.00  0.00     0.002 A 
ENDROOT
BRANCH   4   7
ATOM      7  C   UNL d   1     -47.409  13.841  22.588  0.00  0.00     0.112 C 
BRANCH   7   8
ATOM      8  N   UNL d   1     -48.107  13.475  22.363  0.00  0.00    -0.157 NA
BRANCH   8   9
ATOM      9  S   UNL d   1     -48.825  13.707  22.687  0.00  0.00     0.285 S 
ATOM     10  O   UNL d   1     -48.459  14.358  23.030  0.00  0.00    -0.198 OA
ATOM     11  O   UNL d   1     -49.193  13.049  22.339  0.00  0.00    -0.198 OA
BRANCH   9  12
ATOM     12  C   UNL d   1     -49.546  13.943  23.014  0.00  0.00     0.105 A 
ATOM     13  C   UNL d   1     -50.096  13.384  23.239  0.00  0.00     0.012 A 
ATOM     14  C   UNL d   1     -50.820  13.620  23.567  0.00  0.00     0.001 A 
ATOM     15  C   UNL d   1     -49.923  12.571  23.135  0.00  0.00     0.001 C 
ATOM     16  C   UNL d   1     -50.984  14.415  23.666  0.00  0.00     0.000 A 
ATOM     17  C   UNL d   1     -50.433  14.991  23.441  0.00  0.00     0.001 A 
ATOM     18  C   UNL d   1     -49.708  14.746  23.112  0.00  0.00     0.013 A 
ATOM     19  C   UNL d   1     -50.594  15.793  23.539  0.00  0.00     0.000 C 
ENDBRANCH   9  12
ENDBRANCH   8   9
ENDBRANCH   7   8
ENDBRANCH   4   7
BRANCH   1  20
ATOM     20  C   UNL d   1     -44.559  12.178  22.579  0.00  0.00     0.265 C 
ATOM     21  N   UNL d   1     -44.506  11.436  22.955  0.00  0.00    -0.273 N 
ATOM     22  C   UNL d   1     -43.793  11.019  22.953  0.00  0.00     0.067 A 
ATOM     23  C   UNL d   1     -45.165  11.119  23.329  0.00  0.00     0.083 A 
ATOM     24  C   UNL d   1     -43.129  11.337  22.576  0.00  0.00     0.019 C 
ATOM     25  C   UNL d   1     -43.744  10.286  23.326  0.00  0.00     0.018 A 
ATOM     26  C   UNL d   1     -44.407   9.982  23.694  0.00  0.00     0.003 A 
ATOM     27  C   UNL d   1     -45.114  10.394  23.698  0.00  0.00     0.019 A 
ATOM     28  O   UNL d   1     -43.898  12.498  22.202  0.00  0.00    -0.267 OA
ENDBRANCH   1  20
TORSDOF 5
ENDMDL
MODEL 4
REMARK VINA RESULT:      -4.3      2.683      6.466
REMARK  5 active torsions:
REMARK  status: ('A' for Active; 'I' for Inactive)
REMARK    1  A    between atoms: C_4  and  S_1 
REMARK    2  A    between atoms: N_5  and  S_1 
REMARK       I    between atoms: N_2  and  C_3 
REMARK    3  A    between atoms: C_3  and  C_6 
REMARK    4  A    between atoms: C_16  and  N_5 
REMARK    5  A    between atoms: C_19  and  C_16 
ROOT
ATOM      1  C   UNL d   1     -41.882  13.719  21.107  0.00  0.00     0.057 A 
ATOM      2  C   UNL d   1     -42.469  14.286  21.249  0.00  0.00     0.005 A 
ATOM      3  C   UNL d   1     -42.076  12.915  21.143  0.00  0.00     0.005 A 
ATOM      4  C   UNL d   1     -43.430  13.246  21.459  0.00  0.00     0.020 A 
ATOM      5  C   UNL d   1     -43.244  14.045  21.425  0.00  0.00     0.002 A 
ATOM      6  C   UNL d   1     -42.852  12.678  21.319  0.00  0.00     0.002 A 
ENDROOT
BRANCH   4   7
ATOM      7  C   UNL d   1     -44.198  13.010  21.633  0.00  0.00     0.112 C 
BRANCH   7   8
ATOM      8  N   UNL d   1     -44.730  13.535  21.970  0.00  0.00    -0.157 NA
BRANCH   8   9
ATOM      9  S   UNL d   1     -45.428  13.264  22.307  0.00  0.00     0.285 S 
ATOM     10  O   UNL d   1     -45.237  13.648  23.009  0.00  0.00    -0.198 OA
ATOM     11  O   UNL d   1     -45.619  12.877  21.598  0.00  0.00    -0.198 OA
BRANCH   9  12
ATOM     12  C   UNL d   1     -46.130  12.993  22.649  0.00  0.00     0.105 A 
ATOM     13  C   UNL d   1     -46.798  13.460  22.638  0.00  0.00     0.012 A 
ATOM     14  C   UNL d   1     -47.503  13.188  22.981  0.00  0.00     0.001 A 
ATOM     15  C   UNL d   1     -46.766  14.216  22.279  0.00  0.00     0.001 C 
ATOM     16  C   UNL d   1     -47.528  12.449  23.330  0.00  0.00     0.000 A 
ATOM     17  C   UNL d   1     -46.856  11.967  23.346  0.00  0.00     0.001 A 
ATOM     18  C   UNL d   1     -46.152  12.247  23.001  0.00  0.00     0.013 A 
ATOM     19  C   UNL d   1     -46.878  11.221  23.698  0.00  0.00     0.000 C 
ENDBRANCH   9  12
ENDBRANCH   8   9
ENDBRANCH   7   8
ENDBRANCH   4   7
BRANCH   1  20
ATOM     20  C   UNL d   1     -41.115  13.955  20.933  0.00  0.00     0.265 C 
ATOM     21  N   UNL d   1     -40.907  14.158  20.151  0.00  0.00    -0.273 N 
ATOM     22  C   UNL d   1     -40.136  14.395  19.976  0.00  0.00     0.067 A 
ATOM     23  C   UNL d   1     -41.471  14.121  19.556  0.00  0.00     0.083 A 
ATOM     24  C   UNL d   1     -39.567  14.432  20.574  0.00  0.00     0.019 C 
ATOM     25  C   UNL d   1     -39.934  14.595  19.202  0.00  0.00     0.018 A 
ATOM     26  C   UNL d   1     -40.504  14.555  18.618  0.00  0.00     0.003 A 
ATOM     27  C   UNL d   1     -41.269  14.320  18.791  0.00  0.00     0.019 A 
ATOM     28  O   UNL d   1     -40.549  13.990  21.534  0.00  0.00    -0.267 OA
ENDBRANCH   1  20
TORSDOF 5
ENDMDL
MODEL 5
REMARK VINA RESULT:      -3.9      2.943      4.850
REMARK  5 active torsions:
REMARK  status: ('A' for Active; 'I' for Inactive)
REMARK    1  A    between atoms: C_4  and  S_1 
REMARK    2  A    between atoms: N_5  and  S_1 
REMARK       I    between atoms: N_2  and  C_3 
REMARK    3  A    between atoms: C_3  and  C_6 
REMARK    4  A    between atoms: C_16  and  N_5 
REMARK    5  A    between atoms: C_19  and  C_16 
ROOT
ATOM      1  C   UNL d   1     -44.541  12.449  22.223  0.00  0.00     0.057 A 
ATOM      2  C   UNL d   1     -43.786  12.252  22.501  0.00  0.00     0.005 A 
ATOM      3  C   UNL d   1     -44.617  12.867  21.513  0.00  0.00     0.005 A 
ATOM      4  C   UNL d   1     -43.196  12.890  21.363  0.00  0.00     0.020 A 
ATOM      5  C   UNL d   1     -43.114  12.475  22.066  0.00  0.00     0.002 A 
ATOM      6  C   UNL d   1     -43.944  13.088  21.082  0.00  0.00     0.002 A 
ENDROOT
BRANCH   4   7
ATOM      7  C   UNL d   1     -42.530  13.109  20.935  0.00  0.00     0.112 C 
BRANCH   7   8
ATOM      8  N   UNL d   1     -42.043  13.714  21.199  0.00  0.00    -0.157 NA
BRANCH   8   9
ATOM      9  S   UNL d   1     -41.442  14.006  20.723  0.00  0.00     0.285 S 
ATOM     10  O   UNL d   1     -41.220  13.239  20.533  0.00  0.00    -0.198 OA
ATOM     11  O   UNL d   1     -41.668  14.782  20.916  0.00  0.00    -0.198 OA
BRANCH   9  12
ATOM     12  C   UNL d   1     -40.837  14.299  20.243  0.00  0.00     0.105 A 
ATOM     13  C   UNL d   1     -40.124  14.520  20.572  0.00  0.00     0.012 A 
ATOM     14  C   UNL d   1     -39.516  14.814  20.090  0.00  0.00     0.001 A 
ATOM     15  C   UNL d   1     -40.012  14.448  21.398  0.00  0.00     0.001 C 
ATOM     16  C   UNL d   1     -39.631  14.882  19.283  0.00  0.00     0.000 A 
ATOM     17  C   UNL d   1     -40.351  14.660  18.939  0.00  0.00     0.001 A 
ATOM     18  C   UNL d   1     -40.956  14.367  19.429  0.00  0.00     0.013 A 
ATOM     19  C   UNL d   1     -40.470  14.728  18.126  0.00  0.00     0.000 C 
ENDBRANCH   9  12
ENDBRANCH   8   9
ENDBRANCH   7   8
ENDBRANCH   4   7
BRANCH   1  20
ATOM     20  C   UNL d   1     -45.207  12.229  22.651  0.00  0.00     0.265 C 
ATOM     21  N   UNL d   1     -45.804  12.788  22.811  0.00  0.00    -0.273 N 
ATOM     22  C   UNL d   1     -46.474  12.569  23.241  0.00  0.00     0.067 A 
ATOM     23  C   UNL d   1     -45.725  13.560  22.541  0.00  0.00     0.083 A 
ATOM     24  C   UNL d   1     -46.554  11.792  23.514  0.00  0.00     0.019 C 
ATOM     25  C   UNL d   1     -47.062  13.124  23.398  0.00  0.00     0.018 A 
ATOM     26  C   UNL d   1     -46.972  13.888  23.123  0.00  0.00     0.003 A 
ATOM     27  C   UNL d   1     -46.309  14.107  22.697  0.00  0.00     0.019 A 
ATOM     28  O   UNL d   1     -45.284  11.453  22.922  0.00  0.00    -0.267 OA
ENDBRANCH   1  20
TORSDOF 5
ENDMDL
MODEL 6
REMARK VINA RESULT:      -3.4      4.135      7.463
REMARK  5 active torsions:
REMARK  status: ('A' for Active; 'I' for Inactive)
REMARK    1  A    between atoms: C_4  and  S_1 
REMARK    2  A    between atoms: N_5  and  S_1 
REMARK       I    between atoms: N_2  and  C_3 
REMARK    3  A    between atoms: C_3  and  C_6 
REMARK    4  A    between atoms: C_16  and  N_5 
REMARK    5  A    between atoms: C_19  and  C_16 
ROOT
ATOM      1  C   UNL d   1     -40.373  14.900  19.745  0.00  0.00     0.057 A 
ATOM      2  C   UNL d   1     -40.404  14.081  19.858  0.00  0.00     0.005 A 
ATOM      3  C   UNL d   1     -40.919  15.386  20.132  0.00  0.00     0.005 A 
ATOM      4  C   UNL d   1     -41.521  14.241  20.740  0.00  0.00     0.020 A 
ATOM      5  C   UNL d   1     -40.982  13.754  20.358  0.00  0.00     0.002 A 
ATOM      6  C   UNL d   1     -41.494  15.056  20.631  0.00  0.00     0.002 A 
ENDROOT
BRANCH   4   7
ATOM      7  C   UNL d   1     -42.091  13.915  21.234  0.00  0.00     0.112 C 
BRANCH   7   8
ATOM      8  N   UNL d   1     -42.490  13.232  21.018  0.00  0.00    -0.157 NA
BRANCH   8   9
ATOM      9  S   UNL d   1     -43.178  13.009  21.405  0.00  0.00     0.285 S 
ATOM     10  O   UNL d   1     -42.922  13.396  22.084  0.00  0.00    -0.198 OA
ATOM     11  O   UNL d   1     -43.437  12.619  20.720  0.00  0.00    -0.198 OA
BRANCH   9  12
ATOM     12  C   UNL d   1     -43.871  12.786  21.797  0.00  0.00     0.105 A 
ATOM     13  C   UNL d   1     -43.887  12.104  22.245  0.00  0.00     0.012 A 
ATOM     14  C   UNL d   1     -44.583  11.881  22.638  0.00  0.00     0.001 A 
ATOM     15  C   UNL d   1     -43.198  11.634  22.303  0.00  0.00     0.001 C 
ATOM     16  C   UNL d   1     -45.254  12.344  22.577  0.00  0.00     0.000 A 
ATOM     17  C   UNL d   1     -45.248  13.038  22.126  0.00  0.00     0.001 A 
ATOM     18  C   UNL d   1     -44.547  13.256  21.734  0.00  0.00     0.013 A 
ATOM     19  C   UNL d   1     -45.923  13.507  22.062  0.00  0.00     0.000 C 
ENDBRANCH   9  12
ENDBRANCH   8   9
ENDBRANCH   7   8
ENDBRANCH   4   7
BRANCH   1  20
ATOM     20  C   UNL d   1     -39.803  15.226  19.251  0.00  0.00     0.265 C 
ATOM     21  N   UNL d   1     -39.950  15.298  18.433  0.00  0.00    -0.273 N 
ATOM     22  C   UNL d   1     -39.377  15.625  17.936  0.00  0.00     0.067 A 
ATOM     23  C   UNL d   1     -40.665  15.043  18.122  0.00  0.00     0.083 A 
ATOM     24  C   UNL d   1     -38.656  15.883  18.248  0.00  0.00     0.019 C 
ATOM     25  C   UNL d   1     -39.525  15.695  17.128  0.00  0.00     0.018 A 
ATOM     26  C   UNL d   1     -40.241  15.437  16.832  0.00  0.00     0.003 A 
ATOM     27  C   UNL d   1     -40.810  15.112  17.323  0.00  0.00     0.019 A 
ATOM     28  O   UNL d   1     -39.084  15.482  19.566  0.00  0.00    -0.267 OA
ENDBRANCH   1  20
TORSDOF 5
ENDMDL
