MODEL 1
REMARK VINA RESULT:      56.4      0.000      0.000
REMARK  5 active torsions:
REMARK  status: ('A' for Active; 'I' for Inactive)
REMARK    1  A    between atoms: C_6  and  N_1 
REMARK    2  A    between atoms: C_7  and  C_2 
REMARK    3  A    between atoms: C_14  and  C_5 
REMARK    4  A    between atoms: C_11  and  C_7 
REMARK    5  A    between atoms: O_26  and  C_23 
ROOT
ATOM      1  N   UNL d   1      14.193  12.924  -1.855  0.00  0.00    -0.250 N 
ATOM      2  C   UNL d   1      13.846  13.883  -2.703  0.00  0.00     0.099 A 
ATOM      3  C   UNL d   1      13.767  12.586  -2.492  0.00  0.00     0.305 A 
ATOM      4  C   UNL d   1      13.559  13.144  -2.995  0.00  0.00     0.256 A 
ATOM      5  C   UNL d   1      14.241  13.724  -1.987  0.00  0.00     0.075 A 
ATOM      6  O   UNL d   1      13.584  11.779  -2.588  0.00  0.00    -0.263 OA
ATOM      7  O   UNL d   1      13.124  13.012  -3.703  0.00  0.00    -0.281 OA
ENDROOT
BRANCH   5   8
ATOM      8  C   UNL d   1      14.608  14.270  -1.507  0.00  0.00     0.017 A 
ATOM      9  C   UNL d   1      15.367  14.526  -1.698  0.00  0.00     0.004 A 
ATOM     10  C   UNL d   1      15.744  15.091  -1.197  0.00  0.00     0.024 A 
ATOM     11  C   UNL d   1      15.359  15.383  -0.528  0.00  0.00     0.094 A 
ATOM     12  C   UNL d   1      14.595  15.115  -0.351  0.00  0.00     0.024 A 
ATOM     13  C   UNL d   1      14.219  14.558  -0.840  0.00  0.00     0.004 A 
BRANCH  11  14
ATOM     14  O   UNL d   1      15.724  15.929  -0.045  0.00  0.00    -0.328 OA
ATOM     15  C   UNL d   1      15.670  16.730  -0.223  0.00  0.00     0.181 C 
ENDBRANCH  11  14
ENDBRANCH   5   8
BRANCH   2  16
ATOM     16  C   UNL d   1      13.754  14.624  -3.057  0.00  0.00     0.206 C 
ATOM     17  O   UNL d   1      13.738  15.312  -2.567  0.00  0.00    -0.286 OA
BRANCH  16  18
ATOM     18  C   UNL d   1      13.682  14.677  -3.865  0.00  0.00     0.069 A 
ATOM     19  S   UNL d   1      14.213  15.062  -4.401  0.00  0.00    -0.083 SA
ATOM     20  C   UNL d   1      13.926  14.977  -5.140  0.00  0.00     0.035 A 
ATOM     21  C   UNL d   1      13.225  14.550  -5.113  0.00  0.00     0.008 A 
ATOM     22  C   UNL d   1      13.070  14.359  -4.304  0.00  0.00     0.010 A 
ENDBRANCH  16  18
ENDBRANCH   2  16
BRANCH   1  23
ATOM     23  C   UNL d   1      14.497  12.485  -1.219  0.00  0.00     0.204 A 
ATOM     24  S   UNL d   1      14.013  12.180  -0.610  0.00  0.00    -0.025 SA
ATOM     25  C   UNL d   1      14.504  11.779  -0.081  0.00  0.00     0.161 A 
ATOM     26  N   UNL d   1      15.271  11.838  -0.362  0.00  0.00    -0.137 NA
ATOM     27  N   UNL d   1      15.271  12.275  -1.069  0.00  0.00    -0.122 NA
ENDBRANCH   1  23
TORSDOF 5
ENDMDL
