MODEL 1
REMARK VINA RESULT:       9.4      0.000      0.000
REMARK  2 active torsions:
REMARK  status: ('A' for Active; 'I' for Inactive)
REMARK    1  A    between atoms: N_4  and  C_1 
REMARK    2  A    between atoms: C_6  and  C_2 
ROOT
ATOM      1  C   UNL d   1     -52.112  24.843  33.350  0.00  0.00     0.149 A 
ATOM      2  C   UNL d   1     -51.346  24.517  33.340  0.00  0.00     0.056 A 
ATOM      3  N   UNL d   1     -52.228  25.652  33.338  0.00  0.00    -0.228 NA
ATOM      4  C   UNL d   1     -50.700  25.019  33.320  0.00  0.00     0.006 A 
ATOM      5  C   UNL d   1     -51.585  26.157  33.318  0.00  0.00     0.083 A 
ATOM      6  C   UNL d   1     -50.817  25.844  33.308  0.00  0.00     0.019 A 
ATOM      7  C   UNL d   1     -49.929  24.714  33.310  0.00  0.00     0.000 C 
ATOM      8  C   UNL d   1     -51.696  26.974  33.306  0.00  0.00     0.021 C 
ENDROOT
BRANCH   1   9
ATOM      9  N   UNL d   1     -52.765  24.335  33.371  0.00  0.00    -0.289 N 
ATOM     10  C   UNL d   1     -52.664  23.624  33.454  0.00  0.00     0.082 A 
ATOM     11  C   UNL d   1     -53.237  23.191  33.471  0.00  0.00     0.021 A 
ATOM     12  C   UNL d   1     -53.985  24.169  33.325  0.00  0.00     0.021 A 
ATOM     13  C   UNL d   1     -53.416  24.601  33.308  0.00  0.00     0.082 A 
ENDBRANCH   1   9
BRANCH   2  14
ATOM     14  C   UNL d   1     -51.239  23.707  33.352  0.00  0.00     0.125 C 
ATOM     15  N   UNL d   1     -50.483  23.391  33.306  0.00  0.00    -0.146 N 
ENDBRANCH   2  14
TORSDOF 2
ENDMDL
MODEL 2
REMARK VINA RESULT:       9.5      0.757      2.766
REMARK  2 active torsions:
REMARK  status: ('A' for Active; 'I' for Inactive)
REMARK    1  A    between atoms: N_4  and  C_1 
REMARK    2  A    between atoms: C_6  and  C_2 
ROOT
ATOM      1  C   UNL d   1     -51.492  24.940  33.314  0.00  0.00     0.149 A 
ATOM      2  C   UNL d   1     -52.216  24.528  33.314  0.00  0.00     0.056 A 
ATOM      3  N   UNL d   1     -50.779  24.541  33.316  0.00  0.00    -0.228 NA
ATOM      4  C   UNL d   1     -52.208  23.710  33.317  0.00  0.00     0.006 A 
ATOM      5  C   UNL d   1     -50.768  23.723  33.319  0.00  0.00     0.083 A 
ATOM      6  C   UNL d   1     -51.482  23.303  33.319  0.00  0.00     0.019 A 
ATOM      7  C   UNL d   1     -52.919  23.282  33.317  0.00  0.00     0.000 C 
ATOM      8  C   UNL d   1     -50.050  23.316  33.321  0.00  0.00     0.021 C 
ENDROOT
BRANCH   1   9
ATOM      9  N   UNL d   1     -51.500  25.767  33.311  0.00  0.00    -0.289 N 
ATOM     10  C   UNL d   1     -52.130  26.120  33.309  0.00  0.00     0.082 A 
ATOM     11  C   UNL d   1     -52.128  26.838  33.307  0.00  0.00     0.021 A 
ATOM     12  C   UNL d   1     -50.887  26.836  33.309  0.00  0.00     0.021 A 
ATOM     13  C   UNL d   1     -50.889  26.122  33.311  0.00  0.00     0.082 A 
ENDBRANCH   1   9
BRANCH   2  14
ATOM     14  C   UNL d   1     -52.924  24.935  33.312  0.00  0.00     0.125 C 
ATOM     15  N   UNL d   1     -53.635  24.523  33.306  0.00  0.00    -0.146 N 
ENDBRANCH   2  14
TORSDOF 2
ENDMDL
MODEL 3
REMARK VINA RESULT:      11.6      0.633      1.828
REMARK  2 active torsions:
REMARK  status: ('A' for Active; 'I' for Inactive)
REMARK    1  A    between atoms: N_4  and  C_1 
REMARK    2  A    between atoms: C_6  and  C_2 
ROOT
ATOM      1  C   UNL d   1     -51.709  24.288  33.358  0.00  0.00     0.149 A 
ATOM      2  C   UNL d   1     -51.493  25.092  33.339  0.00  0.00     0.056 A 
ATOM      3  N   UNL d   1     -51.143  23.698  33.376  0.00  0.00    -0.228 NA
ATOM      4  C   UNL d   1     -50.699  25.290  33.340  0.00  0.00     0.006 A 
ATOM      5  C   UNL d   1     -50.349  23.893  33.377  0.00  0.00     0.083 A 
ATOM      6  C   UNL d   1     -50.122  24.690  33.359  0.00  0.00     0.019 A 
ATOM      7  C   UNL d   1     -50.463  26.085  33.322  0.00  0.00     0.000 C 
ATOM      8  C   UNL d   1     -49.774  23.301  33.396  0.00  0.00     0.021 C 
ENDROOT
BRANCH   1   9
ATOM      9  N   UNL d   1     -52.511  24.087  33.357  0.00  0.00    -0.289 N 
ATOM     10  C   UNL d   1     -52.707  23.393  33.322  0.00  0.00     0.082 A 
ATOM     11  C   UNL d   1     -53.406  23.227  33.322  0.00  0.00     0.021 A 
ATOM     12  C   UNL d   1     -53.694  24.431  33.390  0.00  0.00     0.021 A 
ATOM     13  C   UNL d   1     -53.000  24.597  33.390  0.00  0.00     0.082 A 
ENDBRANCH   1   9
BRANCH   2  14
ATOM     14  C   UNL d   1     -52.065  25.675  33.321  0.00  0.00     0.125 C 
ATOM     15  N   UNL d   1     -51.912  26.411  33.651  0.00  0.00    -0.146 N 
ENDBRANCH   2  14
TORSDOF 2
ENDMDL
