MODEL 1
REMARK VINA RESULT:      11.8      0.000      0.000
REMARK  3 active torsions:
REMARK  status: ('A' for Active; 'I' for Inactive)
REMARK    1  A    between atoms: C_6  and  N_1 
REMARK    2  A    between atoms: C_5  and  C_6 
REMARK       I    between atoms: N_8  and  C_5 
REMARK    3  A    between atoms: C_10  and  N_8 
ROOT
ATOM      1  C   UNL d   1      46.117 -16.874  44.512  0.00  0.00     0.297 C 
ATOM      2  N   UNL d   1      46.577 -17.531  44.720  0.00  0.00    -0.207 NA
ATOM      3  O   UNL d   1      45.612 -16.916  43.865  0.00  0.00    -0.264 OA
ENDROOT
BRANCH   1   4
ATOM      4  C   UNL d   1      46.166 -16.182  44.955  0.00  0.00     0.145 C 
BRANCH   4   5
ATOM      5  N   UNL d   1      45.575 -15.614  44.901  0.00  0.00    -0.282 N 
ATOM      6  C   UNL d   1      44.761 -15.747  44.954  0.00  0.00     0.183 A 
ATOM      7  N   UNL d   1      44.378 -15.022  44.870  0.00  0.00    -0.224 NA
ATOM      8  C   UNL d   1      44.952 -14.436  44.764  0.00  0.00     0.099 A 
ATOM      9  C   UNL d   1      45.693 -14.806  44.784  0.00  0.00     0.083 A 
ATOM     10  C   UNL d   1      44.894 -13.623  44.653  0.00  0.00     0.021 A 
ATOM     11  C   UNL d   1      46.372 -14.348  44.691  0.00  0.00     0.019 A 
ATOM     12  C   UNL d   1      46.325 -13.540  44.581  0.00  0.00     0.002 A 
ATOM     13  C   UNL d   1      45.579 -13.166  44.560  0.00  0.00     0.002 A 
ENDBRANCH   4   5
ENDBRANCH   1   4
BRANCH   2  14
ATOM     14  C   UNL d   1      46.482 -18.195  44.235  0.00  0.00     0.085 A 
ATOM     15  C   UNL d   1      46.334 -18.927  44.571  0.00  0.00     0.019 A 
ATOM     16  C   UNL d   1      46.237 -19.592  44.094  0.00  0.00     0.002 A 
ATOM     17  C   UNL d   1      46.088 -20.330  44.435  0.00  0.00     0.000 C 
ATOM     18  C   UNL d   1      46.291 -19.516  43.266  0.00  0.00     0.000 A 
ATOM     19  C   UNL d   1      46.440 -18.780  42.931  0.00  0.00     0.002 A 
ATOM     20  C   UNL d   1      46.195 -20.181  42.781  0.00  0.00     0.000 C 
ATOM     21  C   UNL d   1      46.536 -18.115  43.416  0.00  0.00     0.019 A 
ENDBRANCH   2  14
TORSDOF 3
ENDMDL
