MODEL 1
REMARK VINA RESULT:      59.6      0.000      0.000
REMARK  5 active torsions:
REMARK  status: ('A' for Active; 'I' for Inactive)
REMARK    1  A    between atoms: C_3  and  C_1 
REMARK    2  A    between atoms: S_2  and  C_3 
REMARK    3  A    between atoms: C_8  and  S_2 
REMARK    4  A    between atoms: C_9  and  C_3 
REMARK    5  A    between atoms: N_7  and  C_4 
ROOT
ATOM      1  C   UNL d   1      13.907  13.689  -3.409  0.00  0.00     0.128 A 
ATOM      2  C   UNL d   1      13.835  13.788  -4.220  0.00  0.00     0.166 A 
ATOM      3  N   UNL d   1      14.127  14.323  -2.930  0.00  0.00    -0.240 NA
ATOM      4  N   UNL d   1      13.984  14.521  -4.561  0.00  0.00    -0.225 NA
ATOM      5  C   UNL d   1      14.274  15.052  -3.275  0.00  0.00     0.099 A 
ATOM      6  C   UNL d   1      14.205  15.160  -4.086  0.00  0.00     0.101 A 
ATOM      7  C   UNL d   1      14.354  15.892  -4.418  0.00  0.00     0.021 A 
ATOM      8  C   UNL d   1      14.496  15.691  -2.796  0.00  0.00     0.021 A 
ATOM      9  C   UNL d   1      14.572  16.523  -3.948  0.00  0.00     0.002 A 
ATOM     10  C   UNL d   1      14.643  16.420  -3.137  0.00  0.00     0.002 A 
ENDROOT
BRANCH   1  11
ATOM     11  C   UNL d   1      13.760  12.959  -3.064  0.00  0.00     0.129 C 
BRANCH  11  12
ATOM     12  S   UNL d   1      14.367  12.633  -2.503  0.00  0.00     0.213 S 
ATOM     13  O   UNL d   1      15.093  12.264  -2.856  0.00  0.00    -0.217 OA
ATOM     14  O   UNL d   1      14.664  12.495  -3.266  0.00  0.00    -0.217 OA
BRANCH  12  15
ATOM     15  C   UNL d   1      14.412  12.593  -1.672  0.00  0.00     0.088 A 
ATOM     16  C   UNL d   1      14.864  13.157  -1.260  0.00  0.00     0.011 A 
ATOM     17  C   UNL d   1      14.905  13.112  -0.435  0.00  0.00     0.001 A 
ATOM     18  C   UNL d   1      15.349  13.664  -0.019  0.00  0.00     0.000 C 
ATOM     19  C   UNL d   1      14.503  12.516  -0.024  0.00  0.00     0.000 A 
ATOM     20  C   UNL d   1      14.052  11.957  -0.448  0.00  0.00     0.001 A 
ATOM     21  C   UNL d   1      14.014  12.005  -1.270  0.00  0.00     0.011 A 
ENDBRANCH  12  15
ENDBRANCH  11  12
BRANCH  11  22
ATOM     22  C   UNL d   1      13.084  12.426  -3.157  0.00  0.00     0.135 C 
ATOM     23  N   UNL d   1      12.818  11.780  -2.615  0.00  0.00    -0.146 N 
ENDBRANCH  11  22
ENDBRANCH   1  11
BRANCH   2  24
ATOM     24  N   UNL d   1      13.613  13.147  -4.696  0.00  0.00    -0.284 N 
ATOM     25  C   UNL d   1      12.987  13.234  -5.242  0.00  0.00     0.108 A 
ATOM     26  C   UNL d   1      12.770  12.581  -5.717  0.00  0.00     0.142 A 
ATOM     27  O   UNL d   1      13.173  11.854  -5.647  0.00  0.00    -0.300 OA
ATOM     28  C   UNL d   1      13.792  11.781  -5.102  0.00  0.00     0.142 A 
ATOM     29  C   UNL d   1      14.016  12.420  -4.626  0.00  0.00     0.108 A 
ENDBRANCH   2  24
TORSDOF 5
ENDMDL
MODEL 2
REMARK VINA RESULT:      61.6      1.488      4.083
REMARK  5 active torsions:
REMARK  status: ('A' for Active; 'I' for Inactive)
REMARK    1  A    between atoms: C_3  and  C_1 
REMARK    2  A    between atoms: S_2  and  C_3 
REMARK    3  A    between atoms: C_8  and  S_2 
REMARK    4  A    between atoms: C_9  and  C_3 
REMARK    5  A    between atoms: N_7  and  C_4 
ROOT
ATOM      1  C   UNL d   1      14.389  14.020  -2.380  0.00  0.00     0.128 A 
ATOM      2  C   UNL d   1      14.685  14.506  -1.788  0.00  0.00     0.166 A 
ATOM      3  N   UNL d   1      14.287  13.214  -2.243  0.00  0.00    -0.240 NA
ATOM      4  N   UNL d   1      14.882  14.190  -1.055  0.00  0.00    -0.225 NA
ATOM      5  C   UNL d   1      14.484  12.903  -1.510  0.00  0.00     0.099 A 
ATOM      6  C   UNL d   1      14.781  13.382  -0.913  0.00  0.00     0.101 A 
ATOM      7  C   UNL d   1      14.975  13.062  -0.186  0.00  0.00     0.021 A 
ATOM      8  C   UNL d   1      14.382  12.093  -1.371  0.00  0.00     0.021 A 
ATOM      9  C   UNL d   1      14.875  12.264  -0.047  0.00  0.00     0.002 A 
ATOM     10  C   UNL d   1      14.578  11.781  -0.641  0.00  0.00     0.002 A 
ENDROOT
BRANCH   1  11
ATOM     11  C   UNL d   1      14.191  14.330  -3.113  0.00  0.00     0.129 C 
BRANCH  11  12
ATOM     12  S   UNL d   1      13.484  13.992  -3.532  0.00  0.00     0.213 S 
ATOM     13  O   UNL d   1      12.773  14.516  -3.621  0.00  0.00    -0.217 OA
ATOM     14  O   UNL d   1      13.275  14.767  -3.319  0.00  0.00    -0.217 OA
BRANCH  12  15
ATOM     15  C   UNL d   1      13.329  13.252  -3.881  0.00  0.00     0.088 A 
ATOM     16  C   UNL d   1      13.573  13.111  -4.664  0.00  0.00     0.011 A 
ATOM     17  C   UNL d   1      13.416  12.374  -5.006  0.00  0.00     0.001 A 
ATOM     18  C   UNL d   1      13.652  12.225  -5.778  0.00  0.00     0.000 C 
ATOM     19  C   UNL d   1      13.022  11.785  -4.577  0.00  0.00     0.000 A 
ATOM     20  C   UNL d   1      12.782  11.938  -3.793  0.00  0.00     0.001 A 
ATOM     21  C   UNL d   1      12.941  12.674  -3.456  0.00  0.00     0.011 A 
ENDBRANCH  12  15
ENDBRANCH  11  12
BRANCH  11  22
ATOM     22  C   UNL d   1      14.570  14.960  -3.571  0.00  0.00     0.135 C 
ATOM     23  N   UNL d   1      14.929  14.910  -4.378  0.00  0.00    -0.146 N 
ENDBRANCH  11  22
ENDBRANCH   1  11
BRANCH   2  24
ATOM     24  N   UNL d   1      14.785  15.316  -1.932  0.00  0.00    -0.284 N 
ATOM     25  C   UNL d   1      15.307  15.567  -2.535  0.00  0.00     0.108 A 
ATOM     26  C   UNL d   1      15.401  16.386  -2.672  0.00  0.00     0.142 A 
ATOM     27  O   UNL d   1      14.982  16.943  -2.215  0.00  0.00    -0.300 OA
ATOM     28  C   UNL d   1      14.469  16.681  -1.621  0.00  0.00     0.142 A 
ATOM     29  C   UNL d   1      14.366  15.873  -1.475  0.00  0.00     0.108 A 
ENDBRANCH   2  24
TORSDOF 5
ENDMDL
