MODEL 1
REMARK VINA RESULT:      41.2      0.000      0.000
REMARK  6 active torsions:
REMARK  status: ('A' for Active; 'I' for Inactive)
REMARK    1  A    between atoms: N_2  and  S_1 
REMARK    2  A    between atoms: C_3  and  S_1 
REMARK    3  A    between atoms: C_6  and  N_2 
REMARK    4  A    between atoms: C_12  and  C_6 
REMARK    5  A    between atoms: O_10  and  C_11 
REMARK    6  A    between atoms: C_15  and  O_10 
ROOT
ATOM      1  C   UNL d   1     -58.368 -98.929 -44.581  0.00  0.00     0.105 A 
ATOM      2  C   UNL d   1     -58.102 -99.027 -45.359  0.00  0.00     0.015 A 
ATOM      3  C   UNL d   1     -59.176 -98.792 -44.438  0.00  0.00     0.015 A 
ATOM      4  C   UNL d   1     -59.427 -98.856 -45.841  0.00  0.00     0.100 A 
ATOM      5  C   UNL d   1     -59.703 -98.756 -45.068  0.00  0.00     0.025 A 
ATOM      6  C   UNL d   1     -58.631 -98.991 -45.986  0.00  0.00     0.025 A 
ENDROOT
BRANCH   1   7
ATOM      7  S   UNL d   1     -57.842 -98.964 -43.947  0.00  0.00     0.285 S 
ATOM      8  O   UNL d   1     -58.464 -99.166 -43.447  0.00  0.00    -0.198 OA
ATOM      9  O   UNL d   1     -57.320 -99.000 -43.312  0.00  0.00    -0.198 OA
BRANCH   7  10
ATOM     10  N   UNL d   1     -57.213 -98.760 -44.452  0.00  0.00    -0.155 NA
BRANCH  10  11
ATOM     11  C   UNL d   1     -56.434 -98.781 -44.166  0.00  0.00     0.137 C 
BRANCH  11  12
ATOM     12  C   UNL d   1     -55.880 -99.278 -44.531  0.00  0.00     0.120 A 
ATOM     13  O   UNL d   1     -55.993-100.065 -44.763  0.00  0.00    -0.304 OA
ATOM     14  C   UNL d   1     -55.290-100.332 -45.100  0.00  0.00     0.123 A 
ATOM     15  C   UNL d   1     -54.744 -99.722 -45.079  0.00  0.00     0.029 A 
ATOM     16  C   UNL d   1     -55.105 -99.069 -44.728  0.00  0.00     0.028 A 
ENDBRANCH  11  12
ENDBRANCH  10  11
ENDBRANCH   7  10
ENDBRANCH   1   7
BRANCH   4  17
ATOM     17  O   UNL d   1     -59.960 -98.819 -46.479  0.00  0.00    -0.307 OA
BRANCH  17  18
ATOM     18  C   UNL d   1     -59.774 -99.203 -47.190  0.00  0.00     0.100 A 
ATOM     19  C   UNL d   1     -59.685-100.029 -47.214  0.00  0.00     0.025 A 
ATOM     20  C   UNL d   1     -59.499-100.403 -47.926  0.00  0.00     0.002 A 
ATOM     21  C   UNL d   1     -59.403 -99.957 -48.613  0.00  0.00     0.000 A 
ATOM     22  C   UNL d   1     -59.492 -99.131 -48.588  0.00  0.00     0.002 A 
ATOM     23  C   UNL d   1     -59.677 -98.756 -47.877  0.00  0.00     0.025 A 
ENDBRANCH  17  18
ENDBRANCH   4  17
TORSDOF 6
ENDMDL
