MODEL 1
REMARK VINA RESULT:      36.0      0.000      0.000
REMARK  3 active torsions:
REMARK  status: ('A' for Active; 'I' for Inactive)
REMARK       I    between atoms: C_2  and  N_1 
REMARK    1  A    between atoms: C_6  and  C_2 
REMARK    2  A    between atoms: O_14  and  C_9 
REMARK    3  A    between atoms: O_16  and  C_11 
ROOT
ATOM      1  C   UNL d   1      58.694  49.444  50.884  0.00  0.00     0.060 A 
ATOM      2  C   UNL d   1      57.958  49.103  51.018  0.00  0.00     0.031 A 
ATOM      3  C   UNL d   1      57.420  49.017  50.403  0.00  0.00     0.116 A 
ATOM      4  C   UNL d   1      57.621  49.276  49.642  0.00  0.00     0.116 A 
ATOM      5  C   UNL d   1      58.894  49.704  50.123  0.00  0.00     0.007 A 
ATOM      6  C   UNL d   1      58.357  49.619  49.503  0.00  0.00     0.026 A 
ENDROOT
BRANCH   1   7
ATOM      7  C   UNL d   1      59.229  49.528  51.502  0.00  0.00     0.280 C 
ATOM      8  N   UNL d   1      60.035  49.554  51.345  0.00  0.00    -0.195 N 
ATOM      9  N   UNL d   1      60.640  49.637  51.908  0.00  0.00    -0.163 NA
ATOM     10  C   UNL d   1      60.386  49.503  50.603  0.00  0.00     0.088 A 
ATOM     11  C   UNL d   1      61.364  49.636  51.510  0.00  0.00     0.103 A 
ATOM     12  C   UNL d   1      62.111  49.705  51.858  0.00  0.00     0.022 C 
ATOM     13  C   UNL d   1      61.211  49.553  50.706  0.00  0.00     0.040 A 
ATOM     14  C   UNL d   1      59.991  49.416  49.881  0.00  0.00     0.021 C 
ATOM     15  O   UNL d   1      58.957  49.587  52.279  0.00  0.00    -0.265 OA
ENDBRANCH   1   7
BRANCH   3  16
ATOM     16  O   UNL d   1      56.685  48.675  50.541  0.00  0.00    -0.326 OA
ATOM     17  C   UNL d   1      56.038  49.150  50.731  0.00  0.00     0.181 C 
ENDBRANCH   3  16
BRANCH   4  18
ATOM     18  O   UNL d   1      57.084  49.191  49.026  0.00  0.00    -0.326 OA
ATOM     19  C   UNL d   1      56.619  48.513  48.970  0.00  0.00     0.181 C 
ENDBRANCH   4  18
TORSDOF 3
ENDMDL
