MODEL 1
REMARK VINA RESULT:      -3.4      0.000      0.000
REMARK  3 active torsions:
REMARK  status: ('A' for Active; 'I' for Inactive)
REMARK    1  A    between atoms: C_2  and  S_1 
REMARK    2  A    between atoms: N_3  and  S_1 
REMARK    3  A    between atoms: C_10  and  N_3 
ROOT
ATOM      1  S   UNL d   1      31.975  16.805 -24.019  0.00  0.00     0.285 S 
ATOM      2  O   UNL d   1      31.746  16.970 -24.811  0.00  0.00    -0.198 OA
ATOM      3  O   UNL d   1      32.186  16.637 -23.237  0.00  0.00    -0.198 OA
ENDROOT
BRANCH   1   4
ATOM      4  C   UNL d   1      31.216  16.491 -23.862  0.00  0.00     0.107 A 
ATOM      5  C   UNL d   1      30.539  16.906 -24.092  0.00  0.00     0.040 A 
ATOM      6  C   UNL d   1      29.811  16.585 -23.931  0.00  0.00     0.123 A 
ATOM      7  O   UNL d   1      29.127  16.982 -24.151  0.00  0.00    -0.301 OA
ATOM      8  C   UNL d   1      29.754  15.846 -23.539  0.00  0.00     0.123 A 
ATOM      9  C   UNL d   1      28.388  16.644 -23.981  0.00  0.00     0.149 A 
ATOM     10  C   UNL d   1      28.335  15.950 -23.613  0.00  0.00     0.149 A 
ATOM     11  O   UNL d   1      29.016  15.530 -23.381  0.00  0.00    -0.301 OA
ATOM     12  C   UNL d   1      30.428  15.454 -23.322  0.00  0.00     0.028 A 
ATOM     13  C   UNL d   1      31.163  15.797 -23.494  0.00  0.00     0.015 A 
ENDBRANCH   1   4
BRANCH   1  14
ATOM     14  N   UNL d   1      32.735  17.113 -24.154  0.00  0.00    -0.158 NA
BRANCH  14  15
ATOM     15  C   UNL d   1      32.906  17.894 -23.896  0.00  0.00     0.094 A 
ATOM     16  C   UNL d   1      32.986  18.493 -24.466  0.00  0.00     0.020 A 
ATOM     17  C   UNL d   1      33.156  19.269 -24.209  0.00  0.00     0.002 A 
ATOM     18  C   UNL d   1      33.241  19.887 -24.772  0.00  0.00     0.000 C 
ATOM     19  C   UNL d   1      33.240  19.431 -23.405  0.00  0.00     0.000 A 
ATOM     20  C   UNL d   1      33.153  18.811 -22.870  0.00  0.00     0.002 A 
ATOM     21  C   UNL d   1      32.989  18.058 -23.113  0.00  0.00     0.020 A 
ENDBRANCH  14  15
ENDBRANCH   1  14
TORSDOF 3
ENDMDL
MODEL 2
REMARK VINA RESULT:      -3.1      1.157      4.115
REMARK  3 active torsions:
REMARK  status: ('A' for Active; 'I' for Inactive)
REMARK    1  A    between atoms: C_2  and  S_1 
REMARK    2  A    between atoms: N_3  and  S_1 
REMARK    3  A    between atoms: C_10  and  N_3 
ROOT
ATOM      1  S   UNL d   1      31.305  16.493 -24.285  0.00  0.00     0.285 S 
ATOM      2  O   UNL d   1      31.698  16.231 -23.589  0.00  0.00    -0.198 OA
ATOM      3  O   UNL d   1      30.928  16.765 -24.969  0.00  0.00    -0.198 OA
ENDROOT
BRANCH   1   4
ATOM      4  C   UNL d   1      31.749  17.203 -24.270  0.00  0.00     0.107 A 
ATOM      5  C   UNL d   1      31.942  17.557 -23.548  0.00  0.00     0.040 A 
ATOM      6  C   UNL d   1      32.372  18.245 -23.554  0.00  0.00     0.123 A 
ATOM      7  O   UNL d   1      32.573  18.612 -22.847  0.00  0.00    -0.301 OA
ATOM      8  C   UNL d   1      32.613  18.584 -24.282  0.00  0.00     0.123 A 
ATOM      9  C   UNL d   1      33.014  19.316 -22.866  0.00  0.00     0.149 A 
ATOM     10  C   UNL d   1      33.241  19.634 -23.550  0.00  0.00     0.149 A 
ATOM     11  O   UNL d   1      33.047  19.278 -24.278  0.00  0.00    -0.301 OA
ATOM     12  C   UNL d   1      32.415  18.224 -24.979  0.00  0.00     0.028 A 
ATOM     13  C   UNL d   1      31.975  17.521 -24.953  0.00  0.00     0.015 A 
ENDBRANCH   1   4
BRANCH   1  14
ATOM     14  N   UNL d   1      30.856  15.795 -24.317  0.00  0.00    -0.158 NA
BRANCH  14  15
ATOM     15  C   UNL d   1      30.182  15.727 -23.819  0.00  0.00     0.094 A 
ATOM     16  C   UNL d   1      29.432  15.879 -24.141  0.00  0.00     0.020 A 
ATOM     17  C   UNL d   1      28.763  15.811 -23.647  0.00  0.00     0.002 A 
ATOM     18  C   UNL d   1      27.996  15.962 -23.956  0.00  0.00     0.000 C 
ATOM     19  C   UNL d   1      28.852  15.596 -22.856  0.00  0.00     0.000 A 
ATOM     20  C   UNL d   1      29.612  15.453 -22.573  0.00  0.00     0.002 A 
ATOM     21  C   UNL d   1      30.263  15.517 -23.047  0.00  0.00     0.020 A 
ENDBRANCH  14  15
ENDBRANCH   1  14
TORSDOF 3
ENDMDL
MODEL 3
REMARK VINA RESULT:      -3.1      2.391      4.662
REMARK  3 active torsions:
REMARK  status: ('A' for Active; 'I' for Inactive)
REMARK    1  A    between atoms: C_2  and  S_1 
REMARK    2  A    between atoms: N_3  and  S_1 
REMARK    3  A    between atoms: C_10  and  N_3 
ROOT
ATOM      1  S   UNL d   1      33.212  18.837 -23.056  0.00  0.00     0.285 S 
ATOM      2  O   UNL d   1      33.241  19.357 -23.717  0.00  0.00    -0.198 OA
ATOM      3  O   UNL d   1      33.184  18.339 -22.397  0.00  0.00    -0.198 OA
ENDROOT
BRANCH   1   4
ATOM      4  C   UNL d   1      33.207  19.493 -22.538  0.00  0.00     0.107 A 
ATOM      5  C   UNL d   1      33.174  20.262 -22.841  0.00  0.00     0.040 A 
ATOM      6  C   UNL d   1      33.169  20.886 -22.322  0.00  0.00     0.123 A 
ATOM      7  O   UNL d   1      33.137  21.657 -22.603  0.00  0.00    -0.301 OA
ATOM      8  C   UNL d   1      33.197  20.746 -21.495  0.00  0.00     0.123 A 
ATOM      9  C   UNL d   1      33.133  22.287 -22.061  0.00  0.00     0.149 A 
ATOM     10  C   UNL d   1      33.159  22.155 -21.286  0.00  0.00     0.149 A 
ATOM     11  O   UNL d   1      33.192  21.381 -20.979  0.00  0.00    -0.301 OA
ATOM     12  C   UNL d   1      33.229  19.987 -21.217  0.00  0.00     0.028 A 
ATOM     13  C   UNL d   1      33.233  19.361 -21.762  0.00  0.00     0.015 A 
ENDBRANCH   1   4
BRANCH   1  14
ATOM     14  N   UNL d   1      33.217  18.172 -23.555  0.00  0.00    -0.158 NA
BRANCH  14  15
ATOM     15  C   UNL d   1      32.486  17.891 -23.859  0.00  0.00     0.094 A 
ATOM     16  C   UNL d   1      32.169  17.189 -23.548  0.00  0.00     0.020 A 
ATOM     17  C   UNL d   1      31.442  16.910 -23.849  0.00  0.00     0.002 A 
ATOM     18  C   UNL d   1      31.107  16.201 -23.546  0.00  0.00     0.000 C 
ATOM     19  C   UNL d   1      31.052  17.327 -24.444  0.00  0.00     0.000 A 
ATOM     20  C   UNL d   1      31.398  18.018 -24.727  0.00  0.00     0.002 A 
ATOM     21  C   UNL d   1      32.100  18.293 -24.439  0.00  0.00     0.020 A 
ENDBRANCH  14  15
ENDBRANCH   1  14
TORSDOF 3
ENDMDL
MODEL 4
REMARK VINA RESULT:      -3.1      1.055      1.323
REMARK  3 active torsions:
REMARK  status: ('A' for Active; 'I' for Inactive)
REMARK    1  A    between atoms: C_2  and  S_1 
REMARK    2  A    between atoms: N_3  and  S_1 
REMARK    3  A    between atoms: C_10  and  N_3 
ROOT
ATOM      1  S   UNL d   1      32.513  17.829 -23.942  0.00  0.00     0.285 S 
ATOM      2  O   UNL d   1      32.358  18.288 -24.630  0.00  0.00    -0.198 OA
ATOM      3  O   UNL d   1      32.651  17.371 -23.269  0.00  0.00    -0.198 OA
ENDROOT
BRANCH   1   4
ATOM      4  C   UNL d   1      31.808  17.398 -24.069  0.00  0.00     0.107 A 
ATOM      5  C   UNL d   1      31.150  17.766 -24.410  0.00  0.00     0.040 A 
ATOM      6  C   UNL d   1      30.475  17.331 -24.525  0.00  0.00     0.123 A 
ATOM      7  O   UNL d   1      29.812  17.678 -24.862  0.00  0.00    -0.301 OA
ATOM      8  C   UNL d   1      30.452  16.523 -24.298  0.00  0.00     0.123 A 
ATOM      9  C   UNL d   1      29.127  17.222 -24.974  0.00  0.00     0.149 A 
ATOM     10  C   UNL d   1      29.105  16.465 -24.762  0.00  0.00     0.149 A 
ATOM     11  O   UNL d   1      29.766  16.092 -24.418  0.00  0.00    -0.301 OA
ATOM     12  C   UNL d   1      31.104  16.180 -23.966  0.00  0.00     0.028 A 
ATOM     13  C   UNL d   1      31.786  16.640 -23.856  0.00  0.00     0.015 A 
ENDBRANCH   1   4
BRANCH   1  14
ATOM     14  N   UNL d   1      33.217  18.247 -23.800  0.00  0.00    -0.158 NA
BRANCH  14  15
ATOM     15  C   UNL d   1      33.225  18.828 -23.193  0.00  0.00     0.094 A 
ATOM     16  C   UNL d   1      33.227  19.630 -23.410  0.00  0.00     0.020 A 
ATOM     17  C   UNL d   1      33.235  20.208 -22.808  0.00  0.00     0.002 A 
ATOM     18  C   UNL d   1      33.236  21.024 -23.010  0.00  0.00     0.000 C 
ATOM     19  C   UNL d   1      33.241  19.981 -22.015  0.00  0.00     0.000 A 
ATOM     20  C   UNL d   1      33.239  19.176 -21.839  0.00  0.00     0.002 A 
ATOM     21  C   UNL d   1      33.232  18.613 -22.418  0.00  0.00     0.020 A 
ENDBRANCH  14  15
ENDBRANCH   1  14
TORSDOF 3
ENDMDL
MODEL 5
REMARK VINA RESULT:      -1.9      1.647      2.567
REMARK  3 active torsions:
REMARK  status: ('A' for Active; 'I' for Inactive)
REMARK    1  A    between atoms: C_2  and  S_1 
REMARK    2  A    between atoms: N_3  and  S_1 
REMARK    3  A    between atoms: C_10  and  N_3 
ROOT
ATOM      1  S   UNL d   1      32.751  18.860 -23.600  0.00  0.00     0.285 S 
ATOM      2  O   UNL d   1      33.117  18.434 -22.974  0.00  0.00    -0.198 OA
ATOM      3  O   UNL d   1      32.381  19.265 -24.218  0.00  0.00    -0.198 OA
ENDROOT
BRANCH   1   4
ATOM      4  C   UNL d   1      32.251  18.207 -23.754  0.00  0.00     0.107 A 
ATOM      5  C   UNL d   1      32.443  17.458 -23.460  0.00  0.00     0.040 A 
ATOM      6  C   UNL d   1      31.945  16.837 -23.620  0.00  0.00     0.123 A 
ATOM      7  O   UNL d   1      32.118  16.086 -23.338  0.00  0.00    -0.301 OA
ATOM      8  C   UNL d   1      31.250  16.961 -24.074  0.00  0.00     0.123 A 
ATOM      9  C   UNL d   1      31.601  15.459 -23.508  0.00  0.00     0.149 A 
ATOM     10  C   UNL d   1      30.949  15.575 -23.934  0.00  0.00     0.149 A 
ATOM     11  O   UNL d   1      30.754  16.329 -24.230  0.00  0.00    -0.301 OA
ATOM     12  C   UNL d   1      31.079  17.701 -24.353  0.00  0.00     0.028 A 
ATOM     13  C   UNL d   1      31.599  18.323 -24.180  0.00  0.00     0.015 A 
ENDBRANCH   1   4
BRANCH   1  14
ATOM     14  N   UNL d   1      33.239  19.519 -23.463  0.00  0.00    -0.158 NA
BRANCH  14  15
ATOM     15  C   UNL d   1      33.168  19.927 -22.733  0.00  0.00     0.094 A 
ATOM     16  C   UNL d   1      33.021  20.745 -22.746  0.00  0.00     0.020 A 
ATOM     17  C   UNL d   1      32.951  21.151 -22.021  0.00  0.00     0.002 A 
ATOM     18  C   UNL d   1      32.803  21.979 -22.016  0.00  0.00     0.000 C 
ATOM     19  C   UNL d   1      33.026  20.744 -21.308  0.00  0.00     0.000 A 
ATOM     20  C   UNL d   1      33.170  19.933 -21.335  0.00  0.00     0.002 A 
ATOM     21  C   UNL d   1      33.239  19.536 -22.034  0.00  0.00     0.020 A 
ENDBRANCH  14  15
ENDBRANCH   1  14
TORSDOF 3
ENDMDL
MODEL 6
REMARK VINA RESULT:      -1.9      2.617      3.797
REMARK  3 active torsions:
REMARK  status: ('A' for Active; 'I' for Inactive)
REMARK    1  A    between atoms: C_2  and  S_1 
REMARK    2  A    between atoms: N_3  and  S_1 
REMARK    3  A    between atoms: C_10  and  N_3 
ROOT
ATOM      1  S   UNL d   1      33.031  19.840 -22.292  0.00  0.00     0.285 S 
ATOM      2  O   UNL d   1      33.241  20.463 -22.818  0.00  0.00    -0.198 OA
ATOM      3  O   UNL d   1      32.820  19.219 -21.789  0.00  0.00    -0.198 OA
ENDROOT
BRANCH   1   4
ATOM      4  C   UNL d   1      32.817  19.361 -22.943  0.00  0.00     0.107 A 
ATOM      5  C   UNL d   1      32.389  18.663 -22.824  0.00  0.00     0.040 A 
ATOM      6  C   UNL d   1      32.191  18.211 -23.468  0.00  0.00     0.123 A 
ATOM      7  O   UNL d   1      31.766  17.516 -23.369  0.00  0.00    -0.301 OA
ATOM      8  C   UNL d   1      32.420  18.453 -24.238  0.00  0.00     0.123 A 
ATOM      9  C   UNL d   1      31.569  17.062 -24.037  0.00  0.00     0.149 A 
ATOM     10  C   UNL d   1      31.784  17.289 -24.759  0.00  0.00     0.149 A 
ATOM     11  O   UNL d   1      32.216  17.991 -24.882  0.00  0.00    -0.301 OA
ATOM     12  C   UNL d   1      32.839  19.138 -24.336  0.00  0.00     0.028 A 
ATOM     13  C   UNL d   1      33.032  19.587 -23.666  0.00  0.00     0.015 A 
ENDBRANCH   1   4
BRANCH   1  14
ATOM     14  N   UNL d   1      33.238  20.301 -21.633  0.00  0.00    -0.158 NA
BRANCH  14  15
ATOM     15  C   UNL d   1      32.756  20.961 -21.435  0.00  0.00     0.094 A 
ATOM     16  C   UNL d   1      32.955  21.706 -21.745  0.00  0.00     0.020 A 
ATOM     17  C   UNL d   1      32.477  22.361 -21.549  0.00  0.00     0.002 A 
ATOM     18  C   UNL d   1      32.663  23.122 -21.854  0.00  0.00     0.000 C 
ATOM     19  C   UNL d   1      31.822  22.264 -21.057  0.00  0.00     0.000 A 
ATOM     20  C   UNL d   1      31.657  21.511 -20.769  0.00  0.00     0.002 A 
ATOM     21  C   UNL d   1      32.116  20.873 -20.956  0.00  0.00     0.020 A 
ENDBRANCH  14  15
ENDBRANCH   1  14
TORSDOF 3
ENDMDL
MODEL 7
REMARK VINA RESULT:      -1.6      5.816      7.295
REMARK  3 active torsions:
REMARK  status: ('A' for Active; 'I' for Inactive)
REMARK    1  A    between atoms: C_2  and  S_1 
REMARK    2  A    between atoms: N_3  and  S_1 
REMARK    3  A    between atoms: C_10  and  N_3 
ROOT
ATOM      1  S   UNL d   1      32.901  23.047 -19.821  0.00  0.00     0.285 S 
ATOM      2  O   UNL d   1      32.665  23.606 -20.405  0.00  0.00    -0.198 OA
ATOM      3  O   UNL d   1      33.130  22.486 -19.259  0.00  0.00    -0.198 OA
ENDROOT
BRANCH   1   4
ATOM      4  C   UNL d   1      32.791  22.426 -20.370  0.00  0.00     0.107 A 
ATOM      5  C   UNL d   1      33.079  21.668 -20.203  0.00  0.00     0.040 A 
ATOM      6  C   UNL d   1      32.963  21.078 -20.748  0.00  0.00     0.123 A 
ATOM      7  O   UNL d   1      33.241  20.320 -20.601  0.00  0.00    -0.301 OA
ATOM      8  C   UNL d   1      32.557  21.240 -21.464  0.00  0.00     0.123 A 
ATOM      9  C   UNL d   1      33.115  19.724 -21.166  0.00  0.00     0.149 A 
ATOM     10  C   UNL d   1      32.735  19.877 -21.838  0.00  0.00     0.149 A 
ATOM     11  O   UNL d   1      32.445  20.639 -22.008  0.00  0.00    -0.301 OA
ATOM     12  C   UNL d   1      32.283  21.987 -21.611  0.00  0.00     0.028 A 
ATOM     13  C   UNL d   1      32.411  22.578 -21.042  0.00  0.00     0.015 A 
ENDBRANCH   1   4
BRANCH   1  14
ATOM     14  N   UNL d   1      33.016  23.651 -19.262  0.00  0.00    -0.158 NA
BRANCH  14  15
ATOM     15  C   UNL d   1      32.652  23.576 -18.508  0.00  0.00     0.094 A 
ATOM     16  C   UNL d   1      33.126  23.378 -17.855  0.00  0.00     0.020 A 
ATOM     17  C   UNL d   1      32.765  23.304 -17.107  0.00  0.00     0.002 A 
ATOM     18  C   UNL d   1      33.230  23.104 -16.435  0.00  0.00     0.000 C 
ATOM     19  C   UNL d   1      31.954  23.426 -17.023  0.00  0.00     0.000 A 
ATOM     20  C   UNL d   1      31.517  23.621 -17.693  0.00  0.00     0.002 A 
ATOM     21  C   UNL d   1      31.861  23.694 -18.420  0.00  0.00     0.020 A 
ENDBRANCH  14  15
ENDBRANCH   1  14
TORSDOF 3
ENDMDL
MODEL 8
REMARK VINA RESULT:      -1.6      1.578      4.376
REMARK  3 active torsions:
REMARK  status: ('A' for Active; 'I' for Inactive)
REMARK    1  A    between atoms: C_2  and  S_1 
REMARK    2  A    between atoms: N_3  and  S_1 
REMARK    3  A    between atoms: C_10  and  N_3 
ROOT
ATOM      1  S   UNL d   1      32.641  17.854 -24.192  0.00  0.00     0.285 S 
ATOM      2  O   UNL d   1      32.388  17.877 -23.390  0.00  0.00    -0.198 OA
ATOM      3  O   UNL d   1      32.892  17.848 -24.979  0.00  0.00    -0.198 OA
ENDROOT
BRANCH   1   4
ATOM      4  C   UNL d   1      32.792  18.676 -24.169  0.00  0.00     0.107 A 
ATOM      5  C   UNL d   1      32.794  19.079 -23.447  0.00  0.00     0.040 A 
ATOM      6  C   UNL d   1      32.942  19.877 -23.446  0.00  0.00     0.123 A 
ATOM      7  O   UNL d   1      32.948  20.295 -22.739  0.00  0.00    -0.301 OA
ATOM      8  C   UNL d   1      33.091  20.279 -24.168  0.00  0.00     0.123 A 
ATOM      9  C   UNL d   1      33.101  21.111 -22.751  0.00  0.00     0.149 A 
ATOM     10  C   UNL d   1      33.241  21.488 -23.428  0.00  0.00     0.149 A 
ATOM     11  O   UNL d   1      33.240  21.083 -24.157  0.00  0.00    -0.301 OA
ATOM     12  C   UNL d   1      33.085  19.868 -24.865  0.00  0.00     0.028 A 
ATOM     13  C   UNL d   1      32.931  19.053 -24.846  0.00  0.00     0.015 A 
ENDBRANCH   1   4
BRANCH   1  14
ATOM     14  N   UNL d   1      32.497  17.036 -24.234  0.00  0.00    -0.158 NA
BRANCH  14  15
ATOM     15  C   UNL d   1      31.704  16.770 -24.314  0.00  0.00     0.094 A 
ATOM     16  C   UNL d   1      31.383  16.290 -23.716  0.00  0.00     0.020 A 
ATOM     17  C   UNL d   1      30.596  16.026 -23.795  0.00  0.00     0.002 A 
ATOM     18  C   UNL d   1      30.254  15.540 -23.200  0.00  0.00     0.000 C 
ATOM     19  C   UNL d   1      30.150  16.241 -24.456  0.00  0.00     0.000 A 
ATOM     20  C   UNL d   1      30.503  16.718 -25.027  0.00  0.00     0.002 A 
ATOM     21  C   UNL d   1      31.265  16.976 -24.955  0.00  0.00     0.020 A 
ENDBRANCH  14  15
ENDBRANCH   1  14
TORSDOF 3
ENDMDL
