MODEL 1
REMARK VINA RESULT:      -2.9      0.000      0.000
REMARK  4 active torsions:
REMARK  status: ('A' for Active; 'I' for Inactive)
REMARK    1  A    between atoms: C_8  and  C_2 
REMARK    2  A    between atoms: O_6  and  C_8 
REMARK    3  A    between atoms: C_7  and  O_6 
REMARK    4  A    between atoms: O_10  and  C_9 
ROOT
ATOM      1  C   UNL d   1      32.976  20.779 -21.706  0.00  0.00     0.161 C 
ENDROOT
BRANCH   1   2
ATOM      2  O   UNL d   1      32.774  21.514 -21.694  0.00  0.00    -0.300 OA
BRANCH   2   3
ATOM      3  C   UNL d   1      32.793  21.958 -20.969  0.00  0.00     0.122 A 
ATOM      4  C   UNL d   1      32.426  22.667 -20.925  0.00  0.00     0.117 A 
ATOM      5  C   UNL d   1      32.451  23.092 -20.213  0.00  0.00     0.026 A 
ATOM      6  C   UNL d   1      32.851  22.779 -19.563  0.00  0.00     0.002 A 
ATOM      7  C   UNL d   1      33.241  22.030 -19.602  0.00  0.00     0.002 A 
ATOM      8  C   UNL d   1      33.200  21.622 -20.335  0.00  0.00     0.027 A 
BRANCH   4   9
ATOM      9  O   UNL d   1      32.028  22.979 -21.572  0.00  0.00    -0.326 OA
ATOM     10  C   UNL d   1      31.582  23.643 -21.500  0.00  0.00     0.181 C 
ENDBRANCH   4   9
ENDBRANCH   2   3
ENDBRANCH   1   2
BRANCH   1  11
ATOM     11  C   UNL d   1      33.067  20.414 -22.416  0.00  0.00     0.188 A 
ATOM     12  N   UNL d   1      33.216  20.344 -23.222  0.00  0.00    -0.224 NA
ATOM     13  C   UNL d   1      33.156  19.567 -23.435  0.00  0.00     0.101 A 
ATOM     14  C   UNL d   1      32.968  19.135 -22.758  0.00  0.00     0.101 A 
ATOM     15  C   UNL d   1      33.241  19.165 -24.132  0.00  0.00     0.021 A 
ATOM     16  C   UNL d   1      32.871  18.317 -22.803  0.00  0.00     0.021 A 
ATOM     17  N   UNL d   1      32.915  19.653 -22.140  0.00  0.00    -0.224 NA
ATOM     18  C   UNL d   1      32.962  17.931 -23.527  0.00  0.00     0.002 A 
ATOM     19  C   UNL d   1      33.151  18.363 -24.204  0.00  0.00     0.002 A 
ENDBRANCH   1  11
TORSDOF 4
ENDMDL
MODEL 2
REMARK VINA RESULT:      -2.8      0.883      1.197
REMARK  4 active torsions:
REMARK  status: ('A' for Active; 'I' for Inactive)
REMARK    1  A    between atoms: C_8  and  C_2 
REMARK    2  A    between atoms: O_6  and  C_8 
REMARK    3  A    between atoms: C_7  and  O_6 
REMARK    4  A    between atoms: O_10  and  C_9 
ROOT
ATOM      1  C   UNL d   1      33.069  19.894 -22.324  0.00  0.00     0.161 C 
ENDROOT
BRANCH   1   2
ATOM      2  O   UNL d   1      33.173  20.648 -22.364  0.00  0.00    -0.300 OA
BRANCH   2   3
ATOM      3  C   UNL d   1      33.150  21.127 -21.662  0.00  0.00     0.122 A 
ATOM      4  C   UNL d   1      33.045  21.917 -21.720  0.00  0.00     0.117 A 
ATOM      5  C   UNL d   1      33.024  22.375 -21.029  0.00  0.00     0.026 A 
ATOM      6  C   UNL d   1      33.112  22.011 -20.294  0.00  0.00     0.002 A 
ATOM      7  C   UNL d   1      33.224  21.176 -20.224  0.00  0.00     0.002 A 
ATOM      8  C   UNL d   1      33.241  20.737 -20.940  0.00  0.00     0.027 A 
BRANCH   4   9
ATOM      9  O   UNL d   1      32.957  22.279 -22.452  0.00  0.00    -0.326 OA
ATOM     10  C   UNL d   1      32.935  23.080 -22.515  0.00  0.00     0.181 C 
ENDBRANCH   4   9
ENDBRANCH   2   3
ENDBRANCH   1   2
BRANCH   1  11
ATOM     11  C   UNL d   1      33.090  19.463 -23.003  0.00  0.00     0.188 A 
ATOM     12  N   UNL d   1      33.213  19.307 -23.801  0.00  0.00    -0.224 NA
ATOM     13  C   UNL d   1      33.026  18.536 -23.951  0.00  0.00     0.101 A 
ATOM     14  C   UNL d   1      32.781  18.194 -23.241  0.00  0.00     0.101 A 
ATOM     15  C   UNL d   1      33.034  18.072 -24.614  0.00  0.00     0.021 A 
ATOM     16  C   UNL d   1      32.553  17.402 -23.221  0.00  0.00     0.021 A 
ATOM     17  N   UNL d   1      32.821  18.761 -22.666  0.00  0.00    -0.224 NA
ATOM     18  C   UNL d   1      32.570  16.950 -23.912  0.00  0.00     0.002 A 
ATOM     19  C   UNL d   1      32.815  17.292 -24.621  0.00  0.00     0.002 A 
ENDBRANCH   1  11
TORSDOF 4
ENDMDL
MODEL 3
REMARK VINA RESULT:      -2.6      1.209      4.577
REMARK  4 active torsions:
REMARK  status: ('A' for Active; 'I' for Inactive)
REMARK    1  A    between atoms: C_8  and  C_2 
REMARK    2  A    between atoms: O_6  and  C_8 
REMARK    3  A    between atoms: C_7  and  O_6 
REMARK    4  A    between atoms: O_10  and  C_9 
ROOT
ATOM      1  C   UNL d   1      32.904  20.375 -22.410  0.00  0.00     0.161 C 
ENDROOT
BRANCH   1   2
ATOM      2  O   UNL d   1      33.111  19.650 -22.525  0.00  0.00    -0.300 OA
BRANCH   2   3
ATOM      3  C   UNL d   1      33.123  19.321 -23.310  0.00  0.00     0.122 A 
ATOM      4  C   UNL d   1      33.038  18.533 -23.414  0.00  0.00     0.117 A 
ATOM      5  C   UNL d   1      33.051  18.224 -24.184  0.00  0.00     0.026 A 
ATOM      6  C   UNL d   1      33.151  18.730 -24.828  0.00  0.00     0.002 A 
ATOM      7  C   UNL d   1      33.241  19.564 -24.725  0.00  0.00     0.002 A 
ATOM      8  C   UNL d   1      33.224  19.850 -23.935  0.00  0.00     0.027 A 
BRANCH   4   9
ATOM      9  O   UNL d   1      32.938  18.030 -22.774  0.00  0.00    -0.326 OA
ATOM     10  C   UNL d   1      33.064  17.239 -22.848  0.00  0.00     0.181 C 
ENDBRANCH   4   9
ENDBRANCH   2   3
ENDBRANCH   1   2
BRANCH   1  11
ATOM     11  C   UNL d   1      33.005  20.695 -21.680  0.00  0.00     0.188 A 
ATOM     12  N   UNL d   1      33.241  20.735 -20.892  0.00  0.00    -0.224 NA
ATOM     13  C   UNL d   1      33.036  21.456 -20.592  0.00  0.00     0.101 A 
ATOM     14  C   UNL d   1      32.664  21.882 -21.193  0.00  0.00     0.101 A 
ATOM     15  C   UNL d   1      33.119  21.811 -19.870  0.00  0.00     0.021 A 
ATOM     16  C   UNL d   1      32.390  22.646 -21.049  0.00  0.00     0.021 A 
ATOM     17  N   UNL d   1      32.647  21.416 -21.853  0.00  0.00    -0.224 NA
ATOM     18  C   UNL d   1      32.488  22.985 -20.302  0.00  0.00     0.002 A 
ATOM     19  C   UNL d   1      32.860  22.559 -19.702  0.00  0.00     0.002 A 
ENDBRANCH   1  11
TORSDOF 4
ENDMDL
MODEL 4
REMARK VINA RESULT:      -2.1      1.733      2.927
REMARK  4 active torsions:
REMARK  status: ('A' for Active; 'I' for Inactive)
REMARK    1  A    between atoms: C_8  and  C_2 
REMARK    2  A    between atoms: O_6  and  C_8 
REMARK    3  A    between atoms: C_7  and  O_6 
REMARK    4  A    between atoms: O_10  and  C_9 
ROOT
ATOM      1  C   UNL d   1      32.704  18.991 -23.385  0.00  0.00     0.161 C 
ENDROOT
BRANCH   1   2
ATOM      2  O   UNL d   1      33.126  19.375 -22.880  0.00  0.00    -0.300 OA
BRANCH   2   3
ATOM      3  C   UNL d   1      33.160  20.224 -22.898  0.00  0.00     0.122 A 
ATOM      4  C   UNL d   1      33.145  20.640 -22.216  0.00  0.00     0.117 A 
ATOM      5  C   UNL d   1      33.179  21.468 -22.245  0.00  0.00     0.026 A 
ATOM      6  C   UNL d   1      33.225  21.850 -22.975  0.00  0.00     0.002 A 
ATOM      7  C   UNL d   1      33.241  21.418 -23.700  0.00  0.00     0.002 A 
ATOM      8  C   UNL d   1      33.206  20.581 -23.641  0.00  0.00     0.027 A 
BRANCH   4   9
ATOM      9  O   UNL d   1      33.099  20.259 -21.490  0.00  0.00    -0.326 OA
ATOM     10  C   UNL d   1      33.060  20.680 -20.806  0.00  0.00     0.181 C 
ENDBRANCH   4   9
ENDBRANCH   2   3
ENDBRANCH   1   2
BRANCH   1  11
ATOM     11  C   UNL d   1      32.668  18.190 -23.331  0.00  0.00     0.188 A 
ATOM     12  N   UNL d   1      32.875  17.434 -23.081  0.00  0.00    -0.224 NA
ATOM     13  C   UNL d   1      32.385  16.896 -23.431  0.00  0.00     0.101 A 
ATOM     14  C   UNL d   1      31.859  17.312 -23.911  0.00  0.00     0.101 A 
ATOM     15  C   UNL d   1      32.320  16.090 -23.402  0.00  0.00     0.021 A 
ATOM     16  C   UNL d   1      31.286  16.906 -24.344  0.00  0.00     0.021 A 
ATOM     17  N   UNL d   1      32.033  18.098 -23.848  0.00  0.00    -0.224 NA
ATOM     18  C   UNL d   1      31.240  16.082 -24.296  0.00  0.00     0.002 A 
ATOM     19  C   UNL d   1      31.767  15.667 -23.816  0.00  0.00     0.002 A 
ENDBRANCH   1  11
TORSDOF 4
ENDMDL
MODEL 5
REMARK VINA RESULT:      -1.6      2.100      4.899
REMARK  4 active torsions:
REMARK  status: ('A' for Active; 'I' for Inactive)
REMARK    1  A    between atoms: C_8  and  C_2 
REMARK    2  A    between atoms: O_6  and  C_8 
REMARK    3  A    between atoms: C_7  and  O_6 
REMARK    4  A    between atoms: O_10  and  C_9 
ROOT
ATOM      1  C   UNL d   1      33.029  22.773 -20.347  0.00  0.00     0.161 C 
ENDROOT
BRANCH   1   2
ATOM      2  O   UNL d   1      32.592  22.331 -20.790  0.00  0.00    -0.300 OA
BRANCH   2   3
ATOM      3  C   UNL d   1      32.794  22.200 -21.606  0.00  0.00     0.122 A 
ATOM      4  C   UNL d   1      32.849  21.455 -21.889  0.00  0.00     0.117 A 
ATOM      5  C   UNL d   1      33.047  21.338 -22.686  0.00  0.00     0.026 A 
ATOM      6  C   UNL d   1      33.182  21.990 -23.174  0.00  0.00     0.002 A 
ATOM      7  C   UNL d   1      33.125  22.780 -22.882  0.00  0.00     0.002 A 
ATOM      8  C   UNL d   1      32.924  22.869 -22.071  0.00  0.00     0.027 A 
BRANCH   4   9
ATOM      9  O   UNL d   1      32.715  20.807 -21.403  0.00  0.00    -0.326 OA
ATOM     10  C   UNL d   1      32.834  20.059 -21.672  0.00  0.00     0.181 C 
ENDBRANCH   4   9
ENDBRANCH   2   3
ENDBRANCH   1   2
BRANCH   1  11
ATOM     11  C   UNL d   1      32.712  23.083 -19.677  0.00  0.00     0.188 A 
ATOM     12  N   UNL d   1      32.225  23.558 -19.215  0.00  0.00    -0.224 NA
ATOM     13  C   UNL d   1      32.377  23.412 -18.435  0.00  0.00     0.101 A 
ATOM     14  C   UNL d   1      32.968  22.838 -18.398  0.00  0.00     0.101 A 
ATOM     15  C   UNL d   1      32.082  23.702 -17.739  0.00  0.00     0.021 A 
ATOM     16  C   UNL d   1      33.241  22.574 -17.665  0.00  0.00     0.021 A 
ATOM     17  N   UNL d   1      33.169  22.639 -19.154  0.00  0.00    -0.224 NA
ATOM     18  C   UNL d   1      32.923  22.885 -16.970  0.00  0.00     0.002 A 
ATOM     19  C   UNL d   1      32.332  23.460 -17.008  0.00  0.00     0.002 A 
ENDBRANCH   1  11
TORSDOF 4
ENDMDL
MODEL 6
REMARK VINA RESULT:      -0.2      1.585      4.622
REMARK  4 active torsions:
REMARK  status: ('A' for Active; 'I' for Inactive)
REMARK    1  A    between atoms: C_8  and  C_2 
REMARK    2  A    between atoms: O_6  and  C_8 
REMARK    3  A    between atoms: C_7  and  O_6 
REMARK    4  A    between atoms: O_10  and  C_9 
ROOT
ATOM      1  C   UNL d   1      32.964  19.048 -22.578  0.00  0.00     0.161 C 
ENDROOT
BRANCH   1   2
ATOM      2  O   UNL d   1      32.624  18.754 -23.194  0.00  0.00    -0.300 OA
BRANCH   2   3
ATOM      3  C   UNL d   1      32.657  17.919 -23.350  0.00  0.00     0.122 A 
ATOM      4  C   UNL d   1      32.223  17.606 -23.944  0.00  0.00     0.117 A 
ATOM      5  C   UNL d   1      32.263  16.790 -24.088  0.00  0.00     0.026 A 
ATOM      6  C   UNL d   1      32.747  16.314 -23.619  0.00  0.00     0.002 A 
ATOM      7  C   UNL d   1      33.209  16.638 -22.990  0.00  0.00     0.002 A 
ATOM      8  C   UNL d   1      33.149  17.467 -22.866  0.00  0.00     0.027 A 
BRANCH   4   9
ATOM      9  O   UNL d   1      31.741  18.079 -24.411  0.00  0.00    -0.326 OA
ATOM     10  C   UNL d   1      31.341  17.770 -25.036  0.00  0.00     0.181 C 
ENDBRANCH   4   9
ENDBRANCH   2   3
ENDBRANCH   1   2
BRANCH   1  11
ATOM     11  C   UNL d   1      33.064  19.845 -22.535  0.00  0.00     0.188 A 
ATOM     12  N   UNL d   1      33.241  20.605 -22.796  0.00  0.00    -0.224 NA
ATOM     13  C   UNL d   1      33.150  21.122 -22.183  0.00  0.00     0.101 A 
ATOM     14  C   UNL d   1      32.912  20.689 -21.522  0.00  0.00     0.101 A 
ATOM     15  C   UNL d   1      33.241  21.922 -22.101  0.00  0.00     0.021 A 
ATOM     16  C   UNL d   1      32.774  21.072 -20.805  0.00  0.00     0.021 A 
ATOM     17  N   UNL d   1      32.861  19.912 -21.739  0.00  0.00    -0.224 NA
ATOM     18  C   UNL d   1      32.875  21.890 -20.748  0.00  0.00     0.002 A 
ATOM     19  C   UNL d   1      33.112  22.323 -21.409  0.00  0.00     0.002 A 
ENDBRANCH   1  11
TORSDOF 4
ENDMDL
