MODEL 1
REMARK VINA RESULT:      11.3      0.000      0.000
REMARK  1 active torsions:
REMARK  status: ('A' for Active; 'I' for Inactive)
REMARK    1  A    between atoms: C_6  and  C_2 
ROOT
ATOM      1  O   UNL d   1      57.748  49.659  49.807  0.00  0.00    -0.260 OA
ATOM      2  C   UNL d   1      58.090  49.686  50.563  0.00  0.00     0.207 A 
ATOM      3  N   UNL d   1      57.473  49.708  51.111  0.00  0.00    -0.120 NA
ATOM      4  C   UNL d   1      56.927  49.666  49.895  0.00  0.00     0.262 A 
ATOM      5  N   UNL d   1      56.758  49.696  50.706  0.00  0.00    -0.109 NA
ATOM      6  S   UNL d   1      56.378  49.645  49.279  0.00  0.00    -0.029 SA
ENDROOT
BRANCH   2   7
ATOM      7  C   UNL d   1      58.892  49.688  50.729  0.00  0.00     0.062 A 
ATOM      8  C   UNL d   1      59.443  49.679  50.115  0.00  0.00     0.102 A 
ATOM      9  N   UNL d   1      60.256  49.682  50.293  0.00  0.00    -0.242 NA
ATOM     10  C   UNL d   1      60.512  49.695  51.075  0.00  0.00     0.099 A 
ATOM     11  C   UNL d   1      59.961  49.704  51.684  0.00  0.00     0.021 A 
ATOM     12  C   UNL d   1      59.149  49.701  51.520  0.00  0.00     0.007 A 
ENDBRANCH   2   7
TORSDOF 1
ENDMDL
MODEL 2
REMARK VINA RESULT:      11.6      1.577      3.073
REMARK  1 active torsions:
REMARK  status: ('A' for Active; 'I' for Inactive)
REMARK    1  A    between atoms: C_6  and  C_2 
ROOT
ATOM      1  O   UNL d   1      59.069  49.668  51.198  0.00  0.00    -0.260 OA
ATOM      2  C   UNL d   1      58.729  49.680  50.440  0.00  0.00     0.207 A 
ATOM      3  N   UNL d   1      59.348  49.700  49.894  0.00  0.00    -0.120 NA
ATOM      4  C   UNL d   1      59.890  49.681  51.112  0.00  0.00     0.262 A 
ATOM      5  N   UNL d   1      60.062  49.701  50.301  0.00  0.00    -0.109 NA
ATOM      6  S   UNL d   1      60.437  49.675  51.731  0.00  0.00    -0.029 SA
ENDROOT
BRANCH   2   7
ATOM      7  C   UNL d   1      57.928  49.672  50.272  0.00  0.00     0.062 A 
ATOM      8  C   UNL d   1      57.375  49.647  50.884  0.00  0.00     0.102 A 
ATOM      9  N   UNL d   1      56.563  49.640  50.704  0.00  0.00    -0.242 NA
ATOM     10  C   UNL d   1      56.310  49.658  49.921  0.00  0.00     0.099 A 
ATOM     11  C   UNL d   1      56.862  49.682  49.314  0.00  0.00     0.021 A 
ATOM     12  C   UNL d   1      57.673  49.690  49.481  0.00  0.00     0.007 A 
ENDBRANCH   2   7
TORSDOF 1
ENDMDL
