MODEL 1
REMARK VINA RESULT:       4.5      0.000      0.000
REMARK  6 active torsions:
REMARK  status: ('A' for Active; 'I' for Inactive)
REMARK    1  A    between atoms: C_3  and  N_1 
REMARK    2  A    between atoms: N_9  and  C_3 
REMARK    3  A    between atoms: C_7  and  C_4 
REMARK    4  A    between atoms: C_8  and  C_5 
REMARK    5  A    between atoms: C_16  and  N_9 
REMARK    6  A    between atoms: O_17  and  C_13 
ROOT
ATOM      1  N   UNL d   1     -41.821-122.093 -51.402  0.00  0.00    -0.201 N 
ATOM      2  N   UNL d   1     -41.400-122.147 -52.112  0.00  0.00    -0.163 NA
ATOM      3  C   UNL d   1     -41.947-122.290 -52.716  0.00  0.00     0.105 A 
ATOM      4  C   UNL d   1     -42.622-122.200 -51.550  0.00  0.00     0.110 A 
ATOM      5  C   UNL d   1     -42.670-122.319 -52.370  0.00  0.00     0.042 A 
ENDROOT
BRANCH   1   6
ATOM      6  C   UNL d   1     -41.491-121.955 -50.659  0.00  0.00     0.222 C 
ATOM      7  S   UNL d   1     -41.294-121.193 -50.898  0.00  0.00    -0.037 SA
BRANCH   6   8
ATOM      8  N   UNL d   1     -41.161-121.824 -49.906  0.00  0.00    -0.217 NA
BRANCH   8   9
ATOM      9  C   UNL d   1     -41.148-122.424 -49.373  0.00  0.00     0.084 A 
ATOM     10  C   UNL d   1     -41.141-123.224 -49.618  0.00  0.00     0.019 A 
ATOM     11  C   UNL d   1     -41.128-123.814 -49.049  0.00  0.00     0.002 A 
ATOM     12  C   UNL d   1     -41.123-123.649 -48.261  0.00  0.00     0.000 A 
ATOM     13  C   UNL d   1     -41.130-122.860 -47.995  0.00  0.00     0.002 A 
ATOM     14  C   UNL d   1     -41.143-122.248 -48.551  0.00  0.00     0.019 A 
ENDBRANCH   8   9
ENDBRANCH   6   8
ENDBRANCH   1   6
BRANCH   4  15
ATOM     15  C   UNL d   1     -43.362-122.185 -50.877  0.00  0.00     0.118 A 
ATOM     16  O   UNL d   1     -43.691-122.863 -50.476  0.00  0.00    -0.304 OA
ATOM     17  C   UNL d   1     -44.287-122.606 -49.971  0.00  0.00     0.123 A 
ATOM     18  C   UNL d   1     -44.347-121.786 -50.040  0.00  0.00     0.029 A 
ATOM     19  C   UNL d   1     -43.804-121.531 -50.574  0.00  0.00     0.028 A 
ENDBRANCH   4  15
BRANCH   3  20
ATOM     20  C   UNL d   1     -41.754-122.388 -53.571  0.00  0.00     0.042 A 
ATOM     21  C   UNL d   1     -41.641-122.251 -54.351  0.00  0.00     0.096 A 
ATOM     22  C   UNL d   1     -41.389-122.848 -54.779  0.00  0.00     0.024 A 
ATOM     23  C   UNL d   1     -41.243-123.591 -54.452  0.00  0.00     0.002 A 
ATOM     24  C   UNL d   1     -41.348-123.737 -53.697  0.00  0.00     0.000 A 
ATOM     25  C   UNL d   1     -41.607-123.131 -53.244  0.00  0.00     0.004 A 
BRANCH  21  26
ATOM     26  O   UNL d   1     -41.788-121.507 -54.678  0.00  0.00    -0.328 OA
ATOM     27  C   UNL d   1     -41.835-121.444 -55.424  0.00  0.00     0.181 C 
ENDBRANCH  21  26
ENDBRANCH   3  20
TORSDOF 6
ENDMDL
MODEL 2
REMARK VINA RESULT:       6.0      1.533      2.122
REMARK  6 active torsions:
REMARK  status: ('A' for Active; 'I' for Inactive)
REMARK    1  A    between atoms: C_3  and  N_1 
REMARK    2  A    between atoms: N_9  and  C_3 
REMARK    3  A    between atoms: C_7  and  C_4 
REMARK    4  A    between atoms: C_8  and  C_5 
REMARK    5  A    between atoms: C_16  and  N_9 
REMARK    6  A    between atoms: O_17  and  C_13 
ROOT
ATOM      1  N   UNL d   1     -41.779-122.841 -52.199  0.00  0.00    -0.201 N 
ATOM      2  N   UNL d   1     -41.966-123.100 -52.961  0.00  0.00    -0.163 NA
ATOM      3  C   UNL d   1     -41.973-122.435 -53.455  0.00  0.00     0.105 A 
ATOM      4  C   UNL d   1     -41.668-122.027 -52.205  0.00  0.00     0.110 A 
ATOM      5  C   UNL d   1     -41.795-121.804 -52.994  0.00  0.00     0.042 A 
ENDROOT
BRANCH   1   6
ATOM      6  C   UNL d   1     -41.712-123.323 -51.533  0.00  0.00     0.222 C 
ATOM      7  S   UNL d   1     -41.125-123.755 -51.914  0.00  0.00    -0.037 SA
BRANCH   6   8
ATOM      8  N   UNL d   1     -41.652-123.804 -50.856  0.00  0.00    -0.217 NA
BRANCH   8   9
ATOM      9  C   UNL d   1     -42.216-123.753 -50.287  0.00  0.00     0.084 A 
ATOM     10  C   UNL d   1     -43.030-123.749 -50.478  0.00  0.00     0.019 A 
ATOM     11  C   UNL d   1     -43.581-123.695 -49.874  0.00  0.00     0.002 A 
ATOM     12  C   UNL d   1     -43.363-123.646 -49.100  0.00  0.00     0.000 A 
ATOM     13  C   UNL d   1     -42.559-123.648 -48.886  0.00  0.00     0.002 A 
ATOM     14  C   UNL d   1     -41.985-123.702 -49.479  0.00  0.00     0.019 A 
ENDBRANCH   8   9
ENDBRANCH   6   8
ENDBRANCH   1   6
BRANCH   4  15
ATOM     15  C   UNL d   1     -41.433-121.449 -51.423  0.00  0.00     0.118 A 
ATOM     16  O   UNL d   1     -41.323-121.711 -50.617  0.00  0.00    -0.304 OA
ATOM     17  C   UNL d   1     -41.136-121.060 -50.153  0.00  0.00     0.123 A 
ATOM     18  C   UNL d   1     -41.122-120.392 -50.638  0.00  0.00     0.029 A 
ATOM     19  C   UNL d   1     -41.297-120.615 -51.389  0.00  0.00     0.028 A 
ENDBRANCH   4  15
BRANCH   3  20
ATOM     20  C   UNL d   1     -42.146-122.440 -54.320  0.00  0.00     0.042 A 
ATOM     21  C   UNL d   1     -42.469-122.596 -55.035  0.00  0.00     0.096 A 
ATOM     22  C   UNL d   1     -42.158-122.233 -55.647  0.00  0.00     0.024 A 
ATOM     23  C   UNL d   1     -41.524-121.710 -55.571  0.00  0.00     0.002 A 
ATOM     24  C   UNL d   1     -41.202-121.551 -54.882  0.00  0.00     0.000 A 
ATOM     25  C   UNL d   1     -41.513-121.917 -54.244  0.00  0.00     0.004 A 
BRANCH  21  26
ATOM     26  O   UNL d   1     -43.103-123.119 -55.111  0.00  0.00    -0.328 OA
ATOM     27  C   UNL d   1     -43.473-123.144 -55.763  0.00  0.00     0.181 C 
ENDBRANCH  21  26
ENDBRANCH   3  20
TORSDOF 6
ENDMDL
