MODEL 1
REMARK VINA RESULT:      -2.1      0.000      0.000
REMARK  4 active torsions:
REMARK  status: ('A' for Active; 'I' for Inactive)
REMARK    1  A    between atoms: S_2  and  N_1 
REMARK    2  A    between atoms: C_10  and  S_2 
REMARK    3  A    between atoms: C_7  and  C_4 
REMARK    4  A    between atoms: C_12  and  C_5 
ROOT
ATOM      1  N   UNL d   1      58.380  -0.287  30.447  0.00  0.00    -0.152 N 
ATOM      2  N   UNL d   1      57.928   0.100  31.001  0.00  0.00    -0.155 NA
ATOM      3  C   UNL d   1      57.394  -0.443  31.317  0.00  0.00     0.110 A 
ATOM      4  C   UNL d   1      58.136  -1.076  30.409  0.00  0.00     0.096 A 
ATOM      5  C   UNL d   1      57.507  -1.174  30.964  0.00  0.00     0.041 A 
ENDROOT
BRANCH   1   6
ATOM      6  S   UNL d   1      58.967   0.040  30.007  0.00  0.00     0.286 S 
ATOM      7  O   UNL d   1      58.216   0.388  29.920  0.00  0.00    -0.198 OA
ATOM      8  O   UNL d   1      58.914   0.682  29.478  0.00  0.00    -0.198 OA
BRANCH   6   9
ATOM      9  C   UNL d   1      59.669   0.253  29.631  0.00  0.00     0.105 A 
ATOM     10  C   UNL d   1      60.377   0.268  30.056  0.00  0.00     0.013 A 
ATOM     11  C   UNL d   1      61.084   0.483  29.680  0.00  0.00     0.001 A 
ATOM     12  C   UNL d   1      61.080   0.682  28.879  0.00  0.00     0.000 A 
ATOM     13  C   UNL d   1      60.368   0.667  28.455  0.00  0.00     0.001 A 
ATOM     14  C   UNL d   1      59.665   0.453  28.830  0.00  0.00     0.013 A 
ENDBRANCH   6   9
ENDBRANCH   1   6
BRANCH   4  15
ATOM     15  C   UNL d   1      58.445  -1.664  29.920  0.00  0.00     0.019 A 
ATOM     16  C   UNL d   1      58.073  -1.837  29.197  0.00  0.00     0.002 A 
ATOM     17  C   UNL d   1      58.372  -2.405  28.726  0.00  0.00     0.007 A 
ATOM     18  C   UNL d   1      59.064  -2.841  28.943  0.00  0.00     0.035 A 
ATOM     19  C   UNL d   1      59.418  -2.646  29.679  0.00  0.00     0.007 A 
ATOM     20 BR   UNL d   1      59.373  -3.430  28.455  0.00  0.00    -0.049 Br
ATOM     21  C   UNL d   1      59.120  -2.078  30.150  0.00  0.00     0.002 A 
ENDBRANCH   4  15
BRANCH   3  22
ATOM     22  C   UNL d   1      56.827  -0.299  31.896  0.00  0.00     0.049 A 
ATOM     23  S   UNL d   1      56.646   0.447  32.223  0.00  0.00    -0.085 SA
ATOM     24  C   UNL d   1      56.065   0.281  32.753  0.00  0.00     0.035 A 
ATOM     25  C   UNL d   1      55.859  -0.445  32.805  0.00  0.00     0.007 A 
ATOM     26  C   UNL d   1      56.326  -0.835  32.273  0.00  0.00     0.009 A 
ENDBRANCH   3  22
TORSDOF 4
ENDMDL
