MODEL 1
REMARK VINA RESULT:      27.0      0.000      0.000
REMARK  4 active torsions:
REMARK  status: ('A' for Active; 'I' for Inactive)
REMARK    1  A    between atoms: C_6  and  N_1 
REMARK    2  A    between atoms: C_10  and  C_4 
REMARK    3  A    between atoms: C_8  and  C_6 
REMARK    4  A    between atoms: C_9  and  C_8 
ROOT
ATOM      1  N   UNL d   1      46.281 -18.058  43.702  0.00  0.00    -0.305 N 
ATOM      2  C   UNL d   1      45.944 -16.795  43.400  0.00  0.00     0.057 A 
ATOM      3  C   UNL d   1      46.083 -17.327  44.029  0.00  0.00     0.067 A 
ATOM      4  C   UNL d   1      46.267 -17.988  42.892  0.00  0.00     0.064 A 
ATOM      5  C   UNL d   1      46.059 -17.208  42.696  0.00  0.00     0.022 A 
ATOM      6  C   UNL d   1      45.733 -16.015  43.559  0.00  0.00     0.197 A 
ATOM      7  O   UNL d   1      45.594 -15.484  42.930  0.00  0.00    -0.286 OA
ATOM      8  C   UNL d   1      46.009 -17.071  44.808  0.00  0.00     0.018 A 
ATOM      9  C   UNL d   1      45.660 -15.760  44.337  0.00  0.00     0.042 A 
ATOM     10  C   UNL d   1      45.796 -16.282  44.955  0.00  0.00     0.005 A 
ENDROOT
BRANCH   4  11
ATOM     11  C   UNL d   1      46.385 -18.410  42.175  0.00  0.00     0.016 A 
ATOM     12  C   UNL d   1      46.360 -18.014  41.457  0.00  0.00     0.001 A 
ATOM     13  C   UNL d   1      46.475 -18.424  40.754  0.00  0.00     0.000 A 
ATOM     14  C   UNL d   1      46.616 -19.240  40.787  0.00  0.00     0.000 A 
ATOM     15  C   UNL d   1      46.643 -19.642  41.501  0.00  0.00     0.000 A 
ATOM     16  C   UNL d   1      46.527 -19.227  42.202  0.00  0.00     0.001 A 
ENDBRANCH   4  11
BRANCH   1  17
ATOM     17  C   UNL d   1      46.468 -18.761  44.106  0.00  0.00     0.086 C 
BRANCH  17  18
ATOM     18  C   UNL d   1      45.899 -19.097  44.610  0.00  0.00     0.089 C 
BRANCH  18  19
ATOM     19  C   UNL d   1      45.922 -19.898  44.805  0.00  0.00     0.213 C 
ATOM     20  O   UNL d   1      45.226 -20.330  44.854  0.00  0.00    -0.644 OA
ATOM     21  O   UNL d   1      46.629 -20.287  44.954  0.00  0.00    -0.644 OA
ENDBRANCH  18  19
ENDBRANCH  17  18
ENDBRANCH   1  17
TORSDOF 4
ENDMDL
