MODEL 1
REMARK VINA RESULT:      -1.2      0.000      0.000
REMARK  5 active torsions:
REMARK  status: ('A' for Active; 'I' for Inactive)
REMARK    1  A    between atoms: C_16  and  N_5 
REMARK    2  A    between atoms: S_12  and  C_6 
REMARK    3  A    between atoms: C_10  and  C_14 
REMARK       I    between atoms: N_11  and  C_10 
REMARK    4  A    between atoms: C_14  and  S_12 
REMARK    5  A    between atoms: C_18  and  C_16 
ROOT
ATOM      1  C   UNL d   1     -42.053-122.556 -50.056  0.00  0.00     0.081 A 
ATOM      2  C   UNL d   1     -42.171-123.243 -50.495  0.00  0.00     0.117 A 
ATOM      3  N   UNL d   1     -41.947-123.279 -51.277  0.00  0.00    -0.215 NA
ATOM      4  C   UNL d   1     -41.708-121.901 -50.408  0.00  0.00     0.268 A 
ATOM      5  N   UNL d   1     -41.481-121.932 -51.195  0.00  0.00    -0.253 N 
ATOM      6  C   UNL d   1     -41.593-122.625 -51.658  0.00  0.00     0.182 A 
ATOM      7  S   UNL d   1     -42.537-123.817 -49.977  0.00  0.00    -0.068 SA
ATOM      8  C   UNL d   1     -42.339-122.706 -49.294  0.00  0.00     0.013 A 
ATOM      9  C   UNL d   1     -42.627-123.479 -49.273  0.00  0.00     0.031 A 
ATOM     10  O   UNL d   1     -41.575-121.193 -49.997  0.00  0.00    -0.267 OA
ATOM     11  C   UNL d   1     -42.371-122.229 -48.615  0.00  0.00     0.001 A 
ATOM     12  C   UNL d   1     -42.946-123.770 -48.569  0.00  0.00     0.006 A 
ATOM     13  C   UNL d   1     -42.692-122.541 -47.931  0.00  0.00     0.000 A 
ATOM     14  C   UNL d   1     -42.973-123.290 -47.904  0.00  0.00     0.001 A 
ENDROOT
BRANCH   6  15
ATOM     15  S   UNL d   1     -41.366-122.656 -52.445  0.00  0.00    -0.044 SA
BRANCH  15  16
ATOM     16  C   UNL d   1     -41.918-122.842 -53.022  0.00  0.00     0.099 C 
BRANCH  16  17
ATOM     17  C   UNL d   1     -41.658-122.995 -53.794  0.00  0.00     0.272 C 
ATOM     18  N   UNL d   1     -41.900-122.561 -54.455  0.00  0.00    -0.267 N 
ATOM     19  C   UNL d   1     -41.619-122.746 -55.199  0.00  0.00     0.110 A 
ATOM     20  C   UNL d   1     -42.430-121.934 -54.366  0.00  0.00     0.110 A 
ATOM     21  C   UNL d   1     -41.846-122.322 -55.895  0.00  0.00     0.142 A 
ATOM     22  O   UNL d   1     -42.376-121.697 -55.795  0.00  0.00    -0.300 OA
ATOM     23  C   UNL d   1     -42.678-121.494 -55.013  0.00  0.00     0.142 A 
ATOM     24  O   UNL d   1     -41.123-123.641 -53.825  0.00  0.00    -0.266 OA
ENDBRANCH  16  17
ENDBRANCH  15  16
ENDBRANCH   6  15
BRANCH   5  25
ATOM     25  C   UNL d   1     -41.123-121.258 -51.565  0.00  0.00     0.085 C 
BRANCH  25  26
ATOM     26  C   UNL d   1     -41.342-120.465 -51.369  0.00  0.00     0.019 C 
ATOM     27  C   UNL d   1     -41.123-119.823 -51.833  0.00  0.00     0.002 C 
ENDBRANCH  25  26
ENDBRANCH   5  25
TORSDOF 5
ENDMDL
MODEL 2
REMARK VINA RESULT:      -1.1      1.319      4.824
REMARK  5 active torsions:
REMARK  status: ('A' for Active; 'I' for Inactive)
REMARK    1  A    between atoms: C_16  and  N_5 
REMARK    2  A    between atoms: S_12  and  C_6 
REMARK    3  A    between atoms: C_10  and  C_14 
REMARK       I    between atoms: N_11  and  C_10 
REMARK    4  A    between atoms: C_14  and  S_12 
REMARK    5  A    between atoms: C_18  and  C_16 
ROOT
ATOM      1  C   UNL d   1     -41.637-122.363 -53.406  0.00  0.00     0.081 A 
ATOM      2  C   UNL d   1     -41.742-123.141 -53.157  0.00  0.00     0.117 A 
ATOM      3  N   UNL d   1     -41.649-123.342 -52.373  0.00  0.00    -0.215 NA
ATOM      4  C   UNL d   1     -41.437-121.783 -52.862  0.00  0.00     0.268 A 
ATOM      5  N   UNL d   1     -41.342-121.980 -52.072  0.00  0.00    -0.253 N 
ATOM      6  C   UNL d   1     -41.445-122.769 -51.799  0.00  0.00     0.182 A 
ATOM      7  S   UNL d   1     -41.944-123.604 -53.847  0.00  0.00    -0.068 SA
ATOM      8  C   UNL d   1     -41.771-122.352 -54.223  0.00  0.00     0.013 A 
ATOM      9  C   UNL d   1     -41.956-123.119 -54.465  0.00  0.00     0.031 A 
ATOM     10  O   UNL d   1     -41.323-120.990 -53.077  0.00  0.00    -0.267 OA
ATOM     11  C   UNL d   1     -41.747-121.733 -54.776  0.00  0.00     0.001 A 
ATOM     12  C   UNL d   1     -42.116-123.261 -55.263  0.00  0.00     0.006 A 
ATOM     13  C   UNL d   1     -41.910-121.900 -55.560  0.00  0.00     0.000 A 
ATOM     14  C   UNL d   1     -42.090-122.642 -55.800  0.00  0.00     0.001 A 
ENDROOT
BRANCH   6  15
ATOM     15  S   UNL d   1     -41.350-122.966 -51.010  0.00  0.00    -0.044 SA
BRANCH  15  16
ATOM     16  C   UNL d   1     -41.980-123.278 -50.588  0.00  0.00     0.099 C 
BRANCH  16  17
ATOM     17  C   UNL d   1     -41.877-123.466 -49.788  0.00  0.00     0.272 C 
ATOM     18  N   UNL d   1     -42.450-123.336 -49.207  0.00  0.00    -0.267 N 
ATOM     19  C   UNL d   1     -42.307-123.536 -48.429  0.00  0.00     0.110 A 
ATOM     20  C   UNL d   1     -43.176-122.999 -49.412  0.00  0.00     0.110 A 
ATOM     21  C   UNL d   1     -42.871-123.416 -47.810  0.00  0.00     0.142 A 
ATOM     22  O   UNL d   1     -43.594-123.079 -48.026  0.00  0.00    -0.300 OA
ATOM     23  C   UNL d   1     -43.756-122.864 -48.845  0.00  0.00     0.142 A 
ATOM     24  O   UNL d   1     -41.123-123.804 -49.638  0.00  0.00    -0.266 OA
ENDBRANCH  16  17
ENDBRANCH  15  16
ENDBRANCH   6  15
BRANCH   5  25
ATOM     25  C   UNL d   1     -41.135-121.386 -51.504  0.00  0.00     0.085 C 
BRANCH  25  26
ATOM     26  C   UNL d   1     -41.191-120.559 -51.673  0.00  0.00     0.019 C 
ATOM     27  C   UNL d   1     -41.148-119.987 -51.084  0.00  0.00     0.002 C 
ENDBRANCH  25  26
ENDBRANCH   5  25
TORSDOF 5
ENDMDL
