MODEL 1
REMARK VINA RESULT:     106.0      0.000      0.000
REMARK  9 active torsions:
REMARK  status: ('A' for Active; 'I' for Inactive)
REMARK    1  A    between atoms: N_2  and  S_1 
REMARK    2  A    between atoms: C_9  and  S_1 
REMARK    3  A    between atoms: C_4  and  N_2 
REMARK    4  A    between atoms: O_19  and  C_6 
REMARK    5  A    between atoms: O_22  and  C_7 
REMARK       I    between atoms: C_12  and  N_13 
REMARK    6  A    between atoms: C_20  and  C_12 
REMARK    7  A    between atoms: N_13  and  C_17 
REMARK    8  A    between atoms: O_18  and  C_20 
REMARK    9  A    between atoms: C_21  and  O_18 
ROOT
ATOM      1  C   UNL d   1     -55.201-101.987 -40.758  0.00  0.00     0.105 A 
ATOM      2  C   UNL d   1     -55.204-101.167 -40.857  0.00  0.00     0.015 A 
ATOM      3  C   UNL d   1     -55.154-102.476 -41.398  0.00  0.00     0.015 A 
ATOM      4  C   UNL d   1     -55.111-101.356 -42.256  0.00  0.00     0.085 A 
ATOM      5  C   UNL d   1     -55.159-100.841 -41.612  0.00  0.00     0.020 A 
ATOM      6  C   UNL d   1     -55.107-102.165 -42.163  0.00  0.00     0.020 A 
ENDROOT
BRANCH   1   7
ATOM      7  S   UNL d   1     -55.248-102.314 -39.989  0.00  0.00     0.287 S 
ATOM      8  O   UNL d   1     -54.711-101.734 -39.719  0.00  0.00    -0.198 OA
ATOM      9  O   UNL d   1     -55.777-102.880 -40.273  0.00  0.00    -0.198 OA
BRANCH   7  10
ATOM     10  N   UNL d   1     -55.289-102.631 -39.228  0.00  0.00    -0.139 NA
BRANCH  10  11
ATOM     11  C   UNL d   1     -55.214-102.156 -38.563  0.00  0.00     0.182 A 
ATOM     12  N   UNL d   1     -55.167-101.356 -38.638  0.00  0.00    -0.185 NA
ATOM     13  C   UNL d   1     -55.091-100.873 -37.966  0.00  0.00     0.274 A 
ATOM     14  N   UNL d   1     -55.063-101.191 -37.234  0.00  0.00    -0.181 NA
ATOM     15  C   UNL d   1     -55.109-102.003 -37.138  0.00  0.00     0.185 A 
ATOM     16  C   UNL d   1     -55.188-102.502 -37.832  0.00  0.00     0.084 A 
BRANCH  13  17
ATOM     17  O   UNL d   1     -55.042-100.037 -38.056  0.00  0.00    -0.297 OA
ATOM     18  C   UNL d   1     -54.866 -99.544 -37.429  0.00  0.00     0.185 C 
ENDBRANCH  13  17
BRANCH  15  19
ATOM     19  O   UNL d   1     -55.078-102.309 -36.359  0.00  0.00    -0.312 OA
ATOM     20  C   UNL d   1     -55.755-102.652 -36.041  0.00  0.00     0.183 C 
ENDBRANCH  15  19
ENDBRANCH  10  11
ENDBRANCH   7  10
ENDBRANCH   1   7
BRANCH   4  21
ATOM     21  N   UNL d   1     -55.064-101.048 -43.027  0.00  0.00    -0.206 NA
ATOM     22  C   UNL d   1     -55.299-100.307 -43.163  0.00  0.00     0.304 C 
ATOM     23  O   UNL d   1     -55.599 -99.810 -42.549  0.00  0.00    -0.263 OA
BRANCH  22  24
ATOM     24  C   UNL d   1     -55.258 -99.978 -43.939  0.00  0.00     0.185 C 
BRANCH  24  25
ATOM     25  O   UNL d   1     -55.728-100.235 -44.561  0.00  0.00    -0.300 OA
BRANCH  25  26
ATOM     26  C   UNL d   1     -55.672 -99.862 -45.271  0.00  0.00     0.100 A 
ATOM     27  C   UNL d   1     -56.267 -99.994 -45.844  0.00  0.00     0.025 A 
ATOM     28  C   UNL d   1     -56.236 -99.617 -46.599  0.00  0.00     0.002 A 
ATOM     29  C   UNL d   1     -55.650 -99.139 -46.769  0.00  0.00     0.000 A 
ATOM     30  C   UNL d   1     -55.029 -98.994 -46.184  0.00  0.00     0.002 A 
ATOM     31  C   UNL d   1     -55.628 -98.759 -47.540  0.00  0.00     0.000 C 
ATOM     32  C   UNL d   1     -55.078 -99.370 -45.459  0.00  0.00     0.025 A 
ENDBRANCH  25  26
ENDBRANCH  24  25
ENDBRANCH  22  24
ENDBRANCH   4  21
TORSDOF 9
ENDMDL
MODEL 2
REMARK VINA RESULT:     106.7      1.369      1.844
REMARK  9 active torsions:
REMARK  status: ('A' for Active; 'I' for Inactive)
REMARK    1  A    between atoms: N_2  and  S_1 
REMARK    2  A    between atoms: C_9  and  S_1 
REMARK    3  A    between atoms: C_4  and  N_2 
REMARK    4  A    between atoms: O_19  and  C_6 
REMARK    5  A    between atoms: O_22  and  C_7 
REMARK       I    between atoms: C_12  and  N_13 
REMARK    6  A    between atoms: C_20  and  C_12 
REMARK    7  A    between atoms: N_13  and  C_17 
REMARK    8  A    between atoms: O_18  and  C_20 
REMARK    9  A    between atoms: C_21  and  O_18 
ROOT
ATOM      1  C   UNL d   1     -55.338-100.811 -41.001  0.00  0.00     0.105 A 
ATOM      2  C   UNL d   1     -54.800-101.000 -41.598  0.00  0.00     0.015 A 
ATOM      3  C   UNL d   1     -55.839-100.184 -41.084  0.00  0.00     0.015 A 
ATOM      4  C   UNL d   1     -55.290 -99.909 -42.354  0.00  0.00     0.085 A 
ATOM      5  C   UNL d   1     -54.770-100.547 -42.285  0.00  0.00     0.020 A 
ATOM      6  C   UNL d   1     -55.822 -99.720 -41.768  0.00  0.00     0.020 A 
ENDROOT
BRANCH   1   7
ATOM      7  S   UNL d   1     -55.365-101.273 -40.304  0.00  0.00     0.287 S 
ATOM      8  O   UNL d   1     -55.996-101.713 -40.630  0.00  0.00    -0.198 OA
ATOM      9  O   UNL d   1     -54.742-100.829 -39.997  0.00  0.00    -0.198 OA
BRANCH   7  10
ATOM     10  N   UNL d   1     -55.398-101.734 -39.619  0.00  0.00    -0.139 NA
BRANCH  10  11
ATOM     11  C   UNL d   1     -55.208-101.420 -38.884  0.00  0.00     0.182 A 
ATOM     12  N   UNL d   1     -55.113-100.627 -38.794  0.00  0.00    -0.185 NA
ATOM     13  C   UNL d   1     -54.920-100.307 -38.051  0.00  0.00     0.274 A 
ATOM     14  N   UNL d   1     -54.827-100.779 -37.414  0.00  0.00    -0.181 NA
ATOM     15  C   UNL d   1     -54.921-101.589 -37.487  0.00  0.00     0.185 A 
ATOM     16  C   UNL d   1     -55.119-101.920 -38.254  0.00  0.00     0.084 A 
BRANCH  13  17
ATOM     17  O   UNL d   1     -54.822 -99.474 -37.967  0.00  0.00    -0.297 OA
ATOM     18  C   UNL d   1     -54.715 -99.123 -37.238  0.00  0.00     0.185 C 
ENDBRANCH  13  17
BRANCH  15  19
ATOM     19  O   UNL d   1     -54.817-102.060 -36.802  0.00  0.00    -0.312 OA
ATOM     20  C   UNL d   1     -54.931-102.874 -36.860  0.00  0.00     0.183 C 
ENDBRANCH  15  19
ENDBRANCH  10  11
ENDBRANCH   7  10
ENDBRANCH   1   7
BRANCH   4  21
ATOM     21  N   UNL d   1     -55.276 -99.439 -43.041  0.00  0.00    -0.206 NA
ATOM     22  C   UNL d   1     -55.552 -99.734 -43.718  0.00  0.00     0.304 C 
ATOM     23  O   UNL d   1     -55.865-100.517 -43.774  0.00  0.00    -0.263 OA
BRANCH  22  24
ATOM     24  C   UNL d   1     -55.546 -99.272 -44.424  0.00  0.00     0.185 C 
BRANCH  24  25
ATOM     25  O   UNL d   1     -56.085 -99.376 -45.033  0.00  0.00    -0.300 OA
BRANCH  25  26
ATOM     26  C   UNL d   1     -56.864 -99.225 -44.894  0.00  0.00     0.100 A 
ATOM     27  C   UNL d   1     -57.174 -99.377 -44.132  0.00  0.00     0.025 A 
ATOM     28  C   UNL d   1     -57.986 -99.229 -43.956  0.00  0.00     0.002 A 
ATOM     29  C   UNL d   1     -58.457 -98.949 -44.504  0.00  0.00     0.000 A 
ATOM     30  C   UNL d   1     -58.147 -98.788 -45.296  0.00  0.00     0.002 A 
ATOM     31  C   UNL d   1     -59.283 -98.802 -44.314  0.00  0.00     0.000 C 
ATOM     32  C   UNL d   1     -57.356 -98.938 -45.446  0.00  0.00     0.025 A 
ENDBRANCH  25  26
ENDBRANCH  24  25
ENDBRANCH  22  24
ENDBRANCH   4  21
TORSDOF 9
ENDMDL
