MODEL 1
REMARK VINA RESULT:      -8.9      0.000      0.000
REMARK  5 active torsions:
REMARK  status: ('A' for Active; 'I' for Inactive)
REMARK    1  A    between atoms: C_6  and  N_1 
REMARK    2  A    between atoms: C_7  and  C_3 
REMARK    3  A    between atoms: C_10  and  C_7 
REMARK    4  A    between atoms: C_16  and  C_8 
REMARK    5  A    between atoms: C_14  and  C_18 
ROOT
ATOM      1  N   UNL d   1      52.367  33.824  53.253  0.00  0.00    -0.252 N 
ATOM      2  C   UNL d   1      52.277  34.465  52.749  0.00  0.00     0.203 A 
ATOM      3  C   UNL d   1      51.112  33.831  52.818  0.00  0.00     0.091 A 
ATOM      4  C   UNL d   1      51.648  33.428  53.298  0.00  0.00     0.272 A 
ATOM      5  S   UNL d   1      51.504  34.472  52.479  0.00  0.00    -0.043 SA
ATOM      6  N   UNL d   1      52.868  35.012  52.548  0.00  0.00    -0.121 N 
ATOM      7  O   UNL d   1      51.487  32.755  53.740  0.00  0.00    -0.266 OA
ENDROOT
BRANCH   3   8
ATOM      8  C   UNL d   1      50.321  33.631  52.695  0.00  0.00     0.036 C 
BRANCH   8   9
ATOM      9  C   UNL d   1      49.774  34.199  52.435  0.00  0.00     0.101 A 
ATOM     10  O   UNL d   1      49.260  34.621  52.924  0.00  0.00    -0.307 OA
ATOM     11  C   UNL d   1      48.809  35.130  52.448  0.00  0.00     0.100 A 
ATOM     12  C   UNL d   1      49.053  35.014  51.662  0.00  0.00     0.027 A 
ATOM     13  C   UNL d   1      49.647  34.439  51.663  0.00  0.00     0.027 A 
BRANCH  11  14
ATOM     14  C   UNL d   1      48.232  35.648  52.705  0.00  0.00     0.023 A 
ATOM     15  C   UNL d   1      47.489  35.651  52.357  0.00  0.00     0.008 A 
ATOM     16  C   UNL d   1      46.909  36.181  52.624  0.00  0.00     0.065 A 
ATOM     17  C   UNL d   1      47.071  36.696  53.226  0.00  0.00     0.006 A 
ATOM     18  C   UNL d   1      47.810  36.706  53.585  0.00  0.00     0.000 A 
ATOM     19  C   UNL d   1      48.389  36.174  53.316  0.00  0.00     0.002 A 
BRANCH  16  20
ATOM     20  C   UNL d   1      46.148  36.176  52.260  0.00  0.00     0.211 C 
ATOM     21  O   UNL d   1      46.043  36.521  51.523  0.00  0.00    -0.644 OA
ATOM     22  O   UNL d   1      45.514  35.829  52.639  0.00  0.00    -0.644 OA
ENDBRANCH  16  20
ENDBRANCH  11  14
ENDBRANCH   8   9
ENDBRANCH   3   8
BRANCH   1  23
ATOM     23  C   UNL d   1      53.066  33.613  53.647  0.00  0.00     0.071 A 
ATOM     24  C   UNL d   1      53.296  34.030  54.327  0.00  0.00     0.044 A 
ATOM     25  C   UNL d   1      53.998  33.824  54.730  0.00  0.00     0.121 A 
ATOM     26  O   UNL d   1      54.353  34.139  55.409  0.00  0.00    -0.299 OA
ATOM     27  C   UNL d   1      54.458  33.207  54.448  0.00  0.00     0.119 A 
ATOM     28  C   UNL d   1      55.042  33.707  55.545  0.00  0.00     0.304 A 
ATOM     29  O   UNL d   1      55.114  33.127  54.951  0.00  0.00    -0.300 OA
ATOM     30  C   UNL d   1      54.238  32.791  53.777  0.00  0.00     0.028 A 
ATOM     31  C   UNL d   1      53.538  32.994  53.373  0.00  0.00     0.020 A 
ENDBRANCH   1  23
TORSDOF 5
ENDMDL
MODEL 2
REMARK VINA RESULT:      -8.8      1.773      6.505
REMARK  5 active torsions:
REMARK  status: ('A' for Active; 'I' for Inactive)
REMARK    1  A    between atoms: C_6  and  N_1 
REMARK    2  A    between atoms: C_7  and  C_3 
REMARK    3  A    between atoms: C_10  and  C_7 
REMARK    4  A    between atoms: C_16  and  C_8 
REMARK    5  A    between atoms: C_14  and  C_18 
ROOT
ATOM      1  N   UNL d   1      48.620  35.119  52.112  0.00  0.00    -0.252 N 
ATOM      2  C   UNL d   1      49.063  34.691  51.570  0.00  0.00     0.203 A 
ATOM      3  C   UNL d   1      49.727  34.706  52.721  0.00  0.00     0.091 A 
ATOM      4  C   UNL d   1      49.027  35.131  52.826  0.00  0.00     0.272 A 
ATOM      5  S   UNL d   1      49.746  34.435  51.942  0.00  0.00    -0.043 SA
ATOM      6  N   UNL d   1      48.854  34.543  50.781  0.00  0.00    -0.121 N 
ATOM      7  O   UNL d   1      48.786  35.497  53.520  0.00  0.00    -0.266 OA
ENDROOT
BRANCH   3   8
ATOM      8  C   UNL d   1      50.308  34.574  53.291  0.00  0.00     0.036 C 
BRANCH   8   9
ATOM      9  C   UNL d   1      51.038  34.237  53.084  0.00  0.00     0.101 A 
ATOM     10  O   UNL d   1      51.363  33.559  53.427  0.00  0.00    -0.307 OA
ATOM     11  C   UNL d   1      52.094  33.411  53.064  0.00  0.00     0.100 A 
ATOM     12  C   UNL d   1      52.213  34.005  52.495  0.00  0.00     0.027 A 
ATOM     13  C   UNL d   1      51.558  34.509  52.515  0.00  0.00     0.027 A 
BRANCH  11  14
ATOM     14  C   UNL d   1      52.602  32.795  53.235  0.00  0.00     0.023 A 
ATOM     15  C   UNL d   1      52.441  32.036  52.970  0.00  0.00     0.008 A 
ATOM     16  C   UNL d   1      52.963  31.415  53.148  0.00  0.00     0.065 A 
ATOM     17  C   UNL d   1      53.632  31.554  53.582  0.00  0.00     0.006 A 
ATOM     18  C   UNL d   1      53.808  32.309  53.855  0.00  0.00     0.000 A 
ATOM     19  C   UNL d   1      53.283  32.928  53.675  0.00  0.00     0.002 A 
BRANCH  16  20
ATOM     20  C   UNL d   1      52.789  30.638  52.872  0.00  0.00     0.211 C 
ATOM     21  O   UNL d   1      52.464  30.083  53.382  0.00  0.00    -0.644 OA
ATOM     22  O   UNL d   1      52.942  30.434  52.096  0.00  0.00    -0.644 OA
ENDBRANCH  16  20
ENDBRANCH  11  14
ENDBRANCH   8   9
ENDBRANCH   3   8
BRANCH   1  23
ATOM     23  C   UNL d   1      47.887  35.476  51.962  0.00  0.00     0.071 A 
ATOM     24  C   UNL d   1      47.217  35.003  51.833  0.00  0.00     0.044 A 
ATOM     25  C   UNL d   1      46.475  35.356  51.681  0.00  0.00     0.121 A 
ATOM     26  O   UNL d   1      45.730  35.025  51.535  0.00  0.00    -0.299 OA
ATOM     27  C   UNL d   1      46.414  36.173  51.661  0.00  0.00     0.119 A 
ATOM     28  C   UNL d   1      45.204  35.649  51.424  0.00  0.00     0.304 A 
ATOM     29  O   UNL d   1      45.622  36.366  51.501  0.00  0.00    -0.300 OA
ATOM     30  C   UNL d   1      47.071  36.647  51.788  0.00  0.00     0.028 A 
ATOM     31  C   UNL d   1      47.812  36.298  51.939  0.00  0.00     0.020 A 
ENDBRANCH   1  23
TORSDOF 5
ENDMDL
MODEL 3
REMARK VINA RESULT:      -8.5      1.607      6.599
REMARK  5 active torsions:
REMARK  status: ('A' for Active; 'I' for Inactive)
REMARK    1  A    between atoms: C_6  and  N_1 
REMARK    2  A    between atoms: C_7  and  C_3 
REMARK    3  A    between atoms: C_10  and  C_7 
REMARK    4  A    between atoms: C_16  and  C_8 
REMARK    5  A    between atoms: C_14  and  C_18 
ROOT
ATOM      1  N   UNL d   1      48.086  35.460  52.384  0.00  0.00    -0.252 N 
ATOM      2  C   UNL d   1      48.456  35.595  53.104  0.00  0.00     0.203 A 
ATOM      3  C   UNL d   1      49.308  34.942  52.322  0.00  0.00     0.091 A 
ATOM      4  C   UNL d   1      48.610  35.056  51.896  0.00  0.00     0.272 A 
ATOM      5  S   UNL d   1      49.209  35.276  53.068  0.00  0.00    -0.043 SA
ATOM      6  N   UNL d   1      48.123  35.986  53.755  0.00  0.00    -0.121 N 
ATOM      7  O   UNL d   1      48.470  34.809  51.126  0.00  0.00    -0.266 OA
ENDROOT
BRANCH   3   8
ATOM      8  C   UNL d   1      49.987  34.560  52.051  0.00  0.00     0.036 C 
BRANCH   8   9
ATOM      9  C   UNL d   1      50.516  34.204  52.584  0.00  0.00     0.101 A 
ATOM     10  O   UNL d   1      51.243  34.520  52.814  0.00  0.00    -0.307 OA
ATOM     11  C   UNL d   1      51.596  33.993  53.349  0.00  0.00     0.100 A 
ATOM     12  C   UNL d   1      51.076  33.351  53.444  0.00  0.00     0.027 A 
ATOM     13  C   UNL d   1      50.414  33.490  52.969  0.00  0.00     0.027 A 
BRANCH  11  14
ATOM     14  C   UNL d   1      52.320  34.089  53.715  0.00  0.00     0.023 A 
ATOM     15  C   UNL d   1      52.796  33.440  53.871  0.00  0.00     0.008 A 
ATOM     16  C   UNL d   1      53.531  33.546  54.243  0.00  0.00     0.065 A 
ATOM     17  C   UNL d   1      53.781  34.286  54.454  0.00  0.00     0.006 A 
ATOM     18  C   UNL d   1      53.315  34.947  54.304  0.00  0.00     0.000 A 
ATOM     19  C   UNL d   1      52.581  34.837  53.931  0.00  0.00     0.002 A 
BRANCH  16  20
ATOM     20  C   UNL d   1      54.014  32.873  54.400  0.00  0.00     0.211 C 
ATOM     21  O   UNL d   1      54.004  32.523  55.142  0.00  0.00    -0.644 OA
ATOM     22  O   UNL d   1      54.494  32.567  53.814  0.00  0.00    -0.644 OA
ENDBRANCH  16  20
ENDBRANCH  11  14
ENDBRANCH   8   9
ENDBRANCH   3   8
BRANCH   1  23
ATOM     23  C   UNL d   1      47.316  35.693  52.185  0.00  0.00     0.071 A 
ATOM     24  C   UNL d   1      46.691  35.151  52.254  0.00  0.00     0.044 A 
ATOM     25  C   UNL d   1      45.912  35.378  52.056  0.00  0.00     0.121 A 
ATOM     26  O   UNL d   1      45.197  34.959  52.072  0.00  0.00    -0.299 OA
ATOM     27  C   UNL d   1      45.769  36.141  51.793  0.00  0.00     0.119 A 
ATOM     28  C   UNL d   1      44.608  35.474  51.814  0.00  0.00     0.304 A 
ATOM     29  O   UNL d   1      44.956  36.210  51.639  0.00  0.00    -0.300 OA
ATOM     30  C   UNL d   1      46.381  36.683  51.722  0.00  0.00     0.028 A 
ATOM     31  C   UNL d   1      47.159  36.459  51.919  0.00  0.00     0.020 A 
ENDBRANCH   1  23
TORSDOF 5
ENDMDL
MODEL 4
REMARK VINA RESULT:      -8.5      2.146      6.359
REMARK  5 active torsions:
REMARK  status: ('A' for Active; 'I' for Inactive)
REMARK    1  A    between atoms: C_6  and  N_1 
REMARK    2  A    between atoms: C_7  and  C_3 
REMARK    3  A    between atoms: C_10  and  C_7 
REMARK    4  A    between atoms: C_16  and  C_8 
REMARK    5  A    between atoms: C_14  and  C_18 
ROOT
ATOM      1  N   UNL d   1      50.952  34.298  52.710  0.00  0.00    -0.252 N 
ATOM      2  C   UNL d   1      51.605  34.353  52.216  0.00  0.00     0.203 A 
ATOM      3  C   UNL d   1      52.015  33.867  53.383  0.00  0.00     0.091 A 
ATOM      4  C   UNL d   1      51.202  33.997  53.434  0.00  0.00     0.272 A 
ATOM      5  S   UNL d   1      52.261  34.088  52.628  0.00  0.00    -0.043 SA
ATOM      6  N   UNL d   1      51.600  34.630  51.434  0.00  0.00    -0.121 N 
ATOM      7  O   UNL d   1      50.732  33.851  54.091  0.00  0.00    -0.266 OA
ENDROOT
BRANCH   3   8
ATOM      8  C   UNL d   1      52.500  33.568  53.979  0.00  0.00     0.036 C 
BRANCH   8   9
ATOM      9  C   UNL d   1      52.944  32.876  53.860  0.00  0.00     0.101 A 
ATOM     10  O   UNL d   1      52.627  32.120  53.763  0.00  0.00    -0.307 OA
ATOM     11  C   UNL d   1      53.255  31.588  53.659  0.00  0.00     0.100 A 
ATOM     12  C   UNL d   1      53.960  32.027  53.694  0.00  0.00     0.027 A 
ATOM     13  C   UNL d   1      53.758  32.819  53.818  0.00  0.00     0.027 A 
BRANCH  11  14
ATOM     14  C   UNL d   1      53.192  30.781  53.545  0.00  0.00     0.023 A 
ATOM     15  C   UNL d   1      53.287  30.263  54.173  0.00  0.00     0.008 A 
ATOM     16  C   UNL d   1      53.222  29.445  54.047  0.00  0.00     0.065 A 
ATOM     17  C   UNL d   1      53.064  29.154  53.308  0.00  0.00     0.006 A 
ATOM     18  C   UNL d   1      52.966  29.661  52.668  0.00  0.00     0.000 A 
ATOM     19  C   UNL d   1      53.032  30.479  52.797  0.00  0.00     0.002 A 
BRANCH  16  20
ATOM     20  C   UNL d   1      53.321  28.918  54.699  0.00  0.00     0.211 C 
ATOM     21  O   UNL d   1      52.981  29.094  55.424  0.00  0.00    -0.644 OA
ATOM     22  O   UNL d   1      53.756  28.233  54.610  0.00  0.00    -0.644 OA
ENDBRANCH  16  20
ENDBRANCH  11  14
ENDBRANCH   8   9
ENDBRANCH   3   8
BRANCH   1  23
ATOM     23  C   UNL d   1      50.176  34.509  52.511  0.00  0.00     0.071 A 
ATOM     24  C   UNL d   1      49.783  35.093  52.951  0.00  0.00     0.044 A 
ATOM     25  C   UNL d   1      49.000  35.312  52.757  0.00  0.00     0.121 A 
ATOM     26  O   UNL d   1      48.486  35.867  53.095  0.00  0.00    -0.299 OA
ATOM     27  C   UNL d   1      48.624  34.946  52.128  0.00  0.00     0.119 A 
ATOM     28  C   UNL d   1      47.783  35.839  52.666  0.00  0.00     0.304 A 
ATOM     29  O   UNL d   1      47.862  35.269  52.064  0.00  0.00    -0.300 OA
ATOM     30  C   UNL d   1      49.005  34.368  51.688  0.00  0.00     0.028 A 
ATOM     31  C   UNL d   1      49.786  34.147  51.880  0.00  0.00     0.020 A 
ENDBRANCH   1  23
TORSDOF 5
ENDMDL
MODEL 5
REMARK VINA RESULT:      -8.1      1.755      2.551
REMARK  5 active torsions:
REMARK  status: ('A' for Active; 'I' for Inactive)
REMARK    1  A    between atoms: C_6  and  N_1 
REMARK    2  A    between atoms: C_7  and  C_3 
REMARK    3  A    between atoms: C_10  and  C_7 
REMARK    4  A    between atoms: C_16  and  C_8 
REMARK    5  A    between atoms: C_14  and  C_18 
ROOT
ATOM      1  N   UNL d   1      52.879  32.604  53.467  0.00  0.00    -0.252 N 
ATOM      2  C   UNL d   1      52.953  33.170  54.057  0.00  0.00     0.203 A 
ATOM      3  C   UNL d   1      52.352  33.738  53.018  0.00  0.00     0.091 A 
ATOM      4  C   UNL d   1      52.507  32.952  52.822  0.00  0.00     0.272 A 
ATOM      5  S   UNL d   1      52.630  33.870  53.783  0.00  0.00    -0.043 SA
ATOM      6  N   UNL d   1      53.298  33.052  54.802  0.00  0.00    -0.121 N 
ATOM      7  O   UNL d   1      52.321  32.588  52.110  0.00  0.00    -0.266 OA
ENDROOT
BRANCH   3   8
ATOM      8  C   UNL d   1      51.984  34.298  52.536  0.00  0.00     0.036 C 
BRANCH   8   9
ATOM      9  C   UNL d   1      51.171  34.451  52.606  0.00  0.00     0.101 A 
ATOM     10  O   UNL d   1      50.643  34.511  51.974  0.00  0.00    -0.307 OA
ATOM     11  C   UNL d   1      49.889  34.668  52.281  0.00  0.00     0.100 A 
ATOM     12  C   UNL d   1      49.961  34.703  53.109  0.00  0.00     0.027 A 
ATOM     13  C   UNL d   1      50.754  34.569  53.299  0.00  0.00     0.027 A 
BRANCH  11  14
ATOM     14  C   UNL d   1      49.202  34.768  51.850  0.00  0.00     0.023 A 
ATOM     15  C   UNL d   1      48.594  35.236  52.139  0.00  0.00     0.008 A 
ATOM     16  C   UNL d   1      47.899  35.333  51.694  0.00  0.00     0.065 A 
ATOM     17  C   UNL d   1      47.818  34.968  50.976  0.00  0.00     0.006 A 
ATOM     18  C   UNL d   1      48.418  34.496  50.673  0.00  0.00     0.000 A 
ATOM     19  C   UNL d   1      49.112  34.401  51.120  0.00  0.00     0.002 A 
BRANCH  16  20
ATOM     20  C   UNL d   1      47.279  35.816  51.998  0.00  0.00     0.211 C 
ATOM     21  O   UNL d   1      46.629  35.470  52.360  0.00  0.00    -0.644 OA
ATOM     22  O   UNL d   1      47.322  36.629  51.934  0.00  0.00    -0.644 OA
ENDBRANCH  16  20
ENDBRANCH  11  14
ENDBRANCH   8   9
ENDBRANCH   3   8
BRANCH   1  23
ATOM     23  C   UNL d   1      53.135  31.818  53.517  0.00  0.00     0.071 A 
ATOM     24  C   UNL d   1      52.577  31.205  53.560  0.00  0.00     0.044 A 
ATOM     25  C   UNL d   1      52.828  30.409  53.611  0.00  0.00     0.121 A 
ATOM     26  O   UNL d   1      52.400  29.701  53.659  0.00  0.00    -0.299 OA
ATOM     27  C   UNL d   1      53.629  30.239  53.617  0.00  0.00     0.119 A 
ATOM     28  C   UNL d   1      52.949  29.088  53.696  0.00  0.00     0.304 A 
ATOM     29  O   UNL d   1      53.715  29.415  53.670  0.00  0.00    -0.300 OA
ATOM     30  C   UNL d   1      54.187  30.839  53.575  0.00  0.00     0.028 A 
ATOM     31  C   UNL d   1      53.940  31.633  53.524  0.00  0.00     0.020 A 
ENDBRANCH   1  23
TORSDOF 5
ENDMDL
