MODEL 1
REMARK VINA RESULT:      -6.8      0.000      0.000
REMARK  4 active torsions:
REMARK  status: ('A' for Active; 'I' for Inactive)
REMARK    1  A    between atoms: N_2  and  S_1 
REMARK    2  A    between atoms: C_4  and  S_1 
REMARK    3  A    between atoms: C_3  and  C_8 
REMARK       I    between atoms: N_5  and  C_3 
REMARK    4  A    between atoms: C_17  and  N_5 
ROOT
ATOM      1  C   UNL d   1     -47.826  12.814  23.002  0.00  0.00     0.104 A 
ATOM      2  C   UNL d   1     -46.250  13.041  22.606  0.00  0.00     0.058 A 
ATOM      3  C   UNL d   1     -47.230  12.620  23.540  0.00  0.00     0.013 A 
ATOM      4  C   UNL d   1     -47.626  13.129  22.250  0.00  0.00     0.013 A 
ATOM      5  C   UNL d   1     -46.445  12.733  23.341  0.00  0.00     0.005 A 
ATOM      6  C   UNL d   1     -46.835  13.240  22.057  0.00  0.00     0.005 A 
ENDROOT
BRANCH   2   7
ATOM      7  C   UNL d   1     -45.448  13.161  22.392  0.00  0.00     0.279 C 
ATOM      8  N   UNL d   1     -45.022  12.570  22.012  0.00  0.00    -0.208 NA
ATOM      9  O   UNL d   1     -45.103  13.899  22.578  0.00  0.00    -0.265 OA
BRANCH   8  10
ATOM     10  C   UNL d   1     -44.224  12.691  21.799  0.00  0.00     0.085 A 
ATOM     11  C   UNL d   1     -43.630  12.216  22.144  0.00  0.00     0.020 A 
ATOM     12  C   UNL d   1     -42.846  12.328  21.942  0.00  0.00     0.013 A 
ATOM     13  C   UNL d   1     -42.639  12.912  21.396  0.00  0.00     0.058 A 
ATOM     14  C   UNL d   1     -43.233  13.388  21.052  0.00  0.00     0.013 A 
ATOM     15 CL   UNL d   1     -41.826  13.022  21.193  0.00  0.00    -0.082 Cl
ATOM     16  C   UNL d   1     -44.024  13.271  21.258  0.00  0.00     0.020 A 
ENDBRANCH   8  10
ENDBRANCH   2   7
BRANCH   1  17
ATOM     17  S   UNL d   1     -48.636  12.706  23.184  0.00  0.00     0.272 S 
ATOM     18  O   UNL d   1     -48.483  11.973  23.559  0.00  0.00    -0.200 OA
ATOM     19  O   UNL d   1     -48.804  13.453  22.804  0.00  0.00    -0.200 OA
BRANCH  17  20
ATOM     20  N   UNL d   1     -49.454  12.628  23.352  0.00  0.00    -0.225 N 
ATOM     21  C   UNL d   1     -49.909  13.288  23.533  0.00  0.00     0.118 A 
ATOM     22  C   UNL d   1     -50.707  13.201  23.695  0.00  0.00     0.142 A 
ATOM     23  O   UNL d   1     -51.064  12.429  23.676  0.00  0.00    -0.300 OA
ATOM     24  C   UNL d   1     -50.614  11.767  23.496  0.00  0.00     0.142 A 
ATOM     25  C   UNL d   1     -49.812  11.857  23.333  0.00  0.00     0.118 A 
ENDBRANCH  17  20
ENDBRANCH   1  17
TORSDOF 4
ENDMDL
MODEL 2
REMARK VINA RESULT:      -4.6      1.771      2.933
REMARK  4 active torsions:
REMARK  status: ('A' for Active; 'I' for Inactive)
REMARK    1  A    between atoms: N_2  and  S_1 
REMARK    2  A    between atoms: C_4  and  S_1 
REMARK    3  A    between atoms: C_3  and  C_8 
REMARK       I    between atoms: N_5  and  C_3 
REMARK    4  A    between atoms: C_17  and  N_5 
ROOT
ATOM      1  C   UNL d   1     -45.232  12.841  22.268  0.00  0.00     0.104 A 
ATOM      2  C   UNL d   1     -43.733  13.068  21.640  0.00  0.00     0.058 A 
ATOM      3  C   UNL d   1     -45.025  13.570  21.940  0.00  0.00     0.013 A 
ATOM      4  C   UNL d   1     -44.675  12.214  22.281  0.00  0.00     0.013 A 
ATOM      5  C   UNL d   1     -44.278  13.683  21.627  0.00  0.00     0.005 A 
ATOM      6  C   UNL d   1     -43.926  12.333  21.965  0.00  0.00     0.005 A 
ENDROOT
BRANCH   2   7
ATOM      7  C   UNL d   1     -42.964  13.172  21.322  0.00  0.00     0.279 C 
ATOM      8  N   UNL d   1     -42.539  13.860  21.471  0.00  0.00    -0.208 NA
ATOM      9  O   UNL d   1     -42.651  12.556  20.853  0.00  0.00    -0.265 OA
BRANCH   8  10
ATOM     10  C   UNL d   1     -41.773  13.962  21.153  0.00  0.00     0.085 A 
ATOM     11  C   UNL d   1     -41.684  14.301  20.395  0.00  0.00     0.020 A 
ATOM     12  C   UNL d   1     -40.938  14.405  20.076  0.00  0.00     0.013 A 
ATOM     13  C   UNL d   1     -40.271  14.174  20.504  0.00  0.00     0.058 A 
ATOM     14  C   UNL d   1     -40.360  13.834  21.262  0.00  0.00     0.013 A 
ATOM     15 CL   UNL d   1     -39.503  14.284  20.168  0.00  0.00    -0.082 Cl
ATOM     16  C   UNL d   1     -41.115  13.731  21.580  0.00  0.00     0.020 A 
ENDBRANCH   8  10
ENDBRANCH   2   7
BRANCH   1  17
ATOM     17  S   UNL d   1     -45.991  12.705  22.594  0.00  0.00     0.272 S 
ATOM     18  O   UNL d   1     -46.363  12.835  21.854  0.00  0.00    -0.200 OA
ATOM     19  O   UNL d   1     -45.623  12.569  23.353  0.00  0.00    -0.200 OA
BRANCH  17  20
ATOM     20  N   UNL d   1     -46.737  12.562  22.950  0.00  0.00    -0.225 N 
ATOM     21  C   UNL d   1     -47.329  13.131  22.924  0.00  0.00     0.118 A 
ATOM     22  C   UNL d   1     -48.053  12.982  23.275  0.00  0.00     0.142 A 
ATOM     23  O   UNL d   1     -48.192  12.240  23.668  0.00  0.00    -0.300 OA
ATOM     24  C   UNL d   1     -47.604  11.669  23.697  0.00  0.00     0.142 A 
ATOM     25  C   UNL d   1     -46.876  11.820  23.343  0.00  0.00     0.118 A 
ENDBRANCH  17  20
ENDBRANCH   1  17
TORSDOF 4
ENDMDL
MODEL 3
REMARK VINA RESULT:      -4.3      1.923      2.369
REMARK  4 active torsions:
REMARK  status: ('A' for Active; 'I' for Inactive)
REMARK    1  A    between atoms: N_2  and  S_1 
REMARK    2  A    between atoms: C_4  and  S_1 
REMARK    3  A    between atoms: C_3  and  C_8 
REMARK       I    between atoms: N_5  and  C_3 
REMARK    4  A    between atoms: C_17  and  N_5 
ROOT
ATOM      1  C   UNL d   1     -48.162  13.939  22.882  0.00  0.00     0.104 A 
ATOM      2  C   UNL d   1     -46.772  13.067  22.912  0.00  0.00     0.058 A 
ATOM      3  C   UNL d   1     -47.434  14.314  22.774  0.00  0.00     0.013 A 
ATOM      4  C   UNL d   1     -48.192  13.109  23.007  0.00  0.00     0.013 A 
ATOM      5  C   UNL d   1     -46.742  13.879  22.790  0.00  0.00     0.005 A 
ATOM      6  C   UNL d   1     -47.493  12.678  23.021  0.00  0.00     0.005 A 
ENDROOT
BRANCH   2   7
ATOM      7  C   UNL d   1     -46.068  12.611  22.930  0.00  0.00     0.279 C 
ATOM      8  N   UNL d   1     -46.060  11.867  23.278  0.00  0.00    -0.208 NA
ATOM      9  O   UNL d   1     -45.383  12.941  22.584  0.00  0.00    -0.265 OA
BRANCH   8  10
ATOM     10  C   UNL d   1     -45.358  11.414  23.295  0.00  0.00     0.085 A 
ATOM     11  C   UNL d   1     -45.358  10.671  23.676  0.00  0.00     0.020 A 
ATOM     12  C   UNL d   1     -44.675  10.221  23.698  0.00  0.00     0.013 A 
ATOM     13  C   UNL d   1     -43.985  10.501  23.342  0.00  0.00     0.058 A 
ATOM     14  C   UNL d   1     -43.986  11.244  22.961  0.00  0.00     0.013 A 
ATOM     15 CL   UNL d   1     -43.283  10.030  23.368  0.00  0.00    -0.082 Cl
ATOM     16  C   UNL d   1     -44.677  11.695  22.941  0.00  0.00     0.020 A 
ENDBRANCH   8  10
ENDBRANCH   2   7
BRANCH   1  17
ATOM     17  S   UNL d   1     -48.883  14.365  22.869  0.00  0.00     0.272 S 
ATOM     18  O   UNL d   1     -48.748  14.625  22.085  0.00  0.00    -0.200 OA
ATOM     19  O   UNL d   1     -49.030  14.105  23.670  0.00  0.00    -0.200 OA
BRANCH  17  20
ATOM     20  N   UNL d   1     -49.610  14.781  22.890  0.00  0.00    -0.225 N 
ATOM     21  C   UNL d   1     -49.711  15.423  23.392  0.00  0.00     0.118 A 
ATOM     22  C   UNL d   1     -50.426  15.822  23.404  0.00  0.00     0.142 A 
ATOM     23  O   UNL d   1     -51.063  15.574  22.897  0.00  0.00    -0.300 OA
ATOM     24  C   UNL d   1     -50.966  14.933  22.393  0.00  0.00     0.142 A 
ATOM     25  C   UNL d   1     -50.247  14.533  22.383  0.00  0.00     0.118 A 
ENDBRANCH  17  20
ENDBRANCH   1  17
TORSDOF 4
ENDMDL
