MODEL 1
REMARK VINA RESULT:      -3.4      0.000      0.000
REMARK  4 active torsions:
REMARK  status: ('A' for Active; 'I' for Inactive)
REMARK    1  A    between atoms: C_3  and  C_1 
REMARK    2  A    between atoms: C_7  and  C_3 
REMARK    3  A    between atoms: N_9  and  C_4 
REMARK    4  A    between atoms: C_8  and  C_7 
ROOT
ATOM      1  C   UNL d   1      33.090  18.829 -23.514  0.00  0.00     0.106 C 
ATOM      2  C   UNL d   1      33.164  19.050 -24.277  0.00  0.00     0.104 C 
ATOM      3  N   UNL d   1      33.241  19.296 -25.060  0.00  0.00    -0.191 NA
ENDROOT
BRANCH   1   4
ATOM      4  C   UNL d   1      33.052  19.378 -22.900  0.00  0.00     0.172 A 
ATOM      5  N   UNL d   1      32.837  20.149 -22.937  0.00  0.00    -0.225 NA
ATOM      6  C   UNL d   1      32.883  20.482 -22.188  0.00  0.00     0.101 A 
ATOM      7  C   UNL d   1      32.729  21.244 -21.896  0.00  0.00     0.021 A 
ATOM      8  C   UNL d   1      33.138  19.879 -21.679  0.00  0.00     0.101 A 
ATOM      9  C   UNL d   1      32.827  21.418 -21.098  0.00  0.00     0.002 A 
ATOM     10  C   UNL d   1      33.088  20.799 -20.585  0.00  0.00     0.002 A 
ATOM     11  C   UNL d   1      33.241  20.038 -20.878  0.00  0.00     0.021 A 
ATOM     12  N   UNL d   1      33.240  19.204 -22.127  0.00  0.00    -0.225 NA
ENDBRANCH   1   4
BRANCH   1  13
ATOM     13  C   UNL d   1      33.048  18.022 -23.322  0.00  0.00     0.038 C 
BRANCH  13  14
ATOM     14  C   UNL d   1      32.420  17.554 -23.600  0.00  0.00     0.103 A 
ATOM     15  O   UNL d   1      31.608  17.689 -23.654  0.00  0.00    -0.290 OA
ATOM     16  C   UNL d   1      31.270  17.020 -23.976  0.00  0.00     0.168 A 
ATOM     17  C   UNL d   1      31.850  16.477 -24.122  0.00  0.00     0.045 A 
ATOM     18  C   UNL d   1      32.571  16.799 -23.892  0.00  0.00     0.028 A 
BRANCH  16  19
ATOM     19  N   UNL d   1      30.476  16.866 -24.146  0.00  0.00    -0.281 N 
ATOM     20  C   UNL d   1      30.060  17.366 -24.634  0.00  0.00     0.109 A 
ATOM     21  C   UNL d   1      29.267  17.212 -24.804  0.00  0.00     0.142 A 
ATOM     22  O   UNL d   1      28.911  16.552 -24.475  0.00  0.00    -0.300 OA
ATOM     23  C   UNL d   1      29.324  16.045 -23.984  0.00  0.00     0.142 A 
ATOM     24  C   UNL d   1      30.116  16.205 -23.819  0.00  0.00     0.109 A 
ENDBRANCH  16  19
ENDBRANCH  13  14
ENDBRANCH   1  13
TORSDOF 4
ENDMDL
MODEL 2
REMARK VINA RESULT:      -3.4      1.213      4.741
REMARK  4 active torsions:
REMARK  status: ('A' for Active; 'I' for Inactive)
REMARK    1  A    between atoms: C_3  and  C_1 
REMARK    2  A    between atoms: C_7  and  C_3 
REMARK    3  A    between atoms: N_9  and  C_4 
REMARK    4  A    between atoms: C_8  and  C_7 
ROOT
ATOM      1  C   UNL d   1      31.966  16.683 -24.204  0.00  0.00     0.106 C 
ATOM      2  C   UNL d   1      32.579  16.255 -23.925  0.00  0.00     0.104 C 
ATOM      3  N   UNL d   1      33.201  15.802 -23.630  0.00  0.00    -0.191 NA
ENDROOT
BRANCH   1   4
ATOM      4  C   UNL d   1      31.183  16.456 -24.083  0.00  0.00     0.172 A 
ATOM      5  N   UNL d   1      30.840  16.200 -23.405  0.00  0.00    -0.225 NA
ATOM      6  C   UNL d   1      30.048  16.037 -23.543  0.00  0.00     0.101 A 
ATOM      7  C   UNL d   1      29.433  15.761 -23.059  0.00  0.00     0.021 A 
ATOM      8  C   UNL d   1      29.910  16.204 -24.344  0.00  0.00     0.101 A 
ATOM      9  C   UNL d   1      28.675  15.648 -23.360  0.00  0.00     0.002 A 
ATOM     10  C   UNL d   1      28.543  15.821 -24.177  0.00  0.00     0.002 A 
ATOM     11  C   UNL d   1      29.158  16.096 -24.661  0.00  0.00     0.021 A 
ATOM     12  N   UNL d   1      30.616  16.462 -24.667  0.00  0.00    -0.225 NA
ENDBRANCH   1   4
BRANCH   1  13
ATOM     13  C   UNL d   1      32.111  17.380 -24.632  0.00  0.00     0.038 C 
BRANCH  13  14
ATOM     14  C   UNL d   1      32.458  18.037 -24.262  0.00  0.00     0.103 A 
ATOM     15  O   UNL d   1      32.380  18.355 -23.505  0.00  0.00    -0.290 OA
ATOM     16  C   UNL d   1      32.863  19.010 -23.463  0.00  0.00     0.168 A 
ATOM     17  C   UNL d   1      33.238  19.105 -24.172  0.00  0.00     0.045 A 
ATOM     18  C   UNL d   1      32.993  18.506 -24.679  0.00  0.00     0.028 A 
BRANCH  16  19
ATOM     19  N   UNL d   1      32.990  19.526 -22.830  0.00  0.00    -0.281 N 
ATOM     20  C   UNL d   1      33.014  20.328 -22.958  0.00  0.00     0.109 A 
ATOM     21  C   UNL d   1      33.141  20.844 -22.325  0.00  0.00     0.142 A 
ATOM     22  O   UNL d   1      33.241  20.534 -21.573  0.00  0.00    -0.300 OA
ATOM     23  C   UNL d   1      33.218  19.728 -21.438  0.00  0.00     0.142 A 
ATOM     24  C   UNL d   1      33.090  19.219 -22.075  0.00  0.00     0.109 A 
ENDBRANCH  16  19
ENDBRANCH  13  14
ENDBRANCH   1  13
TORSDOF 4
ENDMDL
MODEL 3
REMARK VINA RESULT:      -3.2      0.971      1.285
REMARK  4 active torsions:
REMARK  status: ('A' for Active; 'I' for Inactive)
REMARK    1  A    between atoms: C_3  and  C_1 
REMARK    2  A    between atoms: C_7  and  C_3 
REMARK    3  A    between atoms: N_9  and  C_4 
REMARK    4  A    between atoms: C_8  and  C_7 
ROOT
ATOM      1  C   UNL d   1      33.023  19.203 -22.877  0.00  0.00     0.106 C 
ATOM      2  C   UNL d   1      33.130  18.520 -22.478  0.00  0.00     0.104 C 
ATOM      3  N   UNL d   1      33.240  17.824 -22.052  0.00  0.00    -0.191 NA
ENDROOT
BRANCH   1   4
ATOM      4  C   UNL d   1      32.958  19.930 -22.492  0.00  0.00     0.172 A 
ATOM      5  N   UNL d   1      33.207  20.649 -22.744  0.00  0.00    -0.225 NA
ATOM      6  C   UNL d   1      33.026  21.215 -22.179  0.00  0.00     0.101 A 
ATOM      7  C   UNL d   1      33.148  22.035 -22.138  0.00  0.00     0.021 A 
ATOM      8  C   UNL d   1      32.651  20.814 -21.557  0.00  0.00     0.101 A 
ATOM      9  C   UNL d   1      32.900  22.468 -21.483  0.00  0.00     0.002 A 
ATOM     10  C   UNL d   1      32.518  22.052 -20.854  0.00  0.00     0.002 A 
ATOM     11  C   UNL d   1      32.397  21.233 -20.895  0.00  0.00     0.021 A 
ATOM     12  N   UNL d   1      32.614  20.023 -21.760  0.00  0.00    -0.225 NA
ENDBRANCH   1   4
BRANCH   1  13
ATOM     13  C   UNL d   1      32.973  19.193 -23.706  0.00  0.00     0.038 C 
BRANCH  13  14
ATOM     14  C   UNL d   1      32.444  18.682 -24.090  0.00  0.00     0.103 A 
ATOM     15  O   UNL d   1      31.750  18.311 -23.843  0.00  0.00    -0.290 OA
ATOM     16  C   UNL d   1      31.469  17.872 -24.470  0.00  0.00     0.168 A 
ATOM     17  C   UNL d   1      31.971  17.960 -25.097  0.00  0.00     0.045 A 
ATOM     18  C   UNL d   1      32.582  18.463 -24.872  0.00  0.00     0.028 A 
BRANCH  16  19
ATOM     19  N   UNL d   1      30.795  17.397 -24.515  0.00  0.00    -0.281 N 
ATOM     20  C   UNL d   1      30.076  17.728 -24.702  0.00  0.00     0.109 A 
ATOM     21  C   UNL d   1      29.402  17.253 -24.747  0.00  0.00     0.142 A 
ATOM     22  O   UNL d   1      29.470  16.450 -24.602  0.00  0.00    -0.300 OA
ATOM     23  C   UNL d   1      30.190  16.111 -24.414  0.00  0.00     0.142 A 
ATOM     24  C   UNL d   1      30.860  16.591 -24.370  0.00  0.00     0.109 A 
ENDBRANCH  16  19
ENDBRANCH  13  14
ENDBRANCH   1  13
TORSDOF 4
ENDMDL
MODEL 4
REMARK VINA RESULT:      -1.8      1.459      4.782
REMARK  4 active torsions:
REMARK  status: ('A' for Active; 'I' for Inactive)
REMARK    1  A    between atoms: C_3  and  C_1 
REMARK    2  A    between atoms: C_7  and  C_3 
REMARK    3  A    between atoms: N_9  and  C_4 
REMARK    4  A    between atoms: C_8  and  C_7 
ROOT
ATOM      1  C   UNL d   1      32.570  17.777 -23.452  0.00  0.00     0.106 C 
ATOM      2  C   UNL d   1      32.906  17.477 -22.793  0.00  0.00     0.104 C 
ATOM      3  N   UNL d   1      33.240  17.155 -22.112  0.00  0.00    -0.191 NA
ENDROOT
BRANCH   1   4
ATOM      4  C   UNL d   1      31.887  17.453 -23.782  0.00  0.00     0.172 A 
ATOM      5  N   UNL d   1      31.261  17.837 -24.102  0.00  0.00    -0.225 NA
ATOM      6  C   UNL d   1      30.708  17.290 -24.362  0.00  0.00     0.101 A 
ATOM      7  C   UNL d   1      29.967  17.364 -24.731  0.00  0.00     0.021 A 
ATOM      8  C   UNL d   1      31.019  16.541 -24.188  0.00  0.00     0.101 A 
ATOM      9  C   UNL d   1      29.527  16.698 -24.931  0.00  0.00     0.002 A 
ATOM     10  C   UNL d   1      29.851  15.938 -24.750  0.00  0.00     0.002 A 
ATOM     11  C   UNL d   1      30.591  15.866 -24.382  0.00  0.00     0.021 A 
ATOM     12  N   UNL d   1      31.745  16.653 -23.830  0.00  0.00    -0.225 NA
ENDBRANCH   1   4
BRANCH   1  13
ATOM     13  C   UNL d   1      32.911  18.436 -23.824  0.00  0.00     0.038 C 
BRANCH  13  14
ATOM     14  C   UNL d   1      32.983  19.158 -23.421  0.00  0.00     0.103 A 
ATOM     15  O   UNL d   1      32.856  19.371 -22.634  0.00  0.00    -0.290 OA
ATOM     16  C   UNL d   1      33.018  20.167 -22.566  0.00  0.00     0.168 A 
ATOM     17  C   UNL d   1      33.240  20.452 -23.289  0.00  0.00     0.045 A 
ATOM     18  C   UNL d   1      33.222  19.833 -23.829  0.00  0.00     0.028 A 
BRANCH  16  19
ATOM     19  N   UNL d   1      32.979  20.653 -21.899  0.00  0.00    -0.281 N 
ATOM     20  C   UNL d   1      32.688  21.409 -21.963  0.00  0.00     0.109 A 
ATOM     21  C   UNL d   1      32.648  21.895 -21.297  0.00  0.00     0.142 A 
ATOM     22  O   UNL d   1      32.907  21.603 -20.576  0.00  0.00    -0.300 OA
ATOM     23  C   UNL d   1      33.201  20.843 -20.505  0.00  0.00     0.142 A 
ATOM     24  C   UNL d   1      33.237  20.364 -21.176  0.00  0.00     0.109 A 
ENDBRANCH  16  19
ENDBRANCH  13  14
ENDBRANCH   1  13
TORSDOF 4
ENDMDL
