MODEL 1
REMARK VINA RESULT:      24.7      0.000      0.000
REMARK  5 active torsions:
REMARK  status: ('A' for Active; 'I' for Inactive)
REMARK    1  A    between atoms: C_2  and  C_1 
REMARK    2  A    between atoms: C_8  and  C_2 
REMARK    3  A    between atoms: O_18  and  C_7 
REMARK    4  A    between atoms: C_13  and  C_8 
REMARK    5  A    between atoms: O_20  and  C_11 
ROOT
ATOM      1  C   UNL d   1      45.814 -16.638  44.437  0.00  0.00     0.202 C 
ATOM      2  O   UNL d   1      46.632 -16.697  44.525  0.00  0.00    -0.286 OA
ENDROOT
BRANCH   1   3
ATOM      3  C   UNL d   1      45.446 -15.901  44.477  0.00  0.00     0.117 A 
ATOM      4  C   UNL d   1      44.661 -15.846  44.732  0.00  0.00     0.205 A 
ATOM      5  C   UNL d   1      44.292 -15.112  44.772  0.00  0.00     0.084 A 
ATOM      6  O   UNL d   1      44.243 -16.524  44.946  0.00  0.00    -0.286 OA
ATOM      7  C   UNL d   1      44.704 -14.430  44.559  0.00  0.00     0.202 A 
ATOM      8  C   UNL d   1      45.485 -14.481  44.305  0.00  0.00     0.084 A 
ATOM      9  O   UNL d   1      44.327 -13.690  44.601  0.00  0.00    -0.286 OA
ATOM     10  C   UNL d   1      45.858 -15.219  44.264  0.00  0.00     0.205 A 
ATOM     11  O   UNL d   1      46.639 -15.270  44.010  0.00  0.00    -0.286 OA
ENDBRANCH   1   3
BRANCH   1  12
ATOM     12  C   UNL d   1      45.368 -17.314  44.311  0.00  0.00     0.042 C 
BRANCH  12  13
ATOM     13  C   UNL d   1      45.643 -17.905  43.809  0.00  0.00     0.005 A 
ATOM     14  C   UNL d   1      45.837 -18.646  44.114  0.00  0.00     0.026 A 
ATOM     15  C   UNL d   1      46.112 -19.237  43.612  0.00  0.00     0.116 A 
ATOM     16  C   UNL d   1      46.193 -19.089  42.804  0.00  0.00     0.116 A 
ATOM     17  C   UNL d   1      45.998 -18.345  42.500  0.00  0.00     0.026 A 
ATOM     18  C   UNL d   1      45.722 -17.756  43.010  0.00  0.00     0.002 A 
BRANCH  15  19
ATOM     19  O   UNL d   1      46.308 -19.984  43.917  0.00  0.00    -0.326 OA
ATOM     20  C   UNL d   1      46.080 -20.192  44.680  0.00  0.00     0.181 C 
ENDBRANCH  15  19
BRANCH  16  21
ATOM     21  O   UNL d   1      46.469 -19.679  42.290  0.00  0.00    -0.326 OA
ATOM     22  C   UNL d   1      46.586 -19.522  41.498  0.00  0.00     0.181 C 
ENDBRANCH  16  21
ENDBRANCH  12  13
ENDBRANCH   1  12
TORSDOF 5
ENDMDL
