MODEL 1
REMARK VINA RESULT:      97.7      0.000      0.000
REMARK  5 active torsions:
REMARK  status: ('A' for Active; 'I' for Inactive)
REMARK    1  A    between atoms: N_7  and  C_1 
REMARK    2  A    between atoms: C_13  and  C_2 
REMARK    3  A    between atoms: N_4  and  C_9 
REMARK       I    between atoms: C_10  and  N_7 
REMARK       I    between atoms: C_15  and  N_8 
REMARK    4  A    between atoms: C_18  and  C_10 
REMARK    5  A    between atoms: O_27  and  C_13 
ROOT
ATOM      1  C   UNL d   1     -55.386-101.373 -40.516  0.00  0.00     0.119 A 
ATOM      2  C   UNL d   1     -55.733-102.093 -40.324  0.00  0.00     0.088 A 
ATOM      3  C   UNL d   1     -55.236-101.568 -39.200  0.00  0.00     0.049 A 
ATOM      4  C   UNL d   1     -55.639-102.213 -39.508  0.00  0.00     0.016 A 
ATOM      5  S   UNL d   1     -55.076-101.044 -39.819  0.00  0.00    -0.066 SA
ATOM      6  N   UNL d   1     -55.293-102.148 -37.894  0.00  0.00    -0.272 N 
ATOM      7  C   UNL d   1     -55.063-101.540 -38.382  0.00  0.00     0.089 A 
ATOM      8  C   UNL d   1     -55.126-102.129 -37.086  0.00  0.00     0.265 C 
ATOM      9  C   UNL d   1     -55.876-102.836 -39.010  0.00  0.00     0.020 A 
ATOM     10  C   UNL d   1     -55.703-102.802 -38.211  0.00  0.00     0.083 A 
ATOM     11  O   UNL d   1     -54.720-101.482 -36.773  0.00  0.00    -0.267 OA
ATOM     12  C   UNL d   1     -55.356-102.740 -36.591  0.00  0.00     0.066 C 
ENDROOT
BRANCH   1  13
ATOM     13  N   UNL d   1     -55.349-101.030 -41.270  0.00  0.00    -0.201 NA
ATOM     14  C   UNL d   1     -55.015-100.278 -41.361  0.00  0.00     0.280 C 
ATOM     15  O   UNL d   1     -54.719 -99.865 -40.710  0.00  0.00    -0.265 OA
BRANCH  14  16
ATOM     16  C   UNL d   1     -54.979 -99.937 -42.111  0.00  0.00     0.059 A 
ATOM     17  C   UNL d   1     -55.151-100.392 -42.770  0.00  0.00     0.022 A 
ATOM     18  C   UNL d   1     -55.114-100.052 -43.521  0.00  0.00     0.070 A 
ATOM     19  C   UNL d   1     -54.905 -99.255 -43.612  0.00  0.00     0.018 A 
ATOM     20  C   UNL d   1     -54.732 -98.800 -42.934  0.00  0.00     0.002 A 
ATOM     21  C   UNL d   1     -54.769 -99.141 -42.184  0.00  0.00     0.005 A 
BRANCH  18  22
ATOM     22  N   UNL d   1     -55.287-100.502 -44.197  0.00  0.00    -0.242 N 
ATOM     23  C   UNL d   1     -55.126-101.296 -44.335  0.00  0.00     0.267 A 
ATOM     24  C   UNL d   1     -55.404-101.489 -45.087  0.00  0.00     0.066 A 
ATOM     25  O   UNL d   1     -54.758-101.820 -43.830  0.00  0.00    -0.267 OA
ATOM     26  C   UNL d   1     -55.734-100.813 -45.410  0.00  0.00     0.066 A 
ATOM     27  C   UNL d   1     -55.668-100.177 -44.856  0.00  0.00     0.267 A 
ATOM     28  O   UNL d   1     -55.923 -99.408 -44.948  0.00  0.00    -0.267 OA
ENDBRANCH  18  22
ENDBRANCH  14  16
ENDBRANCH   1  13
BRANCH   2  29
ATOM     29  C   UNL d   1     -56.106-102.599 -40.851  0.00  0.00     0.298 C 
ATOM     30  O   UNL d   1     -55.709-102.826 -41.541  0.00  0.00    -0.259 OA
BRANCH  29  31
ATOM     31  O   UNL d   1     -56.872-102.879 -40.691  0.00  0.00    -0.296 OA
ATOM     32  C   UNL d   1     -57.201-102.787 -39.936  0.00  0.00     0.185 C 
ENDBRANCH  29  31
ENDBRANCH   2  29
TORSDOF 5
ENDMDL
