MODEL 1
REMARK VINA RESULT:      -2.4      0.000      0.000
REMARK  6 active torsions:
REMARK  status: ('A' for Active; 'I' for Inactive)
REMARK    1  A    between atoms: C_15  and  C_2 
REMARK    2  A    between atoms: C_19  and  C_3 
REMARK    3  A    between atoms: C_4  and  C_16 
REMARK       I    between atoms: N_7  and  C_4 
REMARK    4  A    between atoms: C_14  and  N_7 
REMARK    5  A    between atoms: C_8  and  C_9 
REMARK    6  A    between atoms: C_16  and  C_15 
ROOT
ATOM      1  C   UNL d   1      32.555  18.902 -24.657  0.00  0.00     0.279 C 
ATOM      2  N   UNL d   1      32.101  18.356 -25.072  0.00  0.00    -0.208 NA
ATOM      3  O   UNL d   1      32.962  19.497 -25.063  0.00  0.00    -0.265 OA
ENDROOT
BRANCH   1   4
ATOM      4  C   UNL d   1      32.607  18.857 -23.833  0.00  0.00     0.065 C 
BRANCH   4   5
ATOM      5  C   UNL d   1      33.233  19.229 -23.435  0.00  0.00     0.030 C 
BRANCH   5   6
ATOM      6  C   UNL d   1      33.117  19.550 -22.684  0.00  0.00     0.100 A 
ATOM      7  O   UNL d   1      32.884  20.322 -22.525  0.00  0.00    -0.307 OA
ATOM      8  C   UNL d   1      32.836  20.402 -21.707  0.00  0.00     0.100 A 
ATOM      9  C   UNL d   1      33.044  19.668 -21.362  0.00  0.00     0.027 A 
ATOM     10  C   UNL d   1      33.215  19.149 -21.975  0.00  0.00     0.027 A 
BRANCH   8  11
ATOM     11  C   UNL d   1      32.624  21.079 -21.295  0.00  0.00     0.025 C 
ATOM     12  C   UNL d   1      31.967  21.082 -20.797  0.00  0.00     0.002 C 
ENDBRANCH   8  11
ENDBRANCH   5   6
ENDBRANCH   4   5
ENDBRANCH   1   4
BRANCH   2  13
ATOM     13  C   UNL d   1      31.694  17.759 -24.657  0.00  0.00     0.085 A 
ATOM     14  C   UNL d   1      32.082  17.057 -24.470  0.00  0.00     0.019 A 
ATOM     15  C   UNL d   1      31.674  16.466 -24.057  0.00  0.00     0.005 A 
ATOM     16  C   UNL d   1      30.887  16.577 -23.833  0.00  0.00     0.039 A 
ATOM     17  C   UNL d   1      30.507  17.297 -24.031  0.00  0.00     0.005 A 
ATOM     18  C   UNL d   1      30.911  17.881 -24.439  0.00  0.00     0.019 A 
BRANCH  16  19
ATOM     19  C   UNL d   1      30.479  15.991 -23.422  0.00  0.00     0.196 C 
ATOM     20  O   UNL d   1      30.541  15.940 -22.600  0.00  0.00    -0.287 OA
ATOM     21  C   UNL d   1      30.007  15.453 -23.834  0.00  0.00     0.045 C 
ENDBRANCH  16  19
ENDBRANCH   2  13
TORSDOF 6
ENDMDL
MODEL 2
REMARK VINA RESULT:      -2.1      1.615      4.325
REMARK  6 active torsions:
REMARK  status: ('A' for Active; 'I' for Inactive)
REMARK    1  A    between atoms: C_15  and  C_2 
REMARK    2  A    between atoms: C_19  and  C_3 
REMARK    3  A    between atoms: C_4  and  C_16 
REMARK       I    between atoms: N_7  and  C_4 
REMARK    4  A    between atoms: C_14  and  N_7 
REMARK    5  A    between atoms: C_8  and  C_9 
REMARK    6  A    between atoms: C_16  and  C_15 
ROOT
ATOM      1  C   UNL d   1      32.633  16.223 -23.231  0.00  0.00     0.279 C 
ATOM      2  N   UNL d   1      33.236  16.754 -23.051  0.00  0.00    -0.208 NA
ATOM      3  O   UNL d   1      32.656  15.453 -22.929  0.00  0.00    -0.265 OA
ENDROOT
BRANCH   1   4
ATOM      4  C   UNL d   1      32.004  16.457 -23.714  0.00  0.00     0.065 C 
BRANCH   4   5
ATOM      5  C   UNL d   1      31.327  15.982 -23.772  0.00  0.00     0.030 C 
BRANCH   5   6
ATOM      6  C   UNL d   1      30.636  16.283 -24.110  0.00  0.00     0.100 A 
ATOM      7  O   UNL d   1      29.988  16.571 -23.695  0.00  0.00    -0.307 OA
ATOM      8  C   UNL d   1      29.427  16.811 -24.247  0.00  0.00     0.100 A 
ATOM      9  C   UNL d   1      29.739  16.668 -25.012  0.00  0.00     0.027 A 
ATOM     10  C   UNL d   1      30.486  16.341 -24.914  0.00  0.00     0.027 A 
BRANCH   8  11
ATOM     11  C   UNL d   1      28.691  17.136 -24.087  0.00  0.00     0.025 C 
ATOM     12  C   UNL d   1      28.158  16.748 -23.592  0.00  0.00     0.002 C 
ENDBRANCH   8  11
ENDBRANCH   5   6
ENDBRANCH   4   5
ENDBRANCH   1   4
BRANCH   2  13
ATOM     13  C   UNL d   1      33.207  17.528 -23.359  0.00  0.00     0.085 A 
ATOM     14  C   UNL d   1      33.241  17.643 -24.173  0.00  0.00     0.019 A 
ATOM     15  C   UNL d   1      33.211  18.414 -24.475  0.00  0.00     0.005 A 
ATOM     16  C   UNL d   1      33.149  19.062 -23.966  0.00  0.00     0.039 A 
ATOM     17  C   UNL d   1      33.115  18.927 -23.140  0.00  0.00     0.005 A 
ATOM     18  C   UNL d   1      33.144  18.165 -22.843  0.00  0.00     0.019 A 
BRANCH  16  19
ATOM     19  C   UNL d   1      33.119  19.829 -24.264  0.00  0.00     0.196 C 
ATOM     20  O   UNL d   1      33.226  20.475 -23.760  0.00  0.00    -0.287 OA
ATOM     21  C   UNL d   1      32.982  19.954 -25.070  0.00  0.00     0.045 C 
ENDBRANCH  16  19
ENDBRANCH   2  13
TORSDOF 6
ENDMDL
MODEL 3
REMARK VINA RESULT:       0.0      2.659      5.528
REMARK  6 active torsions:
REMARK  status: ('A' for Active; 'I' for Inactive)
REMARK    1  A    between atoms: C_15  and  C_2 
REMARK    2  A    between atoms: C_19  and  C_3 
REMARK    3  A    between atoms: C_4  and  C_16 
REMARK       I    between atoms: N_7  and  C_4 
REMARK    4  A    between atoms: C_14  and  N_7 
REMARK    5  A    between atoms: C_8  and  C_9 
REMARK    6  A    between atoms: C_16  and  C_15 
ROOT
ATOM      1  C   UNL d   1      33.021  22.894 -22.958  0.00  0.00     0.279 C 
ATOM      2  N   UNL d   1      32.857  23.538 -22.473  0.00  0.00    -0.208 NA
ATOM      3  O   UNL d   1      33.187  23.010 -23.761  0.00  0.00    -0.265 OA
ENDROOT
BRANCH   1   4
ATOM      4  C   UNL d   1      33.020  22.128 -22.646  0.00  0.00     0.065 C 
BRANCH   4   5
ATOM      5  C   UNL d   1      33.236  21.485 -23.122  0.00  0.00     0.030 C 
BRANCH   5   6
ATOM      6  C   UNL d   1      33.205  20.716 -22.823  0.00  0.00     0.100 A 
ATOM      7  O   UNL d   1      33.143  20.031 -23.273  0.00  0.00    -0.307 OA
ATOM      8  C   UNL d   1      33.131  19.394 -22.753  0.00  0.00     0.100 A 
ATOM      9  C   UNL d   1      33.186  19.695 -21.972  0.00  0.00     0.027 A 
ATOM     10  C   UNL d   1      33.231  20.513 -22.029  0.00  0.00     0.027 A 
BRANCH   8  11
ATOM     11  C   UNL d   1      33.074  18.600 -22.953  0.00  0.00     0.025 C 
ATOM     12  C   UNL d   1      33.152  18.013 -22.380  0.00  0.00     0.002 C 
ENDBRANCH   8  11
ENDBRANCH   5   6
ENDBRANCH   4   5
ENDBRANCH   1   4
BRANCH   2  13
ATOM     13  C   UNL d   1      32.691  23.413 -21.666  0.00  0.00     0.085 A 
ATOM     14  C   UNL d   1      33.237  23.649 -21.097  0.00  0.00     0.019 A 
ATOM     15  C   UNL d   1      33.068  23.523 -20.296  0.00  0.00     0.005 A 
ATOM     16  C   UNL d   1      32.360  23.164 -20.068  0.00  0.00     0.039 A 
ATOM     17  C   UNL d   1      31.814  22.930 -20.659  0.00  0.00     0.005 A 
ATOM     18  C   UNL d   1      31.983  23.056 -21.451  0.00  0.00     0.019 A 
BRANCH  16  19
ATOM     19  C   UNL d   1      32.189  23.038 -19.272  0.00  0.00     0.196 C 
ATOM     20  O   UNL d   1      32.391  22.322 -18.912  0.00  0.00    -0.287 OA
ATOM     21  C   UNL d   1      31.814  23.629 -18.832  0.00  0.00     0.045 C 
ENDBRANCH  16  19
ENDBRANCH   2  13
TORSDOF 6
ENDMDL
