MODEL 1
REMARK VINA RESULT:      57.5      0.000      0.000
REMARK  9 active torsions:
REMARK  status: ('A' for Active; 'I' for Inactive)
REMARK    1  A    between atoms: C_2  and  N_1 
REMARK    2  A    between atoms: C_4  and  C_2 
REMARK    3  A    between atoms: C_6  and  C_2 
REMARK    4  A    between atoms: C_8  and  N_3 
REMARK       I    between atoms: C_5  and  N_7 
REMARK    5  A    between atoms: O_17  and  C_5 
REMARK    6  A    between atoms: N_7  and  C_6 
REMARK    7  A    between atoms: C_22  and  O_17 
REMARK    8  A    between atoms: O_26  and  C_21 
REMARK    9  A    between atoms: C_25  and  C_22 
ROOT
ATOM      1  C   UNL d   1      13.461  13.547  -4.538  0.00  0.00     0.107 C 
ENDROOT
BRANCH   1   2
ATOM      2  N   UNL d   1      13.503  14.336  -4.802  0.00  0.00    -0.298 N 
ATOM      3  C   UNL d   1      12.886  14.851  -4.654  0.00  0.00     0.100 A 
ATOM      4  C   UNL d   1      12.928  15.640  -4.918  0.00  0.00     0.100 A 
ATOM      5  N   UNL d   1      13.594  15.897  -5.330  0.00  0.00    -0.301 N 
ATOM      6  C   UNL d   1      14.215  15.364  -5.475  0.00  0.00     0.100 A 
ATOM      7  C   UNL d   1      14.169  14.593  -5.214  0.00  0.00     0.100 A 
BRANCH   5   8
ATOM      8  C   UNL d   1      13.644  16.660  -5.589  0.00  0.00     0.064 A 
ATOM      9  C   UNL d   1      13.090  16.955  -6.125  0.00  0.00     0.020 A 
ATOM     10  C   UNL d   1      13.144  17.736  -6.388  0.00  0.00     0.026 A 
ATOM     11  C   UNL d   1      13.754  18.222  -6.115  0.00  0.00     0.094 A 
ATOM     12  C   UNL d   1      14.307  17.927  -5.579  0.00  0.00     0.026 A 
ATOM     13  C   UNL d   1      14.250  17.148  -5.319  0.00  0.00     0.020 A 
BRANCH  11  14
ATOM     14  O   UNL d   1      13.806  19.014  -6.383  0.00  0.00    -0.328 OA
ATOM     15  C   UNL d   1      13.201  19.538  -6.196  0.00  0.00     0.181 C 
ENDBRANCH  11  14
ENDBRANCH   5   8
ENDBRANCH   1   2
BRANCH   1  16
ATOM     16  C   UNL d   1      13.614  12.926  -5.082  0.00  0.00     0.118 A 
ATOM     17  O   UNL d   1      14.309  12.674  -5.457  0.00  0.00    -0.304 OA
ATOM     18  C   UNL d   1      14.106  12.027  -5.937  0.00  0.00     0.123 A 
ATOM     19  C   UNL d   1      13.307  11.884  -5.860  0.00  0.00     0.029 A 
ATOM     20  C   UNL d   1      12.999  12.442  -5.330  0.00  0.00     0.028 A 
ENDBRANCH   1  16
BRANCH   1  21
ATOM     21  C   UNL d   1      13.273  13.365  -3.759  0.00  0.00     0.124 C 
BRANCH  21  22
ATOM     22  N   UNL d   1      13.685  12.748  -3.367  0.00  0.00    -0.183 NA
ATOM     23  C   UNL d   1      13.434  12.483  -2.639  0.00  0.00     0.392 C 
ATOM     24  O   UNL d   1      12.769  12.823  -2.283  0.00  0.00    -0.236 OA
BRANCH  23  25
ATOM     25  O   UNL d   1      13.844  11.877  -2.261  0.00  0.00    -0.256 OA
BRANCH  25  26
ATOM     26  C   UNL d   1      13.803  11.799  -1.440  0.00  0.00     0.128 C 
BRANCH  26  27
ATOM     27  C   UNL d   1      14.394  12.124  -0.965  0.00  0.00     0.025 A 
ATOM     28  C   UNL d   1      15.144  11.780  -0.947  0.00  0.00     0.002 A 
ATOM     29  C   UNL d   1      15.735  12.105  -0.472  0.00  0.00     0.000 A 
ATOM     30  C   UNL d   1      15.576  12.774  -0.014  0.00  0.00     0.000 A 
ATOM     31  C   UNL d   1      14.828  13.114  -0.034  0.00  0.00     0.000 A 
ATOM     32  C   UNL d   1      14.234  12.792  -0.507  0.00  0.00     0.002 A 
ENDBRANCH  26  27
ENDBRANCH  25  26
ENDBRANCH  23  25
ENDBRANCH  21  22
ENDBRANCH   1  21
TORSDOF 9
ENDMDL
