MODEL 1
REMARK VINA RESULT:       8.6      0.000      0.000
REMARK  1 active torsions:
REMARK  status: ('A' for Active; 'I' for Inactive)
REMARK    1  A    between atoms: C_7  and  N_1 
ROOT
ATOM      1  N   UNL d   1     -51.395  25.272  33.326  0.00  0.00    -0.226 N 
ATOM      2  C   UNL d   1     -50.578  25.155  33.332  0.00  0.00     0.359 A 
ATOM      3  C   UNL d   1     -51.705  26.038  33.319  0.00  0.00     0.273 A 
ATOM      4  N   UNL d   1     -50.071  25.806  33.332  0.00  0.00    -0.153 NA
ATOM      5  C   UNL d   1     -50.380  26.572  33.326  0.00  0.00     0.288 A 
ATOM      6  C   UNL d   1     -51.197  26.689  33.320  0.00  0.00     0.124 A 
ATOM      7  O   UNL d   1     -50.265  24.389  33.339  0.00  0.00    -0.244 OA
ATOM      8  O   UNL d   1     -52.522  26.154  33.313  0.00  0.00    -0.266 OA
ATOM      9  O   UNL d   1     -49.873  27.223  33.326  0.00  0.00    -0.265 OA
ENDROOT
BRANCH   1  10
ATOM     10  C   UNL d   1     -51.903  24.620  33.326  0.00  0.00     0.071 A 
ATOM     11  C   UNL d   1     -51.583  23.848  33.316  0.00  0.00     0.016 A 
ATOM     12  C   UNL d   1     -50.762  23.743  33.306  0.00  0.00     0.002 C 
ATOM     13  C   UNL d   1     -52.085  23.196  33.316  0.00  0.00     0.001 A 
ATOM     14  C   UNL d   1     -52.905  23.304  33.325  0.00  0.00     0.000 A 
ATOM     15  C   UNL d   1     -53.217  24.068  33.335  0.00  0.00     0.002 A 
ATOM     16  C   UNL d   1     -52.713  24.732  33.335  0.00  0.00     0.018 A 
ENDBRANCH   1  10
TORSDOF 1
ENDMDL
MODEL 2
REMARK VINA RESULT:       9.0      1.091      3.174
REMARK  1 active torsions:
REMARK  status: ('A' for Active; 'I' for Inactive)
REMARK    1  A    between atoms: C_7  and  N_1 
ROOT
ATOM      1  N   UNL d   1     -51.763  24.617  33.342  0.00  0.00    -0.226 N 
ATOM      2  C   UNL d   1     -52.511  24.967  33.324  0.00  0.00     0.359 A 
ATOM      3  C   UNL d   1     -51.691  23.795  33.361  0.00  0.00     0.273 A 
ATOM      4  N   UNL d   1     -53.185  24.491  33.324  0.00  0.00    -0.153 NA
ATOM      5  C   UNL d   1     -53.113  23.669  33.342  0.00  0.00     0.288 A 
ATOM      6  C   UNL d   1     -52.365  23.319  33.361  0.00  0.00     0.124 A 
ATOM      7  O   UNL d   1     -52.587  25.790  33.306  0.00  0.00    -0.244 OA
ATOM      8  O   UNL d   1     -50.943  23.445  33.379  0.00  0.00    -0.266 OA
ATOM      9  O   UNL d   1     -53.788  23.193  33.342  0.00  0.00    -0.265 OA
ENDROOT
BRANCH   1  10
ATOM     10  C   UNL d   1     -51.088  25.093  33.342  0.00  0.00     0.071 A 
ATOM     11  C   UNL d   1     -51.169  25.924  33.380  0.00  0.00     0.016 A 
ATOM     12  C   UNL d   1     -51.923  26.262  33.416  0.00  0.00     0.002 C 
ATOM     13  C   UNL d   1     -50.499  26.401  33.380  0.00  0.00     0.001 A 
ATOM     14  C   UNL d   1     -49.746  26.060  33.343  0.00  0.00     0.000 A 
ATOM     15  C   UNL d   1     -49.671  25.239  33.307  0.00  0.00     0.002 A 
ATOM     16  C   UNL d   1     -50.346  24.751  33.306  0.00  0.00     0.018 A 
ENDBRANCH   1  10
TORSDOF 1
ENDMDL
