MODEL 1
REMARK VINA RESULT:      17.9      0.000      0.000
REMARK  3 active torsions:
REMARK  status: ('A' for Active; 'I' for Inactive)
REMARK    1  A    between atoms: N_6  and  C_2 
REMARK    2  A    between atoms: C_7  and  C_5 
REMARK    3  A    between atoms: C_9  and  C_7 
ROOT
ATOM      1  N   UNL d   1      44.798 -14.823  44.605  0.00  0.00    -0.183 NA
ATOM      2  C   UNL d   1      45.552 -14.516  44.487  0.00  0.00     0.183 A 
ATOM      3  S   UNL d   1      46.095 -15.122  44.602  0.00  0.00    -0.045 SA
ATOM      4  C   UNL d   1      44.875 -15.620  44.793  0.00  0.00     0.287 A 
ATOM      5  C   UNL d   1      45.678 -15.810  44.792  0.00  0.00     0.090 A 
ATOM      6  O   UNL d   1      44.256 -16.140  44.955  0.00  0.00    -0.265 OA
ENDROOT
BRANCH   5   7
ATOM      7  C   UNL d   1      46.003 -16.551  44.952  0.00  0.00     0.011 C 
BRANCH   7   8
ATOM      8  C   UNL d   1      46.097 -17.100  44.348  0.00  0.00     0.001 A 
ATOM      9  C   UNL d   1      46.185 -17.903  44.535  0.00  0.00     0.001 A 
ATOM     10  C   UNL d   1      46.279 -18.456  43.929  0.00  0.00     0.011 A 
ATOM     11  C   UNL d   1      46.285 -18.210  43.141  0.00  0.00     0.058 A 
ATOM     12  C   UNL d   1      46.198 -17.412  42.957  0.00  0.00     0.011 A 
ATOM     13 CL   UNL d   1      46.382 -18.796  42.566  0.00  0.00    -0.082 Cl
ATOM     14  C   UNL d   1      46.104 -16.856  43.550  0.00  0.00     0.001 A 
ENDBRANCH   7   8
ENDBRANCH   5   7
BRANCH   2  15
ATOM     15  N   UNL d   1      45.604 -13.711  44.290  0.00  0.00    -0.280 N 
ATOM     16  C   UNL d   1      45.875 -13.165  44.842  0.00  0.00     0.109 A 
ATOM     17  C   UNL d   1      45.927 -12.358  44.640  0.00  0.00     0.142 A 
ATOM     18  O   UNL d   1      45.705 -12.115  43.887  0.00  0.00    -0.300 OA
ATOM     19  C   UNL d   1      45.430 -12.668  43.327  0.00  0.00     0.142 A 
ATOM     20  C   UNL d   1      45.382 -13.461  43.533  0.00  0.00     0.109 A 
ENDBRANCH   2  15
TORSDOF 3
ENDMDL
MODEL 2
REMARK VINA RESULT:      19.2      3.054      4.515
REMARK  3 active torsions:
REMARK  status: ('A' for Active; 'I' for Inactive)
REMARK    1  A    between atoms: N_6  and  C_2 
REMARK    2  A    between atoms: C_7  and  C_5 
REMARK    3  A    between atoms: C_9  and  C_7 
ROOT
ATOM      1  N   UNL d   1      46.382 -19.204  43.509  0.00  0.00    -0.183 NA
ATOM      2  C   UNL d   1      46.369 -18.547  43.016  0.00  0.00     0.183 A 
ATOM      3  S   UNL d   1      46.261 -17.880  43.484  0.00  0.00    -0.045 SA
ATOM      4  C   UNL d   1      46.282 -18.944  44.283  0.00  0.00     0.287 A 
ATOM      5  C   UNL d   1      46.206 -18.123  44.272  0.00  0.00     0.090 A 
ATOM      6  O   UNL d   1      46.260 -19.422  44.954  0.00  0.00    -0.265 OA
ENDROOT
BRANCH   5   7
ATOM      7  C   UNL d   1      46.095 -17.636  44.928  0.00  0.00     0.011 C 
BRANCH   7   8
ATOM      8  C   UNL d   1      45.871 -16.851  44.826  0.00  0.00     0.001 A 
ATOM      9  C   UNL d   1      45.076 -16.637  44.926  0.00  0.00     0.001 A 
ATOM     10  C   UNL d   1      44.849 -15.850  44.824  0.00  0.00     0.011 A 
ATOM     11  C   UNL d   1      45.411 -15.279  44.624  0.00  0.00     0.058 A 
ATOM     12  C   UNL d   1      46.200 -15.494  44.526  0.00  0.00     0.011 A 
ATOM     13 CL   UNL d   1      45.142 -14.503  44.532  0.00  0.00    -0.082 Cl
ATOM     14  C   UNL d   1      46.435 -16.272  44.624  0.00  0.00     0.001 A 
ENDBRANCH   7   8
ENDBRANCH   5   7
BRANCH   2  15
ATOM     15  N   UNL d   1      46.462 -18.683  42.203  0.00  0.00    -0.280 N 
ATOM     16  C   UNL d   1      46.548 -18.051  41.683  0.00  0.00     0.109 A 
ATOM     17  C   UNL d   1      46.641 -18.192  40.867  0.00  0.00     0.142 A 
ATOM     18  O   UNL d   1      46.647 -18.966  40.589  0.00  0.00    -0.300 OA
ATOM     19  C   UNL d   1      46.560 -19.605  41.115  0.00  0.00     0.142 A 
ATOM     20  C   UNL d   1      46.469 -19.459  41.917  0.00  0.00     0.109 A 
ENDBRANCH   2  15
TORSDOF 3
ENDMDL
MODEL 3
REMARK VINA RESULT:      20.7      1.076      1.564
REMARK  3 active torsions:
REMARK  status: ('A' for Active; 'I' for Inactive)
REMARK    1  A    between atoms: N_6  and  C_2 
REMARK    2  A    between atoms: C_7  and  C_5 
REMARK    3  A    between atoms: C_9  and  C_7 
ROOT
ATOM      1  N   UNL d   1      45.098 -16.429  44.796  0.00  0.00    -0.183 NA
ATOM      2  C   UNL d   1      45.747 -15.968  44.591  0.00  0.00     0.183 A 
ATOM      3  S   UNL d   1      46.382 -16.470  44.451  0.00  0.00    -0.045 SA
ATOM      4  C   UNL d   1      45.333 -17.218  44.783  0.00  0.00     0.287 A 
ATOM      5  C   UNL d   1      46.128 -17.248  44.569  0.00  0.00     0.090 A 
ATOM      6  O   UNL d   1      44.854 -17.867  44.955  0.00  0.00    -0.265 OA
ENDROOT
BRANCH   5   7
ATOM      7  C   UNL d   1      46.586 -17.929  44.489  0.00  0.00     0.011 C 
BRANCH   7   8
ATOM      8  C   UNL d   1      46.566 -18.360  43.789  0.00  0.00     0.001 A 
ATOM      9  C   UNL d   1      46.467 -19.183  43.819  0.00  0.00     0.001 A 
ATOM     10  C   UNL d   1      46.447 -19.617  43.117  0.00  0.00     0.011 A 
ATOM     11  C   UNL d   1      46.524 -19.234  42.389  0.00  0.00     0.058 A 
ATOM     12  C   UNL d   1      46.621 -18.417  42.363  0.00  0.00     0.011 A 
ATOM     13 CL   UNL d   1      46.498 -19.706  41.712  0.00  0.00    -0.082 Cl
ATOM     14  C   UNL d   1      46.643 -17.977  43.053  0.00  0.00     0.001 A 
ENDBRANCH   7   8
ENDBRANCH   5   7
BRANCH   2  15
ATOM     15  N   UNL d   1      45.633 -15.146  44.569  0.00  0.00    -0.280 N 
ATOM     16  C   UNL d   1      46.190 -14.659  44.209  0.00  0.00     0.109 A 
ATOM     17  C   UNL d   1      46.073 -13.835  44.189  0.00  0.00     0.142 A 
ATOM     18  O   UNL d   1      45.397 -13.514  44.531  0.00  0.00    -0.300 OA
ATOM     19  C   UNL d   1      44.833 -14.007  44.895  0.00  0.00     0.142 A 
ATOM     20  C   UNL d   1      44.956 -14.818  44.911  0.00  0.00     0.109 A 
ENDBRANCH   2  15
TORSDOF 3
ENDMDL
