MODEL 1
REMARK VINA RESULT:      -6.2      0.000      0.000
REMARK  5 active torsions:
REMARK  status: ('A' for Active; 'I' for Inactive)
REMARK    1  A    between atoms: N_2  and  S_1 
REMARK    2  A    between atoms: C_4  and  S_1 
REMARK    3  A    between atoms: C_3  and  N_2 
REMARK    4  A    between atoms: N_7  and  C_3 
REMARK    5  A    between atoms: C_14  and  N_7 
ROOT
ATOM      1  S   UNL d   1     -41.863-122.738 -51.026  0.00  0.00     0.287 S 
ATOM      2  O   UNL d   1     -41.939-123.558 -51.153  0.00  0.00    -0.198 OA
ATOM      3  O   UNL d   1     -41.788-121.920 -50.885  0.00  0.00    -0.198 OA
ENDROOT
BRANCH   1   4
ATOM      4  N   UNL d   1     -41.807-122.610 -51.845  0.00  0.00    -0.128 NA
BRANCH   4   5
ATOM      5  C   UNL d   1     -41.403-122.723 -52.565  0.00  0.00     0.232 C 
ATOM      6  S   UNL d   1     -41.123-123.470 -52.763  0.00  0.00    -0.036 SA
BRANCH   5   7
ATOM      7  N   UNL d   1     -41.287-122.084 -53.075  0.00  0.00    -0.217 NA
BRANCH   7   8
ATOM      8  C   UNL d   1     -41.563-122.123 -53.850  0.00  0.00     0.084 A 
ATOM      9  C   UNL d   1     -41.169-122.594 -54.400  0.00  0.00     0.019 A 
ATOM     10  C   UNL d   1     -41.444-122.635 -55.176  0.00  0.00     0.002 A 
ATOM     11  C   UNL d   1     -42.107-122.210 -55.404  0.00  0.00     0.000 A 
ATOM     12  C   UNL d   1     -42.501-121.738 -54.851  0.00  0.00     0.002 A 
ATOM     13  C   UNL d   1     -42.231-121.694 -54.074  0.00  0.00     0.019 A 
ENDBRANCH   7   8
ENDBRANCH   5   7
ENDBRANCH   4   5
ENDBRANCH   1   4
BRANCH   1  14
ATOM     14  C   UNL d   1     -41.920-122.867 -50.204  0.00  0.00     0.105 A 
ATOM     15  C   UNL d   1     -41.248-123.092 -49.771  0.00  0.00     0.013 A 
ATOM     16  C   UNL d   1     -41.304-123.219 -48.959  0.00  0.00     0.001 A 
ATOM     17  C   UNL d   1     -42.026-123.124 -48.580  0.00  0.00     0.000 A 
ATOM     18  C   UNL d   1     -42.700-122.901 -49.003  0.00  0.00     0.001 A 
ATOM     19  C   UNL d   1     -42.082-123.252 -47.764  0.00  0.00     0.000 C 
ATOM     20  C   UNL d   1     -42.643-122.773 -49.817  0.00  0.00     0.013 A 
ENDBRANCH   1  14
TORSDOF 5
ENDMDL
MODEL 2
REMARK VINA RESULT:      -6.1      0.867      4.860
REMARK  5 active torsions:
REMARK  status: ('A' for Active; 'I' for Inactive)
REMARK    1  A    between atoms: N_2  and  S_1 
REMARK    2  A    between atoms: C_4  and  S_1 
REMARK    3  A    between atoms: C_3  and  N_2 
REMARK    4  A    between atoms: N_7  and  C_3 
REMARK    5  A    between atoms: C_14  and  N_7 
ROOT
ATOM      1  S   UNL d   1     -41.487-122.690 -52.916  0.00  0.00     0.287 S 
ATOM      2  O   UNL d   1     -41.263-121.900 -52.778  0.00  0.00    -0.198 OA
ATOM      3  O   UNL d   1     -41.715-123.478 -53.068  0.00  0.00    -0.198 OA
ENDROOT
BRANCH   1   4
ATOM      4  N   UNL d   1     -41.306-122.886 -52.129  0.00  0.00    -0.128 NA
BRANCH   4   5
ATOM      5  C   UNL d   1     -41.455-122.802 -51.314  0.00  0.00     0.232 C 
ATOM      6  S   UNL d   1     -41.129-122.169 -50.903  0.00  0.00    -0.036 SA
BRANCH   5   7
ATOM      7  N   UNL d   1     -41.928-123.355 -50.924  0.00  0.00    -0.217 NA
BRANCH   7   8
ATOM      8  C   UNL d   1     -41.925-123.388 -50.101  0.00  0.00     0.084 A 
ATOM      9  C   UNL d   1     -42.528-123.021 -49.675  0.00  0.00     0.019 A 
ATOM     10  C   UNL d   1     -42.527-123.053 -48.852  0.00  0.00     0.002 A 
ATOM     11  C   UNL d   1     -41.929-123.448 -48.453  0.00  0.00     0.000 A 
ATOM     12  C   UNL d   1     -41.325-123.816 -48.882  0.00  0.00     0.002 A 
ATOM     13  C   UNL d   1     -41.321-123.787 -49.705  0.00  0.00     0.019 A 
ENDBRANCH   7   8
ENDBRANCH   5   7
ENDBRANCH   4   5
ENDBRANCH   1   4
BRANCH   1  14
ATOM     14  C   UNL d   1     -41.669-122.493 -53.706  0.00  0.00     0.105 A 
ATOM     15  C   UNL d   1     -42.239-121.910 -53.869  0.00  0.00     0.013 A 
ATOM     16  C   UNL d   1     -42.419-121.716 -54.649  0.00  0.00     0.001 A 
ATOM     17  C   UNL d   1     -42.034-122.099 -55.264  0.00  0.00     0.000 A 
ATOM     18  C   UNL d   1     -41.466-122.680 -55.111  0.00  0.00     0.001 A 
ATOM     19  C   UNL d   1     -42.215-121.904 -56.047  0.00  0.00     0.000 C 
ATOM     20  C   UNL d   1     -41.286-122.875 -54.329  0.00  0.00     0.013 A 
ENDBRANCH   1  14
TORSDOF 5
ENDMDL
MODEL 3
REMARK VINA RESULT:      -5.9      0.851      4.738
REMARK  5 active torsions:
REMARK  status: ('A' for Active; 'I' for Inactive)
REMARK    1  A    between atoms: N_2  and  S_1 
REMARK    2  A    between atoms: C_4  and  S_1 
REMARK    3  A    between atoms: C_3  and  N_2 
REMARK    4  A    between atoms: N_7  and  C_3 
REMARK    5  A    between atoms: C_14  and  N_7 
ROOT
ATOM      1  S   UNL d   1     -41.359-122.568 -52.797  0.00  0.00     0.287 S 
ATOM      2  O   UNL d   1     -41.123-121.774 -52.716  0.00  0.00    -0.198 OA
ATOM      3  O   UNL d   1     -41.600-123.361 -52.892  0.00  0.00    -0.198 OA
ENDROOT
BRANCH   1   4
ATOM      4  N   UNL d   1     -41.132-122.724 -52.013  0.00  0.00    -0.128 NA
BRANCH   4   5
ATOM      5  C   UNL d   1     -41.315-123.018 -51.255  0.00  0.00     0.232 C 
ATOM      6  S   UNL d   1     -41.211-123.817 -51.091  0.00  0.00    -0.036 SA
BRANCH   5   7
ATOM      7  N   UNL d   1     -41.601-122.505 -50.675  0.00  0.00    -0.217 NA
BRANCH   7   8
ATOM      8  C   UNL d   1     -41.757-122.790 -49.917  0.00  0.00     0.084 A 
ATOM      9  C   UNL d   1     -41.132-122.943 -49.403  0.00  0.00     0.019 A 
ATOM     10  C   UNL d   1     -41.285-123.229 -48.645  0.00  0.00     0.002 A 
ATOM     11  C   UNL d   1     -42.056-123.361 -48.400  0.00  0.00     0.000 A 
ATOM     12  C   UNL d   1     -42.682-123.207 -48.919  0.00  0.00     0.002 A 
ATOM     13  C   UNL d   1     -42.535-122.922 -49.676  0.00  0.00     0.019 A 
ENDBRANCH   7   8
ENDBRANCH   5   7
ENDBRANCH   4   5
ENDBRANCH   1   4
BRANCH   1  14
ATOM     14  C   UNL d   1     -41.588-122.412 -53.584  0.00  0.00     0.105 A 
ATOM     15  C   UNL d   1     -41.225-122.819 -54.211  0.00  0.00     0.013 A 
ATOM     16  C   UNL d   1     -41.451-122.665 -54.988  0.00  0.00     0.001 A 
ATOM     17  C   UNL d   1     -42.034-122.108 -55.141  0.00  0.00     0.000 A 
ATOM     18  C   UNL d   1     -42.400-121.698 -54.523  0.00  0.00     0.001 A 
ATOM     19  C   UNL d   1     -42.260-121.953 -55.921  0.00  0.00     0.000 C 
ATOM     20  C   UNL d   1     -42.174-121.853 -53.744  0.00  0.00     0.013 A 
ENDBRANCH   1  14
TORSDOF 5
ENDMDL
