MODEL 1
REMARK VINA RESULT:      10.6      0.000      0.000
REMARK  5 active torsions:
REMARK  status: ('A' for Active; 'I' for Inactive)
REMARK    1  A    between atoms: N_2  and  S_1 
REMARK    2  A    between atoms: C_4  and  S_1 
REMARK    3  A    between atoms: C_3  and  N_2 
REMARK    4  A    between atoms: N_7  and  C_3 
REMARK    5  A    between atoms: C_15  and  N_7 
ROOT
ATOM      1  S   UNL d   1      45.723 -16.074  44.315  0.00  0.00     0.287 S 
ATOM      2  O   UNL d   1      45.209 -16.222  44.955  0.00  0.00    -0.198 OA
ATOM      3  O   UNL d   1      46.231 -15.927  43.682  0.00  0.00    -0.198 OA
ENDROOT
BRANCH   1   4
ATOM      4  N   UNL d   1      45.762 -16.887  44.157  0.00  0.00    -0.128 NA
BRANCH   4   5
ATOM      5  C   UNL d   1      46.175 -17.597  44.211  0.00  0.00     0.232 C 
ATOM      6  S   UNL d   1      46.205 -18.006  44.927  0.00  0.00    -0.036 SA
BRANCH   5   7
ATOM      7  N   UNL d   1      46.558 -17.899  43.547  0.00  0.00    -0.217 NA
BRANCH   7   8
ATOM      8  C   UNL d   1      46.462 -18.693  43.346  0.00  0.00     0.084 A 
ATOM      9  C   UNL d   1      46.564 -19.273  43.923  0.00  0.00     0.019 A 
ATOM     10  C   UNL d   1      46.468 -20.067  43.726  0.00  0.00     0.002 A 
ATOM     11  C   UNL d   1      46.272 -20.280  42.958  0.00  0.00     0.000 A 
ATOM     12  C   UNL d   1      46.170 -19.701  42.383  0.00  0.00     0.002 A 
ATOM     13  C   UNL d   1      46.264 -18.908  42.575  0.00  0.00     0.019 A 
ENDBRANCH   7   8
ENDBRANCH   5   7
ENDBRANCH   4   5
ENDBRANCH   1   4
BRANCH   1  14
ATOM     14  C   UNL d   1      45.684 -15.256  44.473  0.00  0.00     0.105 A 
ATOM     15  C   UNL d   1      46.381 -14.828  44.572  0.00  0.00     0.013 A 
ATOM     16  C   UNL d   1      46.350 -14.010  44.731  0.00  0.00     0.007 A 
ATOM     17  C   UNL d   1      45.612 -13.626  44.790  0.00  0.00     0.035 A 
ATOM     18  C   UNL d   1      44.914 -14.063  44.689  0.00  0.00     0.007 A 
ATOM     19 BR   UNL d   1      45.585 -12.817  44.948  0.00  0.00    -0.049 Br
ATOM     20  C   UNL d   1      44.946 -14.873  44.532  0.00  0.00     0.013 A 
ENDBRANCH   1  14
TORSDOF 5
ENDMDL
MODEL 2
REMARK VINA RESULT:      11.3      1.985      4.731
REMARK  5 active torsions:
REMARK  status: ('A' for Active; 'I' for Inactive)
REMARK    1  A    between atoms: N_2  and  S_1 
REMARK    2  A    between atoms: C_4  and  S_1 
REMARK    3  A    between atoms: C_3  and  N_2 
REMARK    4  A    between atoms: N_7  and  C_3 
REMARK    5  A    between atoms: C_15  and  N_7 
ROOT
ATOM      1  S   UNL d   1      46.193 -17.267  43.755  0.00  0.00     0.287 S 
ATOM      2  O   UNL d   1      46.213 -17.565  44.534  0.00  0.00    -0.198 OA
ATOM      3  O   UNL d   1      46.172 -16.973  42.985  0.00  0.00    -0.198 OA
ENDROOT
BRANCH   1   4
ATOM      4  N   UNL d   1      46.079 -16.501  44.052  0.00  0.00    -0.128 NA
BRANCH   4   5
ATOM      5  C   UNL d   1      45.740 -16.006  44.615  0.00  0.00     0.232 C 
ATOM      6  S   UNL d   1      45.014 -16.201  44.954  0.00  0.00    -0.036 SA
BRANCH   5   7
ATOM      7  N   UNL d   1      46.129 -15.315  44.840  0.00  0.00    -0.217 NA
BRANCH   7   8
ATOM      8  C   UNL d   1      45.790 -14.583  44.666  0.00  0.00     0.084 A 
ATOM      9  C   UNL d   1      46.266 -13.971  44.387  0.00  0.00     0.019 A 
ATOM     10  C   UNL d   1      45.932 -13.239  44.212  0.00  0.00     0.002 A 
ATOM     11  C   UNL d   1      45.126 -13.119  44.316  0.00  0.00     0.000 A 
ATOM     12  C   UNL d   1      44.651 -13.730  44.595  0.00  0.00     0.002 A 
ATOM     13  C   UNL d   1      44.981 -14.462  44.770  0.00  0.00     0.019 A 
ENDBRANCH   7   8
ENDBRANCH   5   7
ENDBRANCH   4   5
ENDBRANCH   1   4
BRANCH   1  14
ATOM     14  C   UNL d   1      46.307 -18.038  43.458  0.00  0.00     0.105 A 
ATOM     15  C   UNL d   1      46.307 -18.163  42.643  0.00  0.00     0.013 A 
ATOM     16  C   UNL d   1      46.420 -18.931  42.338  0.00  0.00     0.007 A 
ATOM     17  C   UNL d   1      46.534 -19.572  42.859  0.00  0.00     0.035 A 
ATOM     18  C   UNL d   1      46.533 -19.439  43.678  0.00  0.00     0.007 A 
ATOM     19 BR   UNL d   1      46.646 -20.330  42.554  0.00  0.00    -0.049 Br
ATOM     20  C   UNL d   1      46.421 -18.679  43.979  0.00  0.00     0.013 A 
ENDBRANCH   1  14
TORSDOF 5
ENDMDL
