MODEL 1
REMARK VINA RESULT:      17.3      0.000      0.000
REMARK  3 active torsions:
REMARK  status: ('A' for Active; 'I' for Inactive)
REMARK    1  A    between atoms: C_9  and  C_1 
REMARK    2  A    between atoms: C_4  and  C_9 
REMARK       I    between atoms: N_5  and  C_4 
REMARK    3  A    between atoms: C_10  and  N_8 
ROOT
ATOM      1  C   UNL d   1      45.747 -17.078  43.913  0.00  0.00     0.265 C 
ATOM      2  N   UNL d   1      45.766 -16.263  44.042  0.00  0.00    -0.269 N 
ATOM      3  N   UNL d   1      45.816 -14.618  44.301  0.00  0.00    -0.299 N 
ATOM      4  C   UNL d   1      46.502 -15.866  44.058  0.00  0.00     0.102 A 
ATOM      5  C   UNL d   1      45.075 -15.843  44.153  0.00  0.00     0.102 A 
ATOM      6  C   UNL d   1      45.103 -15.029  44.281  0.00  0.00     0.100 A 
ATOM      7  C   UNL d   1      46.531 -15.051  44.186  0.00  0.00     0.100 A 
ATOM      8  O   UNL d   1      45.023 -17.470  43.898  0.00  0.00    -0.267 OA
ENDROOT
BRANCH   1   9
ATOM      9  C   UNL d   1      46.450 -17.506  43.800  0.00  0.00     0.063 C 
BRANCH   9  10
ATOM     10  C   UNL d   1      46.438 -18.332  43.851  0.00  0.00     0.024 A 
ATOM     11  C   UNL d   1      46.358 -18.761  44.543  0.00  0.00     0.080 A 
ATOM     12  N   UNL d   1      46.373 -19.565  44.348  0.00  0.00    -0.303 N 
ATOM     13  C   UNL d   1      46.310 -20.199  44.869  0.00  0.00     0.100 C 
ATOM     14  C   UNL d   1      46.463 -19.619  43.532  0.00  0.00     0.064 A 
ATOM     15  C   UNL d   1      46.503 -18.861  43.231  0.00  0.00     0.018 A 
ATOM     16  C   UNL d   1      46.514 -20.274  43.027  0.00  0.00     0.018 A 
ATOM     17  C   UNL d   1      46.594 -18.747  42.419  0.00  0.00     0.002 A 
ATOM     18  C   UNL d   1      46.644 -19.391  41.918  0.00  0.00     0.000 A 
ATOM     19  C   UNL d   1      46.605 -20.158  42.219  0.00  0.00     0.002 A 
ENDBRANCH   9  10
ENDBRANCH   1   9
BRANCH   3  20
ATOM     20  C   UNL d   1      45.850 -13.815  44.427  0.00  0.00     0.092 A 
ATOM     21  C   UNL d   1      45.240 -13.323  44.160  0.00  0.00     0.156 A 
ATOM     22  F   UNL d   1      44.602 -13.648  43.768  0.00  0.00    -0.203 F 
ATOM     23  C   UNL d   1      45.284 -12.507  44.293  0.00  0.00     0.031 A 
ATOM     24  C   UNL d   1      45.938 -12.191  44.693  0.00  0.00     0.002 A 
ATOM     25  C   UNL d   1      46.536 -12.681  44.954  0.00  0.00     0.002 A 
ATOM     26  C   UNL d   1      46.490 -13.494  44.819  0.00  0.00     0.020 A 
ENDBRANCH   3  20
TORSDOF 3
ENDMDL
