MODEL 1
REMARK VINA RESULT:      32.1      0.000      0.000
REMARK  6 active torsions:
REMARK  status: ('A' for Active; 'I' for Inactive)
REMARK    1  A    between atoms: C_9  and  N_1 
REMARK    2  A    between atoms: S_10  and  C_6 
REMARK    3  A    between atoms: C_16  and  C_9 
REMARK    4  A    between atoms: C_15  and  S_10 
REMARK    5  A    between atoms: C_12  and  C_15 
REMARK       I    between atoms: N_13  and  C_12 
REMARK    6  A    between atoms: C_19  and  N_13 
ROOT
ATOM      1  N   UNL d   1      45.753 -15.903  44.480  0.00  0.00    -0.192 N 
ATOM      2  N   UNL d   1      46.421 -15.880  44.006  0.00  0.00    -0.058 NA
ATOM      3  C   UNL d   1      45.522 -16.691  44.549  0.00  0.00     0.189 A 
ATOM      4  C   UNL d   1      46.058 -17.146  44.110  0.00  0.00     0.164 A 
ATOM      5  N   UNL d   1      46.610 -16.631  43.779  0.00  0.00    -0.125 NA
ATOM      6  C   UNL d   1      45.975 -17.958  44.070  0.00  0.00     0.135 A 
ATOM      7  N   UNL d   1      44.904 -17.048  44.946  0.00  0.00    -0.203 NA
ATOM      8  N   UNL d   1      45.349 -18.329  44.472  0.00  0.00    -0.216 NA
ATOM      9  C   UNL d   1      44.814 -17.874  44.910  0.00  0.00     0.201 A 
ENDROOT
BRANCH   6  10
ATOM     10  S   UNL d   1      46.511 -18.413  43.632  0.00  0.00    -0.061 SA
BRANCH  10  11
ATOM     11  C   UNL d   1      46.395 -19.216  43.543  0.00  0.00     0.099 C 
BRANCH  11  12
ATOM     12  C   UNL d   1      46.267 -19.533  42.789  0.00  0.00     0.286 C 
ATOM     13  N   UNL d   1      46.641 -19.186  42.132  0.00  0.00    -0.208 NA
ATOM     14  O   UNL d   1      45.774 -20.186  42.683  0.00  0.00    -0.265 OA
BRANCH  13  15
ATOM     15  C   UNL d   1      46.517 -19.497  41.375  0.00  0.00     0.085 A 
ATOM     16  C   UNL d   1      46.586 -20.273  41.067  0.00  0.00     0.019 A 
ATOM     17  C   UNL d   1      46.391 -20.233  40.276  0.00  0.00     0.002 A 
ATOM     18  C   UNL d   1      46.210 -19.472  40.103  0.00  0.00     0.002 A 
ATOM     19  C   UNL d   1      46.280 -19.004  40.759  0.00  0.00     0.019 A 
ENDBRANCH  13  15
ENDBRANCH  11  12
ENDBRANCH  10  11
ENDBRANCH   6  10
BRANCH   1  20
ATOM     20  C   UNL d   1      45.375 -15.240  44.832  0.00  0.00     0.104 C 
BRANCH  20  21
ATOM     21  C   UNL d   1      45.332 -14.511  44.423  0.00  0.00     0.019 A 
ATOM     22  C   UNL d   1      44.661 -14.328  43.974  0.00  0.00     0.004 A 
ATOM     23  C   UNL d   1      44.615 -13.617  43.572  0.00  0.00     0.030 A 
ATOM     24  C   UNL d   1      45.244 -13.078  43.617  0.00  0.00     0.140 A 
ATOM     25  C   UNL d   1      45.922 -13.257  44.068  0.00  0.00     0.030 A 
ATOM     26  F   UNL d   1      45.185 -12.349  43.200  0.00  0.00    -0.204 F 
ATOM     27  C   UNL d   1      45.952 -13.969  44.461  0.00  0.00     0.004 A 
ENDBRANCH  20  21
ENDBRANCH   1  20
TORSDOF 6
ENDMDL
