MODEL 1
REMARK VINA RESULT:      -7.4      0.000      0.000
REMARK  0 active torsions:
REMARK  status: ('A' for Active; 'I' for Inactive)
ROOT
ATOM      1  C   UNL d   1     -47.430  12.961  23.208  0.00  0.00     0.063 A 
ATOM      2  N   UNL d   1     -46.102  12.871  23.169  0.00  0.00    -0.204 NA
ATOM      3  C   UNL d   1     -46.799  12.456  23.331  0.00  0.00     0.099 A 
ATOM      4  C   UNL d   1     -46.309  13.608  22.952  0.00  0.00     0.318 A 
ATOM      5  C   UNL d   1     -47.129  13.693  22.967  0.00  0.00     0.254 A 
ATOM      6  C   UNL d   1     -46.925  11.694  23.572  0.00  0.00     0.076 A 
ATOM      7  C   UNL d   1     -47.700  11.420  23.695  0.00  0.00     0.024 A 
ATOM      8  C   UNL d   1     -48.189  12.705  23.324  0.00  0.00     0.016 A 
ATOM      9  O   UNL d   1     -45.756  14.196  22.744  0.00  0.00    -0.262 OA
ATOM     10  C   UNL d   1     -48.331  11.926  23.571  0.00  0.00     0.059 A 
ATOM     11  O   UNL d   1     -47.571  14.363  22.783  0.00  0.00    -0.281 OA
ATOM     12 CL   UNL d   1     -46.286  11.182  23.698  0.00  0.00    -0.081 Cl
ATOM     13 CL   UNL d   1     -49.128  11.652  23.695  0.00  0.00    -0.082 Cl
ENDROOT
TORSDOF 0
ENDMDL
MODEL 2
REMARK VINA RESULT:      -7.4      1.749      2.166
REMARK  0 active torsions:
REMARK  status: ('A' for Active; 'I' for Inactive)
ROOT
ATOM      1  C   UNL d   1     -47.380  12.515  23.301  0.00  0.00     0.063 A 
ATOM      2  N   UNL d   1     -46.049  12.564  23.325  0.00  0.00    -0.204 NA
ATOM      3  C   UNL d   1     -46.735  13.005  23.186  0.00  0.00     0.099 A 
ATOM      4  C   UNL d   1     -46.276  11.826  23.518  0.00  0.00     0.318 A 
ATOM      5  C   UNL d   1     -47.098  11.766  23.511  0.00  0.00     0.254 A 
ATOM      6  C   UNL d   1     -46.841  13.779  22.974  0.00  0.00     0.076 A 
ATOM      7  C   UNL d   1     -47.608  14.080  22.872  0.00  0.00     0.024 A 
ATOM      8  C   UNL d   1     -48.131  12.798  23.203  0.00  0.00     0.016 A 
ATOM      9  O   UNL d   1     -45.738  11.215  23.698  0.00  0.00    -0.262 OA
ATOM     10  C   UNL d   1     -48.253  13.589  22.986  0.00  0.00     0.059 A 
ATOM     11  O   UNL d   1     -47.558  11.103  23.677  0.00  0.00    -0.281 OA
ATOM     12 CL   UNL d   1     -46.188  14.276  22.859  0.00  0.00    -0.081 Cl
ATOM     13 CL   UNL d   1     -49.043  13.891  22.882  0.00  0.00    -0.082 Cl
ENDROOT
TORSDOF 0
ENDMDL
MODEL 3
REMARK VINA RESULT:      -7.4      1.475      2.191
REMARK  0 active torsions:
REMARK  status: ('A' for Active; 'I' for Inactive)
ROOT
ATOM      1  C   UNL d   1     -47.205  13.650  22.983  0.00  0.00     0.063 A 
ATOM      2  N   UNL d   1     -47.270  12.374  23.358  0.00  0.00    -0.204 NA
ATOM      3  C   UNL d   1     -47.718  13.029  23.123  0.00  0.00     0.099 A 
ATOM      4  C   UNL d   1     -46.506  12.596  23.358  0.00  0.00     0.318 A 
ATOM      5  C   UNL d   1     -46.436  13.385  23.130  0.00  0.00     0.254 A 
ATOM      6  C   UNL d   1     -48.515  13.125  23.025  0.00  0.00     0.076 A 
ATOM      7  C   UNL d   1     -48.817  13.858  22.780  0.00  0.00     0.024 A 
ATOM      8  C   UNL d   1     -47.489  14.369  22.744  0.00  0.00     0.016 A 
ATOM      9  O   UNL d   1     -45.881  12.085  23.566  0.00  0.00    -0.262 OA
ATOM     10  C   UNL d   1     -48.305  14.480  22.639  0.00  0.00     0.059 A 
ATOM     11  O   UNL d   1     -45.746  13.831  23.057  0.00  0.00    -0.281 OA
ATOM     12 CL   UNL d   1     -49.035  12.495  23.167  0.00  0.00    -0.081 Cl
ATOM     13 CL   UNL d   1     -48.608  15.235  22.388  0.00  0.00    -0.082 Cl
ENDROOT
TORSDOF 0
ENDMDL
MODEL 4
REMARK VINA RESULT:      -7.2      1.172      1.738
REMARK  0 active torsions:
REMARK  status: ('A' for Active; 'I' for Inactive)
ROOT
ATOM      1  C   UNL d   1     -47.344  12.604  23.271  0.00  0.00     0.063 A 
ATOM      2  N   UNL d   1     -47.010  13.736  22.654  0.00  0.00    -0.204 NA
ATOM      3  C   UNL d   1     -47.643  13.245  22.860  0.00  0.00     0.099 A 
ATOM      4  C   UNL d   1     -46.346  13.398  22.934  0.00  0.00     0.318 A 
ATOM      5  C   UNL d   1     -46.524  12.693  23.323  0.00  0.00     0.254 A 
ATOM      6  C   UNL d   1     -48.438  13.309  22.722  0.00  0.00     0.076 A 
ATOM      7  C   UNL d   1     -48.956  12.722  22.998  0.00  0.00     0.024 A 
ATOM      8  C   UNL d   1     -47.840  12.026  23.544  0.00  0.00     0.016 A 
ATOM      9  O   UNL d   1     -45.588  13.730  22.837  0.00  0.00    -0.262 OA
ATOM     10  C   UNL d   1     -48.657  12.080  23.409  0.00  0.00     0.059 A 
ATOM     11  O   UNL d   1     -46.001  12.174  23.691  0.00  0.00    -0.281 OA
ATOM     12 CL   UNL d   1     -48.741  13.959  22.305  0.00  0.00    -0.081 Cl
ATOM     13 CL   UNL d   1     -49.182  11.474  23.695  0.00  0.00    -0.082 Cl
ENDROOT
TORSDOF 0
ENDMDL
MODEL 5
REMARK VINA RESULT:      -7.1      1.723      2.445
REMARK  0 active torsions:
REMARK  status: ('A' for Active; 'I' for Inactive)
ROOT
ATOM      1  C   UNL d   1     -48.193  12.699  23.079  0.00  0.00     0.063 A 
ATOM      2  N   UNL d   1     -48.474  11.438  23.403  0.00  0.00    -0.204 NA
ATOM      3  C   UNL d   1     -47.865  11.991  23.325  0.00  0.00     0.099 A 
ATOM      4  C   UNL d   1     -49.154  11.804  23.208  0.00  0.00     0.318 A 
ATOM      5  C   UNL d   1     -49.009  12.589  23.003  0.00  0.00     0.254 A 
ATOM      6  C   UNL d   1     -47.067  11.931  23.447  0.00  0.00     0.076 A 
ATOM      7  C   UNL d   1     -46.577  12.589  23.323  0.00  0.00     0.024 A 
ATOM      8  C   UNL d   1     -47.725  13.347  22.955  0.00  0.00     0.016 A 
ATOM      9  O   UNL d   1     -49.897  11.426  23.219  0.00  0.00    -0.262 OA
ATOM     10  C   UNL d   1     -46.905  13.297  23.077  0.00  0.00     0.059 A 
ATOM     11  O   UNL d   1     -49.556  13.159  22.768  0.00  0.00    -0.281 OA
ATOM     12 CL   UNL d   1     -46.734  11.213  23.696  0.00  0.00    -0.081 Cl
ATOM     13 CL   UNL d   1     -46.409  13.976  22.948  0.00  0.00    -0.082 Cl
ENDROOT
TORSDOF 0
ENDMDL
MODEL 6
REMARK VINA RESULT:      -7.1      1.976      2.902
REMARK  0 active torsions:
REMARK  status: ('A' for Active; 'I' for Inactive)
ROOT
ATOM      1  C   UNL d   1     -47.439  12.541  23.280  0.00  0.00     0.063 A 
ATOM      2  N   UNL d   1     -48.765  12.423  23.305  0.00  0.00    -0.204 NA
ATOM      3  C   UNL d   1     -48.140  12.945  23.160  0.00  0.00     0.099 A 
ATOM      4  C   UNL d   1     -48.447  11.723  23.508  0.00  0.00     0.318 A 
ATOM      5  C   UNL d   1     -47.624  11.767  23.501  0.00  0.00     0.254 A 
ATOM      6  C   UNL d   1     -48.132  13.723  22.936  0.00  0.00     0.076 A 
ATOM      7  C   UNL d   1     -47.408  14.116  22.828  0.00  0.00     0.024 A 
ATOM      8  C   UNL d   1     -46.729  12.915  23.178  0.00  0.00     0.016 A 
ATOM      9  O   UNL d   1     -48.904  11.051  23.698  0.00  0.00    -0.262 OA
ATOM     10  C   UNL d   1     -46.707  13.713  22.949  0.00  0.00     0.059 A 
ATOM     11  O   UNL d   1     -47.085  11.169  23.676  0.00  0.00    -0.281 OA
ATOM     12 CL   UNL d   1     -48.842  14.132  22.814  0.00  0.00    -0.081 Cl
ATOM     13 CL   UNL d   1     -45.962  14.110  22.840  0.00  0.00    -0.082 Cl
ENDROOT
TORSDOF 0
ENDMDL
MODEL 7
REMARK VINA RESULT:      -7.1      0.814      1.781
REMARK  0 active torsions:
REMARK  status: ('A' for Active; 'I' for Inactive)
ROOT
ATOM      1  C   UNL d   1     -47.148  13.141  23.139  0.00  0.00     0.063 A 
ATOM      2  N   UNL d   1     -48.375  13.623  22.947  0.00  0.00    -0.204 NA
ATOM      3  C   UNL d   1     -47.943  12.948  23.149  0.00  0.00     0.099 A 
ATOM      4  C   UNL d   1     -47.852  14.209  22.818  0.00  0.00     0.318 A 
ATOM      5  C   UNL d   1     -47.081  13.938  22.930  0.00  0.00     0.254 A 
ATOM      6  C   UNL d   1     -48.180  12.197  23.337  0.00  0.00     0.076 A 
ATOM      7  C   UNL d   1     -47.614  11.617  23.521  0.00  0.00     0.024 A 
ATOM      8  C   UNL d   1     -46.589  12.584  23.316  0.00  0.00     0.016 A 
ATOM      9  O   UNL d   1     -48.076  14.982  22.600  0.00  0.00    -0.262 OA
ATOM     10  C   UNL d   1     -46.819  11.811  23.510  0.00  0.00     0.059 A 
ATOM     11  O   UNL d   1     -46.380  14.363  22.852  0.00  0.00    -0.281 OA
ATOM     12 CL   UNL d   1     -48.985  12.001  23.348  0.00  0.00    -0.081 Cl
ATOM     13 CL   UNL d   1     -46.234  11.221  23.697  0.00  0.00    -0.082 Cl
ENDROOT
TORSDOF 0
ENDMDL
MODEL 8
REMARK VINA RESULT:      -6.9      1.925      2.604
REMARK  0 active torsions:
REMARK  status: ('A' for Active; 'I' for Inactive)
ROOT
ATOM      1  C   UNL d   1     -48.113  11.933  23.420  0.00  0.00     0.063 A 
ATOM      2  N   UNL d   1     -48.680  13.089  23.080  0.00  0.00    -0.204 NA
ATOM      3  C   UNL d   1     -47.957  12.707  23.206  0.00  0.00     0.099 A 
ATOM      4  C   UNL d   1     -49.257  12.558  23.216  0.00  0.00     0.318 A 
ATOM      5  C   UNL d   1     -48.933  11.830  23.429  0.00  0.00     0.254 A 
ATOM      6  C   UNL d   1     -47.194  12.971  23.150  0.00  0.00     0.076 A 
ATOM      7  C   UNL d   1     -46.564  12.455  23.311  0.00  0.00     0.024 A 
ATOM      8  C   UNL d   1     -47.506  11.422  23.579  0.00  0.00     0.016 A 
ATOM      9  O   UNL d   1     -50.068  12.736  23.145  0.00  0.00    -0.262 OA
ATOM     10  C   UNL d   1     -46.720  11.681  23.525  0.00  0.00     0.059 A 
ATOM     11  O   UNL d   1     -49.334  11.135  23.615  0.00  0.00    -0.281 OA
ATOM     12 CL   UNL d   1     -47.036  13.755  22.933  0.00  0.00    -0.081 Cl
ATOM     13 CL   UNL d   1     -46.078  11.146  23.692  0.00  0.00    -0.082 Cl
ENDROOT
TORSDOF 0
ENDMDL
MODEL 9
REMARK VINA RESULT:      -6.6      1.951      2.434
REMARK  0 active torsions:
REMARK  status: ('A' for Active; 'I' for Inactive)
ROOT
ATOM      1  C   UNL d   1     -48.349  12.371  22.638  0.00  0.00     0.063 A 
ATOM      2  N   UNL d   1     -47.349  13.135  23.073  0.00  0.00    -0.204 NA
ATOM      3  C   UNL d   1     -48.073  13.140  22.674  0.00  0.00     0.099 A 
ATOM      4  C   UNL d   1     -47.193  12.381  23.273  0.00  0.00     0.318 A 
ATOM      5  C   UNL d   1     -47.798  11.884  23.015  0.00  0.00     0.254 A 
ATOM      6  C   UNL d   1     -48.501  13.745  22.347  0.00  0.00     0.076 A 
ATOM      7  C   UNL d   1     -49.225  13.586  21.973  0.00  0.00     0.024 A 
ATOM      8  C   UNL d   1     -49.053  12.205  22.276  0.00  0.00     0.016 A 
ATOM      9  O   UNL d   1     -46.506  12.150  23.685  0.00  0.00    -0.262 OA
ATOM     10  C   UNL d   1     -49.501  12.816  21.937  0.00  0.00     0.059 A 
ATOM     11  O   UNL d   1     -47.854  11.067  23.107  0.00  0.00    -0.281 OA
ATOM     12 CL   UNL d   1     -48.222  14.524  22.383  0.00  0.00    -0.081 Cl
ATOM     13 CL   UNL d   1     -50.243  12.646  21.555  0.00  0.00    -0.082 Cl
ENDROOT
TORSDOF 0
ENDMDL
