MODEL 1
REMARK VINA RESULT:      -2.2      0.000      0.000
REMARK  5 active torsions:
REMARK  status: ('A' for Active; 'I' for Inactive)
REMARK    1  A    between atoms: C_2  and  S_1 
REMARK    2  A    between atoms: C_3  and  S_1 
REMARK    3  A    between atoms: C_5  and  C_3 
REMARK    4  A    between atoms: O_13  and  C_8 
REMARK    5  A    between atoms: O_14  and  C_10 
ROOT
ATOM      1  C   UNL d   1      31.263  17.146 -24.472  0.00  0.00     0.048 A 
ATOM      2  C   UNL d   1      31.867  17.074 -23.921  0.00  0.00     0.030 A 
ATOM      3  C   UNL d   1      32.497  17.611 -23.932  0.00  0.00     0.116 A 
ATOM      4  C   UNL d   1      32.517  18.216 -24.493  0.00  0.00     0.116 A 
ATOM      5  C   UNL d   1      31.276  17.748 -25.036  0.00  0.00     0.006 A 
ATOM      6  C   UNL d   1      31.901  18.282 -25.046  0.00  0.00     0.026 A 
ENDROOT
BRANCH   1   7
ATOM      7  C   UNL d   1      30.633  16.609 -24.461  0.00  0.00     0.227 C 
ATOM      8  O   UNL d   1      30.767  15.819 -24.661  0.00  0.00    -0.279 OA
BRANCH   7   9
ATOM      9  S   UNL d   1      29.878  16.866 -24.251  0.00  0.00    -0.020 SA
BRANCH   9  10
ATOM     10  C   UNL d   1      29.269  16.317 -24.171  0.00  0.00     0.143 A 
ATOM     11  N   UNL d   1      28.849  15.965 -24.796  0.00  0.00    -0.230 NA
ATOM     12  C   UNL d   1      28.292  15.453 -24.460  0.00  0.00     0.107 A 
ATOM     13  C   UNL d   1      28.365  15.487 -23.642  0.00  0.00     0.058 A 
ATOM     14  S   UNL d   1      28.966  16.019 -23.469  0.00  0.00    -0.059 SA
ENDBRANCH   9  10
ENDBRANCH   7   9
ENDBRANCH   1   7
BRANCH   3  15
ATOM     15  O   UNL d   1      33.090  17.517 -23.370  0.00  0.00    -0.326 OA
ATOM     16  C   UNL d   1      33.237  16.769 -23.052  0.00  0.00     0.181 C 
ENDBRANCH   3  15
BRANCH   4  17
ATOM     17  O   UNL d   1      33.139  18.748 -24.505  0.00  0.00    -0.326 OA
ATOM     18  C   UNL d   1      33.052  19.482 -24.871  0.00  0.00     0.181 C 
ENDBRANCH   4  17
TORSDOF 5
ENDMDL
MODEL 2
REMARK VINA RESULT:      -1.8      3.822      5.050
REMARK  5 active torsions:
REMARK  status: ('A' for Active; 'I' for Inactive)
REMARK    1  A    between atoms: C_2  and  S_1 
REMARK    2  A    between atoms: C_3  and  S_1 
REMARK    3  A    between atoms: C_5  and  C_3 
REMARK    4  A    between atoms: O_13  and  C_8 
REMARK    5  A    between atoms: O_14  and  C_10 
ROOT
ATOM      1  C   UNL d   1      33.095  20.591 -22.008  0.00  0.00     0.048 A 
ATOM      2  C   UNL d   1      32.922  21.350 -22.269  0.00  0.00     0.030 A 
ATOM      3  C   UNL d   1      32.893  21.973 -21.725  0.00  0.00     0.116 A 
ATOM      4  C   UNL d   1      33.038  21.833 -20.925  0.00  0.00     0.116 A 
ATOM      5  C   UNL d   1      33.241  20.442 -21.210  0.00  0.00     0.006 A 
ATOM      6  C   UNL d   1      33.212  21.061 -20.670  0.00  0.00     0.026 A 
ENDROOT
BRANCH   1   7
ATOM      7  C   UNL d   1      33.123  19.968 -22.553  0.00  0.00     0.227 C 
ATOM      8  O   UNL d   1      33.240  20.130 -23.353  0.00  0.00    -0.279 OA
BRANCH   7   9
ATOM      9  S   UNL d   1      33.035  19.191 -22.291  0.00  0.00    -0.020 SA
BRANCH   9  10
ATOM     10  C   UNL d   1      32.877  18.593 -22.836  0.00  0.00     0.143 A 
ATOM     11  N   UNL d   1      32.315  18.633 -23.449  0.00  0.00    -0.230 NA
ATOM     12  C   UNL d   1      32.345  17.913 -23.856  0.00  0.00     0.107 A 
ATOM     13  C   UNL d   1      32.914  17.436 -23.503  0.00  0.00     0.058 A 
ATOM     14  S   UNL d   1      33.238  17.858 -22.878  0.00  0.00    -0.059 SA
ENDBRANCH   9  10
ENDBRANCH   7   9
ENDBRANCH   1   7
BRANCH   3  15
ATOM     15  O   UNL d   1      32.718  22.724 -22.011  0.00  0.00    -0.326 OA
ATOM     16  C   UNL d   1      33.019  22.962 -22.743  0.00  0.00     0.181 C 
ENDBRANCH   3  15
BRANCH   4  17
ATOM     17  O   UNL d   1      33.010  22.448 -20.385  0.00  0.00    -0.326 OA
ATOM     18  C   UNL d   1      33.179  22.312 -19.590  0.00  0.00     0.181 C 
ENDBRANCH   4  17
TORSDOF 5
ENDMDL
MODEL 3
REMARK VINA RESULT:      -1.7      2.714      3.692
REMARK  5 active torsions:
REMARK  status: ('A' for Active; 'I' for Inactive)
REMARK    1  A    between atoms: C_2  and  S_1 
REMARK    2  A    between atoms: C_3  and  S_1 
REMARK    3  A    between atoms: C_5  and  C_3 
REMARK    4  A    between atoms: O_13  and  C_8 
REMARK    5  A    between atoms: O_14  and  C_10 
ROOT
ATOM      1  C   UNL d   1      33.023  19.561 -22.953  0.00  0.00     0.048 A 
ATOM      2  C   UNL d   1      32.929  19.859 -22.193  0.00  0.00     0.030 A 
ATOM      3  C   UNL d   1      32.991  20.675 -22.064  0.00  0.00     0.116 A 
ATOM      4  C   UNL d   1      33.146  21.185 -22.694  0.00  0.00     0.116 A 
ATOM      5  C   UNL d   1      33.178  20.064 -23.588  0.00  0.00     0.006 A 
ATOM      6  C   UNL d   1      33.239  20.873 -23.459  0.00  0.00     0.026 A 
ENDROOT
BRANCH   1   7
ATOM      7  C   UNL d   1      32.961  18.745 -23.082  0.00  0.00     0.227 C 
ATOM      8  O   UNL d   1      33.241  18.219 -22.512  0.00  0.00    -0.279 OA
BRANCH   7   9
ATOM      9  S   UNL d   1      32.619  18.465 -23.779  0.00  0.00    -0.020 SA
BRANCH   9  10
ATOM     10  C   UNL d   1      32.456  17.662 -23.858  0.00  0.00     0.143 A 
ATOM     11  N   UNL d   1      33.019  17.050 -23.846  0.00  0.00    -0.230 NA
ATOM     12  C   UNL d   1      32.609  16.338 -23.944  0.00  0.00     0.107 A 
ATOM     13  C   UNL d   1      31.807  16.504 -24.016  0.00  0.00     0.058 A 
ATOM     14  S   UNL d   1      31.718  17.318 -23.962  0.00  0.00    -0.059 SA
ENDBRANCH   9  10
ENDBRANCH   7   9
ENDBRANCH   1   7
BRANCH   3  15
ATOM     15  O   UNL d   1      32.893  20.949 -21.294  0.00  0.00    -0.326 OA
ATOM     16  C   UNL d   1      33.221  20.526 -20.666  0.00  0.00     0.181 C 
ENDBRANCH   3  15
BRANCH   4  17
ATOM     17  O   UNL d   1      33.207  21.991 -22.567  0.00  0.00    -0.326 OA
ATOM     18  C   UNL d   1      33.241  22.511 -23.207  0.00  0.00     0.181 C 
ENDBRANCH   4  17
TORSDOF 5
ENDMDL
MODEL 4
REMARK VINA RESULT:      -1.5      1.336      1.771
REMARK  5 active torsions:
REMARK  status: ('A' for Active; 'I' for Inactive)
REMARK    1  A    between atoms: C_2  and  S_1 
REMARK    2  A    between atoms: C_3  and  S_1 
REMARK    3  A    between atoms: C_5  and  C_3 
REMARK    4  A    between atoms: O_13  and  C_8 
REMARK    5  A    between atoms: O_14  and  C_10 
ROOT
ATOM      1  C   UNL d   1      32.291  18.131 -24.405  0.00  0.00     0.048 A 
ATOM      2  C   UNL d   1      32.608  18.428 -23.709  0.00  0.00     0.030 A 
ATOM      3  C   UNL d   1      32.927  19.193 -23.699  0.00  0.00     0.116 A 
ATOM      4  C   UNL d   1      32.926  19.653 -24.384  0.00  0.00     0.116 A 
ATOM      5  C   UNL d   1      32.285  18.585 -25.094  0.00  0.00     0.006 A 
ATOM      6  C   UNL d   1      32.602  19.343 -25.084  0.00  0.00     0.026 A 
ENDROOT
BRANCH   1   7
ATOM      7  C   UNL d   1      31.972  17.367 -24.415  0.00  0.00     0.227 C 
ATOM      8  O   UNL d   1      32.465  16.717 -24.290  0.00  0.00    -0.279 OA
BRANCH   7   9
ATOM      9  S   UNL d   1      31.165  17.261 -24.549  0.00  0.00    -0.020 SA
BRANCH   9  10
ATOM     10  C   UNL d   1      30.784  16.598 -24.243  0.00  0.00     0.143 A 
ATOM     11  N   UNL d   1      30.886  16.291 -23.476  0.00  0.00    -0.230 NA
ATOM     12  C   UNL d   1      30.399  15.626 -23.411  0.00  0.00     0.107 A 
ATOM     13  C   UNL d   1      30.002  15.521 -24.123  0.00  0.00     0.058 A 
ATOM     14  S   UNL d   1      30.242  16.119 -24.631  0.00  0.00    -0.059 SA
ENDBRANCH   9  10
ENDBRANCH   7   9
ENDBRANCH   1   7
BRANCH   3  15
ATOM     15  O   UNL d   1      33.240  19.468 -22.989  0.00  0.00    -0.326 OA
ATOM     16  C   UNL d   1      32.878  19.260 -22.276  0.00  0.00     0.181 C 
ENDBRANCH   3  15
BRANCH   4  17
ATOM     17  O   UNL d   1      33.241  20.408 -24.375  0.00  0.00    -0.326 OA
ATOM     18  C   UNL d   1      33.155  20.902 -25.030  0.00  0.00     0.181 C 
ENDBRANCH   4  17
TORSDOF 5
ENDMDL
MODEL 5
REMARK VINA RESULT:      -1.3      2.370      4.012
REMARK  5 active torsions:
REMARK  status: ('A' for Active; 'I' for Inactive)
REMARK    1  A    between atoms: C_2  and  S_1 
REMARK    2  A    between atoms: C_3  and  S_1 
REMARK    3  A    between atoms: C_5  and  C_3 
REMARK    4  A    between atoms: O_13  and  C_8 
REMARK    5  A    between atoms: O_14  and  C_10 
ROOT
ATOM      1  C   UNL d   1      32.230  17.828 -24.075  0.00  0.00     0.048 A 
ATOM      2  C   UNL d   1      32.494  17.058 -23.965  0.00  0.00     0.030 A 
ATOM      3  C   UNL d   1      31.999  16.424 -24.160  0.00  0.00     0.116 A 
ATOM      4  C   UNL d   1      31.245  16.564 -24.464  0.00  0.00     0.116 A 
ATOM      5  C   UNL d   1      31.477  17.977 -24.378  0.00  0.00     0.006 A 
ATOM      6  C   UNL d   1      30.986  17.347 -24.572  0.00  0.00     0.026 A 
ENDROOT
BRANCH   1   7
ATOM      7  C   UNL d   1      32.725  18.462 -23.879  0.00  0.00     0.227 C 
ATOM      8  O   UNL d   1      33.061  18.918 -24.479  0.00  0.00    -0.279 OA
BRANCH   7   9
ATOM      9  S   UNL d   1      32.880  18.632 -23.087  0.00  0.00    -0.020 SA
BRANCH   9  10
ATOM     10  C   UNL d   1      33.019  19.411 -22.858  0.00  0.00     0.143 A 
ATOM     11  N   UNL d   1      33.114  20.058 -23.372  0.00  0.00    -0.230 NA
ATOM     12  C   UNL d   1      33.241  20.728 -22.904  0.00  0.00     0.107 A 
ATOM     13  C   UNL d   1      33.225  20.502 -22.113  0.00  0.00     0.058 A 
ATOM     14  S   UNL d   1      33.088  19.693 -22.090  0.00  0.00    -0.059 SA
ENDBRANCH   9  10
ENDBRANCH   7   9
ENDBRANCH   1   7
BRANCH   3  15
ATOM     15  O   UNL d   1      32.287  15.663 -24.041  0.00  0.00    -0.326 OA
ATOM     16  C   UNL d   1      33.048  15.469 -24.297  0.00  0.00     0.181 C 
ENDBRANCH   3  15
BRANCH   4  17
ATOM     17  O   UNL d   1      30.754  15.938 -24.657  0.00  0.00    -0.326 OA
ATOM     18  C   UNL d   1      30.036  16.075 -25.040  0.00  0.00     0.181 C 
ENDBRANCH   4  17
TORSDOF 5
ENDMDL
MODEL 6
REMARK VINA RESULT:      -1.0      1.826      3.956
REMARK  5 active torsions:
REMARK  status: ('A' for Active; 'I' for Inactive)
REMARK    1  A    between atoms: C_2  and  S_1 
REMARK    2  A    between atoms: C_3  and  S_1 
REMARK    3  A    between atoms: C_5  and  C_3 
REMARK    4  A    between atoms: O_13  and  C_8 
REMARK    5  A    between atoms: O_14  and  C_10 
ROOT
ATOM      1  C   UNL d   1      30.504  17.080 -24.505  0.00  0.00     0.048 A 
ATOM      2  C   UNL d   1      30.451  16.449 -23.982  0.00  0.00     0.030 A 
ATOM      3  C   UNL d   1      29.719  16.083 -23.855  0.00  0.00     0.116 A 
ATOM      4  C   UNL d   1      29.047  16.350 -24.252  0.00  0.00     0.116 A 
ATOM      5  C   UNL d   1      29.837  17.353 -24.906  0.00  0.00     0.006 A 
ATOM      6  C   UNL d   1      29.111  16.989 -24.780  0.00  0.00     0.026 A 
ENDROOT
BRANCH   1   7
ATOM      7  C   UNL d   1      31.236  17.445 -24.631  0.00  0.00     0.227 C 
ATOM      8  O   UNL d   1      31.880  16.994 -24.882  0.00  0.00    -0.279 OA
BRANCH   7   9
ATOM      9  S   UNL d   1      31.316  18.257 -24.506  0.00  0.00    -0.020 SA
BRANCH   9  10
ATOM     10  C   UNL d   1      32.067  18.583 -24.417  0.00  0.00     0.143 A 
ATOM     11  N   UNL d   1      32.535  18.541 -23.730  0.00  0.00    -0.230 NA
ATOM     12  C   UNL d   1      33.241  18.942 -23.889  0.00  0.00     0.107 A 
ATOM     13  C   UNL d   1      33.213  19.227 -24.660  0.00  0.00     0.058 A 
ATOM     14  S   UNL d   1      32.490  19.004 -24.980  0.00  0.00    -0.059 SA
ENDBRANCH   9  10
ENDBRANCH   7   9
ENDBRANCH   1   7
BRANCH   3  15
ATOM     15  O   UNL d   1      29.692  15.454 -23.326  0.00  0.00    -0.326 OA
ATOM     16  C   UNL d   1      29.992  15.549 -22.562  0.00  0.00     0.181 C 
ENDBRANCH   3  15
BRANCH   4  17
ATOM     17  O   UNL d   1      28.323  15.989 -24.128  0.00  0.00    -0.326 OA
ATOM     18  C   UNL d   1      27.860  15.753 -24.769  0.00  0.00     0.181 C 
ENDBRANCH   4  17
TORSDOF 5
ENDMDL
