MODEL 1
REMARK VINA RESULT:       6.4      0.000      0.000
REMARK  1 active torsions:
REMARK  status: ('A' for Active; 'I' for Inactive)
REMARK    1  A    between atoms: C_6  and  C_3 
ROOT
ATOM      1  C   UNL d   1     -51.756  25.328  33.312  0.00  0.00     0.018 A 
ATOM      2  C   UNL d   1     -50.962  25.462  33.306  0.00  0.00     0.005 A 
ATOM      3  C   UNL d   1     -52.297  25.957  33.317  0.00  0.00     0.005 A 
ATOM      4  C   UNL d   1     -51.207  26.867  33.311  0.00  0.00     0.196 A 
ATOM      5  C   UNL d   1     -50.666  26.236  33.306  0.00  0.00     0.042 A 
ATOM      6  C   UNL d   1     -52.000  26.728  33.316  0.00  0.00     0.042 A 
ATOM      7  O   UNL d   1     -50.909  27.633  33.310  0.00  0.00    -0.287 OA
ENDROOT
BRANCH   1   8
ATOM      8  C   UNL d   1     -52.054  24.562  33.312  0.00  0.00     0.090 A 
ATOM      9  N   UNL d   1     -52.856  24.415  33.308  0.00  0.00    -0.219 NA
ATOM     10  C   UNL d   1     -52.980  23.606  33.310  0.00  0.00     0.215 A 
ATOM     11  S   UNL d   1     -52.278  23.243  33.315  0.00  0.00    -0.045 SA
ATOM     12  N   UNL d   1     -53.704  23.191  33.307  0.00  0.00    -0.120 N 
ATOM     13  C   UNL d   1     -51.681  23.826  33.317  0.00  0.00     0.058 A 
ENDBRANCH   1   8
TORSDOF 1
ENDMDL
MODEL 2
REMARK VINA RESULT:       8.2      2.202      3.099
REMARK  1 active torsions:
REMARK  status: ('A' for Active; 'I' for Inactive)
REMARK    1  A    between atoms: C_6  and  C_3 
ROOT
ATOM      1  C   UNL d   1     -51.847  24.770  33.347  0.00  0.00     0.018 A 
ATOM      2  C   UNL d   1     -51.743  23.971  33.346  0.00  0.00     0.005 A 
ATOM      3  C   UNL d   1     -52.608  25.103  33.356  0.00  0.00     0.005 A 
ATOM      4  C   UNL d   1     -53.157  23.794  33.364  0.00  0.00     0.196 A 
ATOM      5  C   UNL d   1     -52.396  23.461  33.355  0.00  0.00     0.042 A 
ATOM      6  C   UNL d   1     -53.257  24.593  33.365  0.00  0.00     0.042 A 
ATOM      7  O   UNL d   1     -53.802  23.285  33.373  0.00  0.00    -0.287 OA
ENDROOT
BRANCH   1   8
ATOM      8  C   UNL d   1     -51.202  25.280  33.338  0.00  0.00     0.090 A 
ATOM      9  N   UNL d   1     -51.297  26.090  33.332  0.00  0.00    -0.219 NA
ATOM     10  C   UNL d   1     -50.560  26.446  33.324  0.00  0.00     0.215 A 
ATOM     11  S   UNL d   1     -50.007  25.880  33.324  0.00  0.00    -0.045 SA
ATOM     12  N   UNL d   1     -50.375  27.259  33.316  0.00  0.00    -0.120 N 
ATOM     13  C   UNL d   1     -50.389  25.139  33.333  0.00  0.00     0.058 A 
ENDBRANCH   1   8
TORSDOF 1
ENDMDL
