MODEL 1
REMARK VINA RESULT:      -2.9      0.000      0.000
REMARK  6 active torsions:
REMARK  status: ('A' for Active; 'I' for Inactive)
REMARK    1  A    between atoms: C_13  and  C_4 
REMARK    2  A    between atoms: N_16  and  C_5 
REMARK    3  A    between atoms: N_11  and  C_18 
REMARK    4  A    between atoms: C_21  and  N_16 
REMARK    5  A    between atoms: C_18  and  C_19 
REMARK    6  A    between atoms: C_19  and  C_21 
ROOT
ATOM      1  N   UNL d   1      57.035  -1.167  31.434  0.00  0.00    -0.195 N 
ATOM      2  C   UNL d   1      57.053  -0.529  31.956  0.00  0.00     0.167 A 
ATOM      3  N   UNL d   1      56.452  -1.685  31.687  0.00  0.00    -0.163 NA
ATOM      4  C   UNL d   1      56.482  -0.657  32.527  0.00  0.00     0.055 A 
ATOM      5  C   UNL d   1      57.553  -1.193  30.795  0.00  0.00     0.167 A 
ATOM      6  C   UNL d   1      56.109  -1.368  32.365  0.00  0.00     0.104 A 
ATOM      7  N   UNL d   1      57.590   0.084  31.839  0.00  0.00    -0.227 NA
ATOM      8  C   UNL d   1      58.095  -0.577  30.674  0.00  0.00     0.058 A 
ATOM      9  C   UNL d   1      58.114   0.061  31.196  0.00  0.00     0.086 A 
ATOM     10  C   UNL d   1      55.499  -1.702  32.808  0.00  0.00     0.023 C 
ATOM     11  C   UNL d   1      58.654   0.682  31.082  0.00  0.00     0.021 C 
ENDROOT
BRANCH   5  12
ATOM     12  N   UNL d   1      57.534  -1.831  30.274  0.00  0.00    -0.225 NA
BRANCH  12  13
ATOM     13  C   UNL d   1      58.140  -1.934  29.727  0.00  0.00     0.102 C 
BRANCH  13  14
ATOM     14  C   UNL d   1      58.215  -2.653  29.321  0.00  0.00     0.040 C 
BRANCH  14  15
ATOM     15  C   UNL d   1      58.746  -2.720  28.696  0.00  0.00     0.083 C 
BRANCH  15  16
ATOM     16  N   UNL d   1      59.263  -3.371  28.656  0.00  0.00    -0.285 N 
ATOM     17  C   UNL d   1      59.133  -4.174  28.516  0.00  0.00     0.183 A 
ATOM     18  N   UNL d   1      59.855  -4.557  28.542  0.00  0.00    -0.222 NA
ATOM     19  C   UNL d   1      60.435  -3.998  28.697  0.00  0.00     0.120 A 
ATOM     20  C   UNL d   1      60.072  -3.264  28.768  0.00  0.00     0.102 A 
ENDBRANCH  15  16
ENDBRANCH  14  15
ENDBRANCH  13  14
ENDBRANCH  12  13
ENDBRANCH   5  12
BRANCH   4  21
ATOM     21  C   UNL d   1      56.249  -0.209  33.186  0.00  0.00     0.004 A 
ATOM     22  C   UNL d   1      56.774  -0.100  33.814  0.00  0.00     0.000 A 
ATOM     23  C   UNL d   1      56.541   0.347  34.473  0.00  0.00     0.000 A 
ATOM     24  C   UNL d   1      55.788   0.682  34.501  0.00  0.00     0.000 A 
ATOM     25  C   UNL d   1      55.263   0.570  33.869  0.00  0.00     0.000 A 
ATOM     26  C   UNL d   1      55.496   0.125  33.213  0.00  0.00     0.000 A 
ENDBRANCH   4  21
TORSDOF 6
ENDMDL
