MODEL 1
REMARK VINA RESULT:      -6.8      0.000      0.000
REMARK  6 active torsions:
REMARK  status: ('A' for Active; 'I' for Inactive)
REMARK    1  A    between atoms: C_5  and  N_1 
REMARK    2  A    between atoms: N_2  and  C_5 
REMARK    3  A    between atoms: C_12  and  C_9 
REMARK    4  A    between atoms: C_14  and  C_10 
REMARK    5  A    between atoms: O_29  and  C_20 
REMARK    6  A    between atoms: O_28  and  C_21 
ROOT
ATOM      1  N   UNL d   1      53.212  32.226  53.454  0.00  0.00    -0.211 N 
ATOM      2  N   UNL d   1      52.829  32.915  53.251  0.00  0.00    -0.164 NA
ATOM      3  C   UNL d   1      52.045  32.718  53.074  0.00  0.00     0.103 A 
ATOM      4  C   UNL d   1      52.678  31.612  53.404  0.00  0.00     0.086 A 
ATOM      5  C   UNL d   1      51.960  31.937  53.167  0.00  0.00     0.040 A 
ENDROOT
BRANCH   1   6
ATOM      6  C   UNL d   1      53.992  32.073  53.682  0.00  0.00     0.186 C 
BRANCH   6   7
ATOM      7  N   UNL d   1      54.487  32.701  53.873  0.00  0.00    -0.254 N 
ATOM      8  C   UNL d   1      54.998  33.135  53.386  0.00  0.00     0.305 A 
ATOM      9  C   UNL d   1      55.389  33.714  53.798  0.00  0.00     0.253 A 
ATOM     10  O   UNL d   1      54.632  32.570  52.928  0.00  0.00    -0.263 OA
ATOM     11  O   UNL d   1      55.938  34.252  53.504  0.00  0.00    -0.281 OA
ATOM     12  C   UNL d   1      55.122  33.654  54.585  0.00  0.00     0.060 A 
ATOM     13  C   UNL d   1      54.572  33.036  54.631  0.00  0.00     0.072 A 
ATOM     14  C   UNL d   1      55.318  34.094  55.270  0.00  0.00     0.005 A 
ATOM     15  C   UNL d   1      54.209  32.849  55.362  0.00  0.00     0.018 A 
ATOM     16  C   UNL d   1      54.407  33.286  56.029  0.00  0.00     0.002 A 
ATOM     17  C   UNL d   1      54.957  33.904  55.984  0.00  0.00     0.000 A 
ENDBRANCH   6   7
ENDBRANCH   1   6
BRANCH   4  18
ATOM     18  C   UNL d   1      52.792  30.816  53.552  0.00  0.00     0.018 A 
ATOM     19  C   UNL d   1      52.778  30.511  54.319  0.00  0.00     0.004 A 
ATOM     20  C   UNL d   1      52.896  29.695  54.463  0.00  0.00     0.024 A 
ATOM     21  C   UNL d   1      53.027  29.187  53.835  0.00  0.00     0.094 A 
ATOM     22  C   UNL d   1      53.043  29.487  53.060  0.00  0.00     0.024 A 
ATOM     23  C   UNL d   1      52.927  30.291  52.916  0.00  0.00     0.004 A 
BRANCH  21  24
ATOM     24  O   UNL d   1      53.144  28.379  53.971  0.00  0.00    -0.328 OA
ATOM     25  C   UNL d   1      53.531  28.127  54.661  0.00  0.00     0.181 C 
ENDBRANCH  21  24
ENDBRANCH   4  18
BRANCH   3  26
ATOM     26  C   UNL d   1      51.464  33.260  52.842  0.00  0.00     0.019 A 
ATOM     27  C   UNL d   1      50.857  33.453  53.377  0.00  0.00     0.004 A 
ATOM     28  C   UNL d   1      50.278  33.984  53.163  0.00  0.00     0.024 A 
ATOM     29  C   UNL d   1      50.316  34.310  52.424  0.00  0.00     0.094 A 
ATOM     30  C   UNL d   1      50.902  34.127  51.901  0.00  0.00     0.024 A 
ATOM     31  C   UNL d   1      51.482  33.595  52.114  0.00  0.00     0.004 A 
BRANCH  29  32
ATOM     32  O   UNL d   1      49.737  34.840  52.213  0.00  0.00    -0.328 OA
ATOM     33  C   UNL d   1      49.186  34.646  51.621  0.00  0.00     0.181 C 
ENDBRANCH  29  32
ENDBRANCH   3  26
TORSDOF 6
ENDMDL
MODEL 2
REMARK VINA RESULT:      -6.1      0.904      3.489
REMARK  6 active torsions:
REMARK  status: ('A' for Active; 'I' for Inactive)
REMARK    1  A    between atoms: C_5  and  N_1 
REMARK    2  A    between atoms: N_2  and  C_5 
REMARK    3  A    between atoms: C_12  and  C_9 
REMARK    4  A    between atoms: C_14  and  C_10 
REMARK    5  A    between atoms: O_29  and  C_20 
REMARK    6  A    between atoms: O_28  and  C_21 
ROOT
ATOM      1  N   UNL d   1      53.044  32.473  53.346  0.00  0.00    -0.211 N 
ATOM      2  N   UNL d   1      52.326  32.550  52.971  0.00  0.00    -0.164 NA
ATOM      3  C   UNL d   1      52.056  33.319  53.111  0.00  0.00     0.103 A 
ATOM      4  C   UNL d   1      53.218  33.180  53.713  0.00  0.00     0.086 A 
ATOM      5  C   UNL d   1      52.593  33.692  53.556  0.00  0.00     0.040 A 
ENDROOT
BRANCH   1   6
ATOM      6  C   UNL d   1      53.573  31.840  53.404  0.00  0.00     0.186 C 
BRANCH   6   7
ATOM      7  N   UNL d   1      53.309  31.078  53.248  0.00  0.00    -0.254 N 
ATOM      8  C   UNL d   1      53.094  30.733  52.526  0.00  0.00     0.305 A 
ATOM      9  C   UNL d   1      52.862  29.961  52.616  0.00  0.00     0.253 A 
ATOM     10  O   UNL d   1      53.318  31.503  52.381  0.00  0.00    -0.263 OA
ATOM     11  O   UNL d   1      52.612  29.442  52.028  0.00  0.00    -0.281 OA
ATOM     12  C   UNL d   1      52.928  29.796  53.430  0.00  0.00     0.060 A 
ATOM     13  C   UNL d   1      53.200  30.478  53.816  0.00  0.00     0.072 A 
ATOM     14  C   UNL d   1      52.771  29.101  53.868  0.00  0.00     0.005 A 
ATOM     15  C   UNL d   1      53.319  30.473  54.645  0.00  0.00     0.018 A 
ATOM     16  C   UNL d   1      53.162  29.786  55.067  0.00  0.00     0.002 A 
ATOM     17  C   UNL d   1      52.890  29.104  54.681  0.00  0.00     0.000 A 
ENDBRANCH   6   7
ENDBRANCH   1   6
BRANCH   4  18
ATOM     18  C   UNL d   1      53.872  33.382  54.158  0.00  0.00     0.018 A 
ATOM     19  C   UNL d   1      54.609  33.516  53.810  0.00  0.00     0.004 A 
ATOM     20  C   UNL d   1      55.275  33.722  54.273  0.00  0.00     0.024 A 
ATOM     21  C   UNL d   1      55.200  33.794  55.084  0.00  0.00     0.094 A 
ATOM     22  C   UNL d   1      54.461  33.661  55.441  0.00  0.00     0.024 A 
ATOM     23  C   UNL d   1      53.803  33.458  54.987  0.00  0.00     0.004 A 
BRANCH  21  24
ATOM     24  O   UNL d   1      55.855  33.998  55.547  0.00  0.00    -0.328 OA
ATOM     25  C   UNL d   1      55.782  34.037  56.373  0.00  0.00     0.181 C 
ENDBRANCH  21  24
ENDBRANCH   4  18
BRANCH   3  26
ATOM     26  C   UNL d   1      51.342  33.627  52.826  0.00  0.00     0.019 A 
ATOM     27  C   UNL d   1      51.343  34.045  52.107  0.00  0.00     0.004 A 
ATOM     28  C   UNL d   1      50.650  34.355  51.813  0.00  0.00     0.024 A 
ATOM     29  C   UNL d   1      49.972  34.242  52.240  0.00  0.00     0.094 A 
ATOM     30  C   UNL d   1      49.965  33.837  52.939  0.00  0.00     0.024 A 
ATOM     31  C   UNL d   1      50.660  33.527  53.233  0.00  0.00     0.004 A 
BRANCH  29  32
ATOM     32  O   UNL d   1      49.282  34.551  51.945  0.00  0.00    -0.328 OA
ATOM     33  C   UNL d   1      49.076  34.434  51.147  0.00  0.00     0.181 C 
ENDBRANCH  29  32
ENDBRANCH   3  26
TORSDOF 6
ENDMDL
MODEL 3
REMARK VINA RESULT:      -5.7      0.995      4.165
REMARK  6 active torsions:
REMARK  status: ('A' for Active; 'I' for Inactive)
REMARK    1  A    between atoms: C_5  and  N_1 
REMARK    2  A    between atoms: N_2  and  C_5 
REMARK    3  A    between atoms: C_12  and  C_9 
REMARK    4  A    between atoms: C_14  and  C_10 
REMARK    5  A    between atoms: O_29  and  C_20 
REMARK    6  A    between atoms: O_28  and  C_21 
ROOT
ATOM      1  N   UNL d   1      52.698  32.904  53.683  0.00  0.00    -0.211 N 
ATOM      2  N   UNL d   1      53.053  32.204  53.900  0.00  0.00    -0.164 NA
ATOM      3  C   UNL d   1      52.605  31.589  53.575  0.00  0.00     0.103 A 
ATOM      4  C   UNL d   1      52.042  32.728  53.232  0.00  0.00     0.086 A 
ATOM      5  C   UNL d   1      52.002  31.909  53.176  0.00  0.00     0.040 A 
ENDROOT
BRANCH   1   6
ATOM      6  C   UNL d   1      52.888  33.693  53.840  0.00  0.00     0.186 C 
BRANCH   6   7
ATOM      7  N   UNL d   1      53.465  33.865  54.400  0.00  0.00    -0.254 N 
ATOM      8  C   UNL d   1      53.379  34.125  55.182  0.00  0.00     0.305 A 
ATOM      9  C   UNL d   1      54.096  34.230  55.547  0.00  0.00     0.253 A 
ATOM     10  O   UNL d   1      52.635  34.037  54.861  0.00  0.00    -0.263 OA
ATOM     11  O   UNL d   1      54.231  34.482  56.319  0.00  0.00    -0.281 OA
ATOM     12  C   UNL d   1      54.672  34.029  54.980  0.00  0.00     0.060 A 
ATOM     13  C   UNL d   1      54.288  33.806  54.280  0.00  0.00     0.072 A 
ATOM     14  C   UNL d   1      55.508  34.023  55.020  0.00  0.00     0.005 A 
ATOM     15  C   UNL d   1      54.734  33.574  53.610  0.00  0.00     0.018 A 
ATOM     16  C   UNL d   1      55.554  33.571  53.659  0.00  0.00     0.002 A 
ATOM     17  C   UNL d   1      55.939  33.794  54.359  0.00  0.00     0.000 A 
ENDBRANCH   6   7
ENDBRANCH   1   6
BRANCH   4  18
ATOM     18  C   UNL d   1      51.505  33.237  52.885  0.00  0.00     0.018 A 
ATOM     19  C   UNL d   1      51.663  33.609  52.165  0.00  0.00     0.004 A 
ATOM     20  C   UNL d   1      51.108  34.129  51.815  0.00  0.00     0.024 A 
ATOM     21  C   UNL d   1      50.395  34.273  52.189  0.00  0.00     0.094 A 
ATOM     22  C   UNL d   1      50.229  33.901  52.914  0.00  0.00     0.024 A 
ATOM     23  C   UNL d   1      50.775  33.389  53.260  0.00  0.00     0.004 A 
BRANCH  21  24
ATOM     24  O   UNL d   1      49.842  34.786  51.848  0.00  0.00    -0.328 OA
ATOM     25  C   UNL d   1      49.306  34.500  51.282  0.00  0.00     0.181 C 
ENDBRANCH  21  24
ENDBRANCH   4  18
BRANCH   3  26
ATOM     26  C   UNL d   1      52.776  30.784  53.663  0.00  0.00     0.019 A 
ATOM     27  C   UNL d   1      52.948  30.490  54.422  0.00  0.00     0.004 A 
ATOM     28  C   UNL d   1      53.118  29.700  54.526  0.00  0.00     0.024 A 
ATOM     29  C   UNL d   1      53.114  29.222  53.873  0.00  0.00     0.094 A 
ATOM     30  C   UNL d   1      52.949  29.502  53.134  0.00  0.00     0.024 A 
ATOM     31  C   UNL d   1      52.778  30.293  53.030  0.00  0.00     0.004 A 
BRANCH  29  32
ATOM     32  O   UNL d   1      53.284  28.435  53.979  0.00  0.00    -0.328 OA
ATOM     33  C   UNL d   1      53.639  28.174  54.684  0.00  0.00     0.181 C 
ENDBRANCH  29  32
ENDBRANCH   3  26
TORSDOF 6
ENDMDL
