MODEL 1
REMARK VINA RESULT:      69.9      0.000      0.000
REMARK  6 active torsions:
REMARK  status: ('A' for Active; 'I' for Inactive)
REMARK    1  A    between atoms: O_8  and  S_1 
REMARK    2  A    between atoms: C_9  and  S_1 
REMARK    3  A    between atoms: C_7  and  C_2 
REMARK    4  A    between atoms: C_20  and  C_7 
REMARK    5  A    between atoms: C_14  and  O_8 
REMARK    6  A    between atoms: O_24  and  C_21 
ROOT
ATOM      1  C   UNL d   1     -52.375  24.991  33.329  0.00  0.00     0.139 A 
ATOM      2  C   UNL d   1     -51.705  26.139  33.355  0.00  0.00     0.064 A 
ATOM      3  C   UNL d   1     -52.459  25.812  33.329  0.00  0.00     0.220 A 
ATOM      4  C   UNL d   1     -51.153  25.526  33.370  0.00  0.00     0.105 A 
ATOM      5  O   UNL d   1     -51.570  24.814  33.353  0.00  0.00    -0.304 OA
ATOM      6  C   UNL d   1     -50.357  25.700  33.396  0.00  0.00     0.050 A 
ATOM      7  C   UNL d   1     -51.452  26.923  33.366  0.00  0.00     0.007 A 
ATOM      8  C   UNL d   1     -50.104  26.484  33.407  0.00  0.00     0.116 A 
ATOM      9  O   UNL d   1     -53.175  26.221  33.308  0.00  0.00    -0.284 OA
ATOM     10  C   UNL d   1     -50.651  27.091  33.392  0.00  0.00     0.026 A 
ENDROOT
BRANCH   8  11
ATOM     11  O   UNL d   1     -49.300  26.655  33.433  0.00  0.00    -0.227 OA
BRANCH  11  12
ATOM     12  S   UNL d   1     -49.027  27.293  33.879  0.00  0.00     0.304 S 
ATOM     13  O   UNL d   1     -48.767  26.780  34.454  0.00  0.00    -0.193 OA
ATOM     14  O   UNL d   1     -49.285  27.821  33.306  0.00  0.00    -0.193 OA
BRANCH  12  15
ATOM     15  C   UNL d   1     -48.750  27.935  34.334  0.00  0.00     0.111 A 
ATOM     16  C   UNL d   1     -48.410  27.794  35.074  0.00  0.00     0.015 A 
ATOM     17  C   UNL d   1     -48.136  28.428  35.525  0.00  0.00     0.025 A 
ATOM     18  C   UNL d   1     -48.201  29.204  35.234  0.00  0.00     0.094 A 
ATOM     19  C   UNL d   1     -48.543  29.332  34.490  0.00  0.00     0.025 A 
ATOM     20  C   UNL d   1     -48.817  28.695  34.043  0.00  0.00     0.015 A 
BRANCH  18  21
ATOM     21  O   UNL d   1     -47.928  29.830  35.683  0.00  0.00    -0.328 OA
ATOM     22  C   UNL d   1     -47.137  30.043  35.647  0.00  0.00     0.181 C 
ENDBRANCH  18  21
ENDBRANCH  12  15
ENDBRANCH  11  12
ENDBRANCH   8  11
BRANCH   1  23
ATOM     23  C   UNL d   1     -52.988  24.438  33.307  0.00  0.00     0.029 C 
BRANCH  23  24
ATOM     24  C   UNL d   1     -53.202  24.020  33.988  0.00  0.00     0.021 A 
ATOM     25  C   UNL d   1     -53.991  23.987  34.206  0.00  0.00     0.099 A 
ATOM     26  N   UNL d   1     -54.217  23.576  34.878  0.00  0.00    -0.242 NA
ATOM     27  C   UNL d   1     -53.640  23.191  35.342  0.00  0.00     0.099 A 
ATOM     28  C   UNL d   1     -52.845  23.227  35.118  0.00  0.00     0.021 A 
ATOM     29  C   UNL d   1     -52.632  23.645  34.437  0.00  0.00     0.003 A 
ENDBRANCH  23  24
ENDBRANCH   1  23
TORSDOF 6
ENDMDL
MODEL 2
REMARK VINA RESULT:      70.7      1.530      2.433
REMARK  6 active torsions:
REMARK  status: ('A' for Active; 'I' for Inactive)
REMARK    1  A    between atoms: O_8  and  S_1 
REMARK    2  A    between atoms: C_9  and  S_1 
REMARK    3  A    between atoms: C_7  and  C_2 
REMARK    4  A    between atoms: C_20  and  C_7 
REMARK    5  A    between atoms: C_14  and  O_8 
REMARK    6  A    between atoms: O_24  and  C_21 
ROOT
ATOM      1  C   UNL d   1     -50.837  26.404  33.801  0.00  0.00     0.139 A 
ATOM      2  C   UNL d   1     -50.228  27.006  34.819  0.00  0.00     0.064 A 
ATOM      3  C   UNL d   1     -50.925  26.636  34.589  0.00  0.00     0.220 A 
ATOM      4  C   UNL d   1     -49.707  27.006  34.180  0.00  0.00     0.105 A 
ATOM      5  O   UNL d   1     -50.086  26.632  33.548  0.00  0.00    -0.304 OA
ATOM      6  C   UNL d   1     -48.969  27.342  34.261  0.00  0.00     0.050 A 
ATOM      7  C   UNL d   1     -50.003  27.344  35.535  0.00  0.00     0.007 A 
ATOM      8  C   UNL d   1     -48.743  27.681  34.976  0.00  0.00     0.116 A 
ATOM      9  O   UNL d   1     -51.596  26.513  35.052  0.00  0.00    -0.284 OA
ATOM     10  C   UNL d   1     -49.259  27.681  35.610  0.00  0.00     0.026 A 
ENDROOT
BRANCH   8  11
ATOM     11  O   UNL d   1     -47.997  28.019  35.053  0.00  0.00    -0.227 OA
BRANCH  11  12
ATOM     12  S   UNL d   1     -47.913  28.840  35.049  0.00  0.00     0.304 S 
ATOM     13  O   UNL d   1     -47.254  28.775  35.521  0.00  0.00    -0.193 OA
ATOM     14  O   UNL d   1     -48.577  28.918  34.572  0.00  0.00    -0.193 OA
BRANCH  12  15
ATOM     15  C   UNL d   1     -47.824  29.669  35.047  0.00  0.00     0.111 A 
ATOM     16  C   UNL d   1     -47.293  30.023  35.573  0.00  0.00     0.015 A 
ATOM     17  C   UNL d   1     -47.204  30.843  35.572  0.00  0.00     0.025 A 
ATOM     18  C   UNL d   1     -47.647  31.309  35.045  0.00  0.00     0.094 A 
ATOM     19  C   UNL d   1     -48.176  30.942  34.524  0.00  0.00     0.025 A 
ATOM     20  C   UNL d   1     -48.262  30.121  34.527  0.00  0.00     0.015 A 
BRANCH  18  21
ATOM     21  O   UNL d   1     -47.556  32.121  35.048  0.00  0.00    -0.328 OA
ATOM     22  C   UNL d   1     -47.709  32.551  34.365  0.00  0.00     0.181 C 
ENDBRANCH  18  21
ENDBRANCH  12  15
ENDBRANCH  11  12
ENDBRANCH   8  11
BRANCH   1  23
ATOM     23  C   UNL d   1     -51.400  26.012  33.342  0.00  0.00     0.029 C 
BRANCH  23  24
ATOM     24  C   UNL d   1     -51.432  25.185  33.332  0.00  0.00     0.021 A 
ATOM     25  C   UNL d   1     -50.733  24.757  33.337  0.00  0.00     0.099 A 
ATOM     26  N   UNL d   1     -50.751  23.938  33.327  0.00  0.00    -0.242 NA
ATOM     27  C   UNL d   1     -51.483  23.539  33.311  0.00  0.00     0.099 A 
ATOM     28  C   UNL d   1     -52.185  23.975  33.306  0.00  0.00     0.021 A 
ATOM     29  C   UNL d   1     -52.152  24.801  33.317  0.00  0.00     0.003 A 
ENDBRANCH  23  24
ENDBRANCH   1  23
TORSDOF 6
ENDMDL
