MODEL 1
REMARK VINA RESULT:      61.8      0.000      0.000
REMARK  3 active torsions:
REMARK  status: ('A' for Active; 'I' for Inactive)
REMARK    1  A    between atoms: C_5  and  N_1 
REMARK    2  A    between atoms: C_13  and  C_3 
REMARK    3  A    between atoms: C_4  and  C_5 
ROOT
ATOM      1  N   UNL d   1     -57.658 -98.825 -44.353  0.00  0.00    -0.286 N 
ATOM      2  N   UNL d   1     -58.989 -98.757 -44.128  0.00  0.00    -0.224 NA
ATOM      3  C   UNL d   1     -58.236 -98.786 -43.763  0.00  0.00     0.191 A 
ATOM      4  C   UNL d   1     -58.044 -98.820 -45.093  0.00  0.00     0.083 A 
ATOM      5  C   UNL d   1     -58.861 -98.778 -44.952  0.00  0.00     0.099 A 
ATOM      6  C   UNL d   1     -57.766 -98.848 -45.879  0.00  0.00     0.019 A 
ATOM      7  C   UNL d   1     -59.401 -98.765 -45.587  0.00  0.00     0.021 A 
ATOM      8  C   UNL d   1     -58.298 -98.835 -46.509  0.00  0.00     0.002 A 
ATOM      9  C   UNL d   1     -59.114 -98.793 -46.363  0.00  0.00     0.002 A 
ENDROOT
BRANCH   1  10
ATOM     10  C   UNL d   1     -56.884 -98.856 -44.070  0.00  0.00     0.082 C 
BRANCH  10  11
ATOM     11  C   UNL d   1     -56.418 -99.515 -44.222  0.00  0.00     0.018 A 
ATOM     12  C   UNL d   1     -55.797 -99.465 -44.768  0.00  0.00     0.001 A 
ATOM     13  C   UNL d   1     -55.332-100.123 -44.921  0.00  0.00     0.000 A 
ATOM     14  C   UNL d   1     -55.648 -98.756 -45.155  0.00  0.00     0.000 C 
ATOM     15  C   UNL d   1     -54.712-100.073 -45.465  0.00  0.00     0.000 C 
ATOM     16  C   UNL d   1     -55.480-100.833 -44.533  0.00  0.00     0.000 A 
ATOM     17  C   UNL d   1     -56.102-100.881 -43.988  0.00  0.00     0.000 A 
ATOM     18  C   UNL d   1     -56.568-100.221 -43.836  0.00  0.00     0.001 A 
ATOM     19  C   UNL d   1     -56.263-101.583 -43.593  0.00  0.00     0.000 C 
ATOM     20  C   UNL d   1     -57.185-100.262 -43.297  0.00  0.00     0.000 C 
ENDBRANCH  10  11
ENDBRANCH   1  10
BRANCH   3  21
ATOM     21  C   UNL d   1     -58.098 -98.777 -42.951  0.00  0.00     0.271 C 
ATOM     22  O   UNL d   1     -58.676 -99.039 -42.429  0.00  0.00    -0.280 OA
ENDBRANCH   3  21
TORSDOF 3
ENDMDL
