MODEL 1
REMARK VINA RESULT:      -9.1      0.000      0.000
REMARK  3 active torsions:
REMARK  status: ('A' for Active; 'I' for Inactive)
REMARK    1  A    between atoms: C_4  and  C_1 
REMARK    2  A    between atoms: N_2  and  C_3 
REMARK    3  A    between atoms: C_5  and  N_2 
ROOT
ATOM      1  C   UNL d   1      53.919  32.633  54.341  0.00  0.00     0.082 A 
ATOM      2  C   UNL d   1      53.295  33.168  54.193  0.00  0.00     0.087 A 
ATOM      3  C   UNL d   1      54.531  32.843  54.846  0.00  0.00     0.008 A 
ATOM      4  C   UNL d   1      53.300  33.907  54.561  0.00  0.00     0.019 A 
ATOM      5  C   UNL d   1      54.530  33.592  55.215  0.00  0.00     0.000 A 
ATOM      6  C   UNL d   1      53.912  34.117  55.067  0.00  0.00     0.002 A 
ENDROOT
BRANCH   2   7
ATOM      7  N   UNL d   1      52.684  32.958  53.687  0.00  0.00    -0.245 NA
BRANCH   7   8
ATOM      8  C   UNL d   1      52.270  33.532  53.252  0.00  0.00     0.081 A 
ATOM      9  C   UNL d   1      51.456  33.513  53.196  0.00  0.00     0.018 A 
ATOM     10  C   UNL d   1      51.047  34.087  52.762  0.00  0.00     0.002 A 
ATOM     11  C   UNL d   1      51.046  32.920  53.573  0.00  0.00     0.002 C 
ATOM     12  C   UNL d   1      50.240  34.068  52.705  0.00  0.00     0.000 C 
ATOM     13  C   UNL d   1      51.485  34.686  52.383  0.00  0.00     0.000 A 
ATOM     14  C   UNL d   1      52.299  34.705  52.439  0.00  0.00     0.002 A 
ATOM     15  C   UNL d   1      52.713  34.126  52.878  0.00  0.00     0.019 A 
ENDBRANCH   7   8
ENDBRANCH   2   7
BRANCH   1  16
ATOM     16  C   UNL d   1      53.914  31.895  53.973  0.00  0.00     0.212 C 
ATOM     17  O   UNL d   1      53.528  31.259  54.320  0.00  0.00    -0.644 OA
ATOM     18  O   UNL d   1      54.294  31.784  53.257  0.00  0.00    -0.644 OA
ENDBRANCH   1  16
TORSDOF 3
ENDMDL
MODEL 2
REMARK VINA RESULT:      -8.9      1.669      3.292
REMARK  3 active torsions:
REMARK  status: ('A' for Active; 'I' for Inactive)
REMARK    1  A    between atoms: C_4  and  C_1 
REMARK    2  A    between atoms: N_2  and  C_3 
REMARK    3  A    between atoms: C_5  and  N_2 
ROOT
ATOM      1  C   UNL d   1      52.565  31.690  53.087  0.00  0.00     0.082 A 
ATOM      2  C   UNL d   1      53.206  31.881  53.586  0.00  0.00     0.087 A 
ATOM      3  C   UNL d   1      52.467  30.921  52.818  0.00  0.00     0.008 A 
ATOM      4  C   UNL d   1      53.739  31.290  53.805  0.00  0.00     0.019 A 
ATOM      5  C   UNL d   1      53.009  30.327  53.042  0.00  0.00     0.000 A 
ATOM      6  C   UNL d   1      53.641  30.521  53.535  0.00  0.00     0.002 A 
ENDROOT
BRANCH   2   7
ATOM      7  N   UNL d   1      53.304  32.651  53.855  0.00  0.00    -0.245 NA
BRANCH   7   8
ATOM      8  C   UNL d   1      54.058  32.954  54.027  0.00  0.00     0.081 A 
ATOM      9  C   UNL d   1      54.210  33.332  54.734  0.00  0.00     0.018 A 
ATOM     10  C   UNL d   1      54.963  33.632  54.901  0.00  0.00     0.002 A 
ATOM     11  C   UNL d   1      53.610  33.411  55.278  0.00  0.00     0.002 C 
ATOM     12  C   UNL d   1      55.114  34.007  55.603  0.00  0.00     0.000 C 
ATOM     13  C   UNL d   1      55.564  33.540  54.331  0.00  0.00     0.000 A 
ATOM     14  C   UNL d   1      55.411  33.162  53.624  0.00  0.00     0.002 A 
ATOM     15  C   UNL d   1      54.651  32.858  53.454  0.00  0.00     0.019 A 
ENDBRANCH   7   8
ENDBRANCH   2   7
BRANCH   1  16
ATOM     16  C   UNL d   1      52.032  32.281  52.868  0.00  0.00     0.212 C 
ATOM     17  O   UNL d   1      51.358  32.422  53.316  0.00  0.00    -0.644 OA
ATOM     18  O   UNL d   1      52.167  32.737  52.202  0.00  0.00    -0.644 OA
ENDBRANCH   1  16
TORSDOF 3
ENDMDL
MODEL 3
REMARK VINA RESULT:      -8.8      0.989      1.963
REMARK  3 active torsions:
REMARK  status: ('A' for Active; 'I' for Inactive)
REMARK    1  A    between atoms: C_4  and  C_1 
REMARK    2  A    between atoms: N_2  and  C_3 
REMARK    3  A    between atoms: C_5  and  N_2 
ROOT
ATOM      1  C   UNL d   1      53.719  31.967  53.790  0.00  0.00     0.082 A 
ATOM      2  C   UNL d   1      53.070  32.228  53.335  0.00  0.00     0.087 A 
ATOM      3  C   UNL d   1      53.909  31.169  53.819  0.00  0.00     0.008 A 
ATOM      4  C   UNL d   1      52.621  31.675  52.917  0.00  0.00     0.019 A 
ATOM      5  C   UNL d   1      53.452  30.615  53.394  0.00  0.00     0.000 A 
ATOM      6  C   UNL d   1      52.810  30.877  52.946  0.00  0.00     0.002 A 
ENDROOT
BRANCH   2   7
ATOM      7  N   UNL d   1      52.880  33.026  53.306  0.00  0.00    -0.245 NA
BRANCH   7   8
ATOM      8  C   UNL d   1      52.102  33.279  53.162  0.00  0.00     0.081 A 
ATOM      9  C   UNL d   1      51.941  33.861  52.613  0.00  0.00     0.018 A 
ATOM     10  C   UNL d   1      51.165  34.109  52.474  0.00  0.00     0.002 A 
ATOM     11  C   UNL d   1      52.557  34.198  52.202  0.00  0.00     0.002 C 
ATOM     12  C   UNL d   1      51.006  34.687  51.929  0.00  0.00     0.000 C 
ATOM     13  C   UNL d   1      50.549  33.752  52.905  0.00  0.00     0.000 A 
ATOM     14  C   UNL d   1      50.709  33.170  53.454  0.00  0.00     0.002 A 
ATOM     15  C   UNL d   1      51.494  32.918  53.597  0.00  0.00     0.019 A 
ENDBRANCH   7   8
ENDBRANCH   2   7
BRANCH   1  16
ATOM     16  C   UNL d   1      54.168  32.520  54.208  0.00  0.00     0.212 C 
ATOM     17  O   UNL d   1      53.987  32.698  54.989  0.00  0.00    -0.644 OA
ATOM     18  O   UNL d   1      54.799  32.899  53.851  0.00  0.00    -0.644 OA
ENDBRANCH   1  16
TORSDOF 3
ENDMDL
MODEL 4
REMARK VINA RESULT:      -8.7      1.676      2.872
REMARK  3 active torsions:
REMARK  status: ('A' for Active; 'I' for Inactive)
REMARK    1  A    between atoms: C_4  and  C_1 
REMARK    2  A    between atoms: N_2  and  C_3 
REMARK    3  A    between atoms: C_5  and  N_2 
ROOT
ATOM      1  C   UNL d   1      52.544  34.475  53.564  0.00  0.00     0.082 A 
ATOM      2  C   UNL d   1      52.817  33.709  53.755  0.00  0.00     0.087 A 
ATOM      3  C   UNL d   1      52.723  35.109  54.054  0.00  0.00     0.008 A 
ATOM      4  C   UNL d   1      53.266  33.598  54.438  0.00  0.00     0.019 A 
ATOM      5  C   UNL d   1      53.177  34.990  54.743  0.00  0.00     0.000 A 
ATOM      6  C   UNL d   1      53.445  34.232  54.927  0.00  0.00     0.002 A 
ENDROOT
BRANCH   2   7
ATOM      7  N   UNL d   1      52.638  33.074  53.265  0.00  0.00    -0.245 NA
BRANCH   7   8
ATOM      8  C   UNL d   1      53.083  32.373  53.291  0.00  0.00     0.081 A 
ATOM      9  C   UNL d   1      52.726  31.644  53.209  0.00  0.00     0.018 A 
ATOM     10  C   UNL d   1      53.172  30.948  53.235  0.00  0.00     0.002 A 
ATOM     11  C   UNL d   1      51.920  31.607  53.099  0.00  0.00     0.002 C 
ATOM     12  C   UNL d   1      52.818  30.224  53.153  0.00  0.00     0.000 C 
ATOM     13  C   UNL d   1      53.995  31.007  53.348  0.00  0.00     0.000 A 
ATOM     14  C   UNL d   1      54.352  31.736  53.431  0.00  0.00     0.002 A 
ATOM     15  C   UNL d   1      53.902  32.440  53.404  0.00  0.00     0.019 A 
ENDBRANCH   7   8
ENDBRANCH   2   7
BRANCH   1  16
ATOM     16  C   UNL d   1      52.095  34.586  52.881  0.00  0.00     0.212 C 
ATOM     17  O   UNL d   1      51.276  34.527  52.906  0.00  0.00    -0.644 OA
ATOM     18  O   UNL d   1      52.458  34.757  52.168  0.00  0.00    -0.644 OA
ENDBRANCH   1  16
TORSDOF 3
ENDMDL
MODEL 5
REMARK VINA RESULT:      -8.6      1.089      3.247
REMARK  3 active torsions:
REMARK  status: ('A' for Active; 'I' for Inactive)
REMARK    1  A    between atoms: C_4  and  C_1 
REMARK    2  A    between atoms: N_2  and  C_3 
REMARK    3  A    between atoms: C_5  and  N_2 
ROOT
ATOM      1  C   UNL d   1      52.322  32.207  53.080  0.00  0.00     0.082 A 
ATOM      2  C   UNL d   1      52.847  32.761  53.418  0.00  0.00     0.087 A 
ATOM      3  C   UNL d   1      51.548  32.422  52.913  0.00  0.00     0.008 A 
ATOM      4  C   UNL d   1      52.579  33.524  53.582  0.00  0.00     0.019 A 
ATOM      5  C   UNL d   1      51.283  33.195  53.081  0.00  0.00     0.000 A 
ATOM      6  C   UNL d   1      51.805  33.739  53.415  0.00  0.00     0.002 A 
ENDROOT
BRANCH   2   7
ATOM      7  N   UNL d   1      53.621  32.546  53.586  0.00  0.00    -0.245 NA
BRANCH   7   8
ATOM      8  C   UNL d   1      54.041  32.901  54.209  0.00  0.00     0.081 A 
ATOM      9  C   UNL d   1      54.785  33.214  54.093  0.00  0.00     0.018 A 
ATOM     10  C   UNL d   1      55.200  33.566  54.716  0.00  0.00     0.002 A 
ATOM     11  C   UNL d   1      55.120  33.176  53.352  0.00  0.00     0.002 C 
ATOM     12  C   UNL d   1      55.939  33.877  54.600  0.00  0.00     0.000 C 
ATOM     13  C   UNL d   1      54.840  33.595  55.467  0.00  0.00     0.000 A 
ATOM     14  C   UNL d   1      54.096  33.282  55.583  0.00  0.00     0.002 A 
ATOM     15  C   UNL d   1      53.676  32.925  54.954  0.00  0.00     0.019 A 
ENDBRANCH   7   8
ENDBRANCH   2   7
BRANCH   1  16
ATOM     16  C   UNL d   1      52.590  31.444  52.916  0.00  0.00     0.212 C 
ATOM     17  O   UNL d   1      52.933  31.269  52.191  0.00  0.00    -0.644 OA
ATOM     18  O   UNL d   1      52.517  30.849  53.473  0.00  0.00    -0.644 OA
ENDBRANCH   1  16
TORSDOF 3
ENDMDL
MODEL 6
REMARK VINA RESULT:      -8.4      1.524      2.843
REMARK  3 active torsions:
REMARK  status: ('A' for Active; 'I' for Inactive)
REMARK    1  A    between atoms: C_4  and  C_1 
REMARK    2  A    between atoms: N_2  and  C_3 
REMARK    3  A    between atoms: C_5  and  N_2 
ROOT
ATOM      1  C   UNL d   1      53.975  33.636  54.611  0.00  0.00     0.082 A 
ATOM      2  C   UNL d   1      53.515  33.018  54.290  0.00  0.00     0.087 A 
ATOM      3  C   UNL d   1      53.683  34.403  54.624  0.00  0.00     0.008 A 
ATOM      4  C   UNL d   1      52.767  33.186  53.986  0.00  0.00     0.019 A 
ATOM      5  C   UNL d   1      52.925  34.567  54.316  0.00  0.00     0.000 A 
ATOM      6  C   UNL d   1      52.475  33.953  53.999  0.00  0.00     0.002 A 
ENDROOT
BRANCH   2   7
ATOM      7  N   UNL d   1      53.808  32.250  54.276  0.00  0.00    -0.245 NA
BRANCH   7   8
ATOM      8  C   UNL d   1      53.491  31.678  53.764  0.00  0.00     0.081 A 
ATOM      9  C   UNL d   1      53.413  30.900  53.996  0.00  0.00     0.018 A 
ATOM     10  C   UNL d   1      53.097  30.334  53.483  0.00  0.00     0.002 A 
ATOM     11  C   UNL d   1      53.651  30.684  54.744  0.00  0.00     0.002 C 
ATOM     12  C   UNL d   1      53.020  29.561  53.713  0.00  0.00     0.000 C 
ATOM     13  C   UNL d   1      52.859  30.575  52.722  0.00  0.00     0.000 A 
ATOM     14  C   UNL d   1      52.936  31.353  52.490  0.00  0.00     0.002 A 
ATOM     15  C   UNL d   1      53.256  31.927  53.007  0.00  0.00     0.019 A 
ENDBRANCH   7   8
ENDBRANCH   2   7
BRANCH   1  16
ATOM     16  C   UNL d   1      54.724  33.467  54.915  0.00  0.00     0.212 C 
ATOM     17  O   UNL d   1      54.818  33.263  55.704  0.00  0.00    -0.644 OA
ATOM     18  O   UNL d   1      55.385  33.501  54.433  0.00  0.00    -0.644 OA
ENDBRANCH   1  16
TORSDOF 3
ENDMDL
