MODEL 1
REMARK VINA RESULT:     115.9      0.000      0.000
REMARK  3 active torsions:
REMARK  status: ('A' for Active; 'I' for Inactive)
REMARK    1  A    between atoms: C_12  and  C_3 
REMARK       I    between atoms: C_6  and  N_9 
REMARK    2  A    between atoms: C_7  and  C_6 
REMARK    3  A    between atoms: N_9  and  C_22 
ROOT
ATOM      1  C   UNL d   1      58.476  49.468  53.727  0.00  0.00     0.019 A 
ATOM      2  C   UNL d   1      58.293  49.701  52.956  0.00  0.00     0.003 A 
ATOM      3  C   UNL d   1      59.238  49.207  53.909  0.00  0.00     0.003 A 
ATOM      4  C   UNL d   1      59.633  49.413  52.552  0.00  0.00     0.085 A 
ATOM      5  C   UNL d   1      59.816  49.180  53.322  0.00  0.00     0.019 A 
ATOM      6  C   UNL d   1      58.872  49.674  52.369  0.00  0.00     0.019 A 
ENDROOT
BRANCH   4   7
ATOM      7  N   UNL d   1      60.209  49.385  51.967  0.00  0.00    -0.208 NA
ATOM      8  C   UNL d   1      60.153  48.842  51.360  0.00  0.00     0.279 C 
ATOM      9  O   UNL d   1      59.511  48.312  51.331  0.00  0.00    -0.265 OA
BRANCH   8  10
ATOM     10  C   UNL d   1      60.732  48.814  50.772  0.00  0.00     0.060 A 
ATOM     11  C   UNL d   1      61.204  48.147  50.689  0.00  0.00     0.031 A 
ATOM     12  C   UNL d   1      61.783  48.120  50.101  0.00  0.00     0.119 A 
ATOM     13  O   UNL d   1      62.328  47.532  49.893  0.00  0.00    -0.300 OA
ATOM     14  C   UNL d   1      61.889  48.759  49.597  0.00  0.00     0.119 A 
ATOM     15  C   UNL d   1      62.773  47.810  49.257  0.00  0.00     0.304 A 
ATOM     16  O   UNL d   1      62.503  48.572  49.072  0.00  0.00    -0.300 OA
ATOM     17  C   UNL d   1      61.416  49.431  49.678  0.00  0.00     0.026 A 
ATOM     18  C   UNL d   1      60.837  49.459  50.266  0.00  0.00     0.007 A 
ENDBRANCH   8  10
ENDBRANCH   4   7
BRANCH   1  19
ATOM     19  C   UNL d   1      57.897  49.496  54.314  0.00  0.00     0.101 A 
ATOM     20  N   UNL d   1      57.090  49.409  54.238  0.00  0.00    -0.221 NA
ATOM     21  C   UNL d   1      56.752  49.483  54.995  0.00  0.00     0.179 A 
ATOM     22  N   UNL d   1      57.341  49.613  55.530  0.00  0.00    -0.282 N 
ATOM     23  S   UNL d   1      56.034  49.471  55.395  0.00  0.00    -0.048 SA
ATOM     24  C   UNL d   1      58.059  49.623  55.118  0.00  0.00     0.101 A 
ATOM     25  C   UNL d   1      56.992  49.684  56.272  0.00  0.00     0.089 A 
ATOM     26  C   UNL d   1      56.201  49.598  56.192  0.00  0.00     0.057 A 
ENDBRANCH   1  19
TORSDOF 3
ENDMDL
