MODEL 1
REMARK VINA RESULT:      65.2      0.000      0.000
REMARK  5 active torsions:
REMARK  status: ('A' for Active; 'I' for Inactive)
REMARK    1  A    between atoms: C_6  and  N_1 
REMARK    2  A    between atoms: C_7  and  C_2 
REMARK    3  A    between atoms: C_14  and  C_5 
REMARK    4  A    between atoms: C_11  and  C_7 
REMARK    5  A    between atoms: O_26  and  C_23 
ROOT
ATOM      1  N   UNL d   1      44.123 -15.518  44.660  0.00  0.00    -0.250 N 
ATOM      2  C   UNL d   1      45.226 -16.217  44.428  0.00  0.00     0.099 A 
ATOM      3  C   UNL d   1      43.954 -16.333  44.748  0.00  0.00     0.305 A 
ATOM      4  C   UNL d   1      44.598 -16.752  44.614  0.00  0.00     0.256 A 
ATOM      5  C   UNL d   1      44.908 -15.449  44.462  0.00  0.00     0.075 A 
ATOM      6  O   UNL d   1      43.217 -16.664  44.950  0.00  0.00    -0.263 OA
ATOM      7  O   UNL d   1      44.640 -17.591  44.652  0.00  0.00    -0.281 OA
ENDROOT
BRANCH   5   8
ATOM      8  C   UNL d   1      45.310 -14.753  44.323  0.00  0.00     0.017 A 
ATOM      9  C   UNL d   1      45.268 -14.409  43.576  0.00  0.00     0.004 A 
ATOM     10  C   UNL d   1      45.685 -13.689  43.436  0.00  0.00     0.024 A 
ATOM     11  C   UNL d   1      46.127 -13.336  44.037  0.00  0.00     0.094 A 
ATOM     12  C   UNL d   1      46.158 -13.696  44.782  0.00  0.00     0.024 A 
ATOM     13  C   UNL d   1      45.749 -14.405  44.926  0.00  0.00     0.004 A 
BRANCH  11  14
ATOM     14  O   UNL d   1      46.530 -12.640  43.900  0.00  0.00    -0.328 OA
ATOM     15  C   UNL d   1      46.217 -12.083  43.383  0.00  0.00     0.181 C 
ENDBRANCH  11  14
ENDBRANCH   5   8
BRANCH   2  16
ATOM     16  C   UNL d   1      46.007 -16.416  44.247  0.00  0.00     0.206 C 
ATOM     17  O   UNL d   1      46.619 -15.857  44.409  0.00  0.00    -0.286 OA
BRANCH  16  18
ATOM     18  C   UNL d   1      46.171 -17.141  43.918  0.00  0.00     0.069 A 
ATOM     19  S   UNL d   1      46.001 -17.395  43.128  0.00  0.00    -0.083 SA
ATOM     20  C   UNL d   1      46.258 -18.145  43.046  0.00  0.00     0.035 A 
ATOM     21  C   UNL d   1      46.593 -18.398  43.751  0.00  0.00     0.008 A 
ATOM     22  C   UNL d   1      46.538 -17.761  44.306  0.00  0.00     0.010 A 
ENDBRANCH  16  18
ENDBRANCH   2  16
BRANCH   1  23
ATOM     23  C   UNL d   1      43.560 -14.916  44.764  0.00  0.00     0.204 A 
ATOM     24  S   UNL d   1      42.739 -15.070  44.802  0.00  0.00    -0.025 SA
ATOM     25  C   UNL d   1      42.357 -14.346  44.907  0.00  0.00     0.161 A 
ATOM     26  N   UNL d   1      42.932 -13.763  44.933  0.00  0.00    -0.137 NA
ATOM     27  N   UNL d   1      43.681 -14.114  44.845  0.00  0.00    -0.122 NA
ENDBRANCH   1  23
TORSDOF 5
ENDMDL
MODEL 2
REMARK VINA RESULT:      66.6      6.840      8.049
REMARK  5 active torsions:
REMARK  status: ('A' for Active; 'I' for Inactive)
REMARK    1  A    between atoms: C_6  and  N_1 
REMARK    2  A    between atoms: C_7  and  C_2 
REMARK    3  A    between atoms: C_14  and  C_5 
REMARK    4  A    between atoms: C_11  and  C_7 
REMARK    5  A    between atoms: O_26  and  C_23 
ROOT
ATOM      1  N   UNL d   1      45.131 -15.823  36.987  0.00  0.00    -0.250 N 
ATOM      2  C   UNL d   1      45.147 -14.503  37.112  0.00  0.00     0.099 A 
ATOM      3  C   UNL d   1      45.926 -15.560  37.013  0.00  0.00     0.305 A 
ATOM      4  C   UNL d   1      45.944 -14.784  37.086  0.00  0.00     0.256 A 
ATOM      5  C   UNL d   1      44.653 -15.170  37.049  0.00  0.00     0.075 A 
ATOM      6  O   UNL d   1      46.605 -16.040  36.968  0.00  0.00    -0.263 OA
ATOM      7  O   UNL d   1      46.646 -14.323  37.130  0.00  0.00    -0.281 OA
ENDROOT
BRANCH   5   8
ATOM      8  C   UNL d   1      43.838 -15.168  37.048  0.00  0.00     0.017 A 
ATOM      9  C   UNL d   1      43.436 -15.274  37.759  0.00  0.00     0.004 A 
ATOM     10  C   UNL d   1      42.593 -15.272  37.754  0.00  0.00     0.024 A 
ATOM     11  C   UNL d   1      42.177 -15.166  37.049  0.00  0.00     0.094 A 
ATOM     12  C   UNL d   1      42.597 -15.062  36.343  0.00  0.00     0.024 A 
ATOM     13  C   UNL d   1      43.428 -15.063  36.342  0.00  0.00     0.004 A 
BRANCH  11  14
ATOM     14  O   UNL d   1      41.361 -15.165  37.046  0.00  0.00    -0.328 OA
ATOM     15  C   UNL d   1      40.957 -15.139  36.331  0.00  0.00     0.181 C 
ENDBRANCH  11  14
ENDBRANCH   5   8
BRANCH   2  16
ATOM     16  C   UNL d   1      44.902 -13.717  37.186  0.00  0.00     0.206 C 
ATOM     17  O   UNL d   1      44.617 -13.311  36.502  0.00  0.00    -0.286 OA
BRANCH  16  18
ATOM     18  C   UNL d   1      44.939 -13.351  37.912  0.00  0.00     0.069 A 
ATOM     19  S   UNL d   1      44.306 -12.969  38.324  0.00  0.00    -0.083 SA
ATOM     20  C   UNL d   1      44.591 -12.688  39.013  0.00  0.00     0.035 A 
ATOM     21  C   UNL d   1      45.389 -12.869  39.073  0.00  0.00     0.008 A 
ATOM     22  C   UNL d   1      45.611 -13.291  38.373  0.00  0.00     0.010 A 
ENDBRANCH  16  18
ENDBRANCH   2  16
BRANCH   1  23
ATOM     23  C   UNL d   1      44.912 -16.621  36.912  0.00  0.00     0.204 A 
ATOM     24  S   UNL d   1      45.145 -17.205  37.462  0.00  0.00    -0.025 SA
ATOM     25  C   UNL d   1      44.827 -17.924  37.208  0.00  0.00     0.161 A 
ATOM     26  N   UNL d   1      44.410 -17.780  36.518  0.00  0.00    -0.137 NA
ATOM     27  N   UNL d   1      44.460 -16.972  36.331  0.00  0.00    -0.122 NA
ENDBRANCH   1  23
TORSDOF 5
ENDMDL
