MODEL 1
REMARK VINA RESULT:      80.9      0.000      0.000
REMARK  2 active torsions:
REMARK  status: ('A' for Active; 'I' for Inactive)
REMARK    1  A    between atoms: C_3  and  C_1 
REMARK       I    between atoms: N_6  and  C_3 
REMARK    2  A    between atoms: C_16  and  N_7 
ROOT
ATOM      1  C   UNL d   1      60.874  48.781  50.936  0.00  0.00     0.270 C 
ATOM      2  N   UNL d   1      60.067  48.940  50.860  0.00  0.00    -0.269 N 
ATOM      3  N   UNL d   1      58.460  49.250  50.703  0.00  0.00    -0.301 N 
ATOM      4  O   UNL d   1      61.338  49.240  51.442  0.00  0.00    -0.266 OA
ATOM      5  C   UNL d   1      59.608  48.479  50.354  0.00  0.00     0.102 A 
ATOM      6  C   UNL d   1      59.726  49.551  51.284  0.00  0.00     0.102 A 
ATOM      7  C   UNL d   1      58.919  49.708  51.206  0.00  0.00     0.100 A 
ATOM      8  C   UNL d   1      58.804  48.632  50.274  0.00  0.00     0.100 A 
ENDROOT
BRANCH   1   9
ATOM      9  C   UNL d   1      61.215  48.163  50.506  0.00  0.00     0.120 A 
ATOM     10  C   UNL d   1      61.721  48.324  49.876  0.00  0.00     0.305 A 
ATOM     11  O   UNL d   1      62.066  47.699  49.441  0.00  0.00    -0.273 OA
ATOM     12  O   UNL d   1      61.887  49.107  49.674  0.00  0.00    -0.259 OA
ATOM     13  C   UNL d   1      61.897  46.914  49.647  0.00  0.00     0.103 A 
ATOM     14  C   UNL d   1      61.392  46.748  50.276  0.00  0.00     0.023 A 
ATOM     15  C   UNL d   1      62.238  46.296  49.217  0.00  0.00     0.025 A 
ATOM     16  C   UNL d   1      61.046  47.370  50.712  0.00  0.00     0.012 A 
ATOM     17  C   UNL d   1      61.226  45.965  50.478  0.00  0.00     0.002 A 
ATOM     18  C   UNL d   1      61.566  45.351  50.049  0.00  0.00     0.000 A 
ATOM     19  C   UNL d   1      62.071  45.517  49.420  0.00  0.00     0.002 A 
ENDBRANCH   1   9
BRANCH   3  20
ATOM     20  C   UNL d   1      57.654  49.401  50.620  0.00  0.00     0.064 A 
ATOM     21  C   UNL d   1      57.301  49.401  49.874  0.00  0.00     0.018 A 
ATOM     22  C   UNL d   1      56.494  49.552  49.795  0.00  0.00     0.002 A 
ATOM     23  C   UNL d   1      56.041  49.705  50.467  0.00  0.00     0.000 A 
ATOM     24  C   UNL d   1      56.392  49.705  51.216  0.00  0.00     0.002 A 
ATOM     25  C   UNL d   1      57.199  49.553  51.289  0.00  0.00     0.018 A 
ENDBRANCH   3  20
TORSDOF 2
ENDMDL
