MODEL 1
REMARK VINA RESULT:      -9.6      0.000      0.000
REMARK  4 active torsions:
REMARK  status: ('A' for Active; 'I' for Inactive)
REMARK    1  A    between atoms: N_8  and  S_1 
REMARK    2  A    between atoms: C_12  and  S_1 
REMARK    3  A    between atoms: C_5  and  C_9 
REMARK    4  A    between atoms: C_15  and  N_8 
ROOT
ATOM      1  C   UNL d   1      51.248  34.209  52.913  0.00  0.00     0.021 A 
ATOM      2  C   UNL d   1      52.138  33.200  53.386  0.00  0.00     0.094 A 
ATOM      3  C   UNL d   1      51.398  33.423  53.100  0.00  0.00     0.021 A 
ATOM      4  C   UNL d   1      51.832  34.787  53.006  0.00  0.00     0.002 A 
ATOM      5  C   UNL d   1      52.579  34.567  53.294  0.00  0.00     0.002 A 
ATOM      6  C   UNL d   1      52.739  33.772  53.486  0.00  0.00     0.020 A 
ENDROOT
BRANCH   2   7
ATOM      7  N   UNL d   1      52.287  32.414  53.573  0.00  0.00    -0.158 NA
BRANCH   7   8
ATOM      8  S   UNL d   1      52.678  31.932  53.031  0.00  0.00     0.285 S 
ATOM      9  O   UNL d   1      52.771  32.398  52.356  0.00  0.00    -0.198 OA
ATOM     10  O   UNL d   1      53.054  31.625  52.361  0.00  0.00    -0.198 OA
BRANCH   8  11
ATOM     11  C   UNL d   1      52.879  31.160  53.243  0.00  0.00     0.105 A 
ATOM     12  C   UNL d   1      52.375  30.538  53.060  0.00  0.00     0.013 A 
ATOM     13  C   UNL d   1      52.577  29.771  53.273  0.00  0.00     0.001 A 
ATOM     14  C   UNL d   1      53.291  29.624  53.673  0.00  0.00     0.000 A 
ATOM     15  C   UNL d   1      53.792  30.260  53.852  0.00  0.00     0.001 A 
ATOM     16  C   UNL d   1      53.587  31.019  53.639  0.00  0.00     0.013 A 
ENDBRANCH   8  11
ENDBRANCH   7   8
ENDBRANCH   2   7
BRANCH   1  17
ATOM     17  C   UNL d   1      50.505  34.432  52.626  0.00  0.00     0.118 A 
ATOM     18  N   UNL d   1      50.204  34.291  51.870  0.00  0.00    -0.059 NA
ATOM     19  C   UNL d   1      49.448  34.611  51.832  0.00  0.00     0.735 A 
ATOM     20  N   UNL d   1      48.893  34.632  51.215  0.00  0.00    -0.059 NA
ATOM     21  N   UNL d   1      49.275  34.951  52.561  0.00  0.00    -0.136 N 
ATOM     22  C   UNL d   1      48.164  34.997  51.336  0.00  0.00     0.119 A 
ATOM     23  C   UNL d   1      47.986  35.339  52.063  0.00  0.00     0.041 A 
ATOM     24  C   UNL d   1      48.536  35.318  52.674  0.00  0.00     0.100 A 
ATOM     25  C   UNL d   1      49.926  34.843  53.054  0.00  0.00     0.118 A 
ENDBRANCH   1  17
TORSDOF 4
ENDMDL
MODEL 2
REMARK VINA RESULT:      -8.6      1.886      2.460
REMARK  4 active torsions:
REMARK  status: ('A' for Active; 'I' for Inactive)
REMARK    1  A    between atoms: N_8  and  S_1 
REMARK    2  A    between atoms: C_12  and  S_1 
REMARK    3  A    between atoms: C_5  and  C_9 
REMARK    4  A    between atoms: C_15  and  N_8 
ROOT
ATOM      1  C   UNL d   1      50.049  34.654  52.628  0.00  0.00     0.021 A 
ATOM      2  C   UNL d   1      51.262  34.023  53.032  0.00  0.00     0.094 A 
ATOM      3  C   UNL d   1      50.598  34.477  53.213  0.00  0.00     0.021 A 
ATOM      4  C   UNL d   1      50.151  34.384  51.853  0.00  0.00     0.002 A 
ATOM      5  C   UNL d   1      50.819  33.927  51.667  0.00  0.00     0.002 A 
ATOM      6  C   UNL d   1      51.380  33.743  52.254  0.00  0.00     0.020 A 
ENDROOT
BRANCH   2   7
ATOM      7  N   UNL d   1      51.811  33.847  53.618  0.00  0.00    -0.158 NA
BRANCH   7   8
ATOM      8  S   UNL d   1      52.576  34.148  53.566  0.00  0.00     0.285 S 
ATOM      9  O   UNL d   1      52.519  34.794  53.054  0.00  0.00    -0.198 OA
ATOM     10  O   UNL d   1      53.248  34.594  53.380  0.00  0.00    -0.198 OA
BRANCH   8  11
ATOM     11  C   UNL d   1      53.186  33.786  53.989  0.00  0.00     0.105 A 
ATOM     12  C   UNL d   1      53.594  33.152  53.663  0.00  0.00     0.013 A 
ATOM     13  C   UNL d   1      54.200  32.794  54.085  0.00  0.00     0.001 A 
ATOM     14  C   UNL d   1      54.401  33.074  54.843  0.00  0.00     0.000 A 
ATOM     15  C   UNL d   1      53.982  33.715  55.161  0.00  0.00     0.001 A 
ATOM     16  C   UNL d   1      53.381  34.067  54.738  0.00  0.00     0.013 A 
ENDBRANCH   8  11
ENDBRANCH   7   8
ENDBRANCH   2   7
BRANCH   1  17
ATOM     17  C   UNL d   1      49.383  35.109  52.809  0.00  0.00     0.118 A 
ATOM     18  N   UNL d   1      49.267  35.571  53.483  0.00  0.00    -0.059 NA
ATOM     19  C   UNL d   1      48.528  35.923  53.429  0.00  0.00     0.735 A 
ATOM     20  N   UNL d   1      48.126  36.438  53.943  0.00  0.00    -0.059 NA
ATOM     21  N   UNL d   1      48.179  35.684  52.723  0.00  0.00    -0.136 N 
ATOM     22  C   UNL d   1      47.375  36.709  53.742  0.00  0.00     0.119 A 
ATOM     23  C   UNL d   1      47.022  36.473  53.038  0.00  0.00     0.041 A 
ATOM     24  C   UNL d   1      47.418  35.963  52.529  0.00  0.00     0.100 A 
ATOM     25  C   UNL d   1      48.704  35.180  52.337  0.00  0.00     0.118 A 
ENDBRANCH   1  17
TORSDOF 4
ENDMDL
MODEL 3
REMARK VINA RESULT:      -8.6      1.994      4.955
REMARK  4 active torsions:
REMARK  status: ('A' for Active; 'I' for Inactive)
REMARK    1  A    between atoms: N_8  and  S_1 
REMARK    2  A    between atoms: C_12  and  S_1 
REMARK    3  A    between atoms: C_5  and  C_9 
REMARK    4  A    between atoms: C_15  and  N_8 
ROOT
ATOM      1  C   UNL d   1      53.666  32.441  54.300  0.00  0.00     0.021 A 
ATOM      2  C   UNL d   1      53.151  33.770  54.260  0.00  0.00     0.094 A 
ATOM      3  C   UNL d   1      53.041  32.959  54.168  0.00  0.00     0.021 A 
ATOM      4  C   UNL d   1      54.411  32.721  54.526  0.00  0.00     0.002 A 
ATOM      5  C   UNL d   1      54.525  33.539  54.620  0.00  0.00     0.002 A 
ATOM      6  C   UNL d   1      53.897  34.070  54.488  0.00  0.00     0.020 A 
ENDROOT
BRANCH   2   7
ATOM      7  N   UNL d   1      52.526  34.287  54.128  0.00  0.00    -0.158 NA
BRANCH   7   8
ATOM      8  S   UNL d   1      52.406  34.599  53.375  0.00  0.00     0.285 S 
ATOM      9  O   UNL d   1      53.125  34.949  53.169  0.00  0.00    -0.198 OA
ATOM     10  O   UNL d   1      52.493  34.975  52.643  0.00  0.00    -0.198 OA
BRANCH   8  11
ATOM     11  C   UNL d   1      51.670  34.512  53.011  0.00  0.00     0.105 A 
ATOM     12  C   UNL d   1      51.623  34.234  52.240  0.00  0.00     0.013 A 
ATOM     13  C   UNL d   1      50.890  34.148  51.880  0.00  0.00     0.001 A 
ATOM     14  C   UNL d   1      50.196  34.344  52.295  0.00  0.00     0.000 A 
ATOM     15  C   UNL d   1      50.256  34.624  53.073  0.00  0.00     0.001 A 
ATOM     16  C   UNL d   1      50.986  34.707  53.427  0.00  0.00     0.013 A 
ENDBRANCH   8  11
ENDBRANCH   7   8
ENDBRANCH   2   7
BRANCH   1  17
ATOM     17  C   UNL d   1      53.556  31.627  54.208  0.00  0.00     0.118 A 
ATOM     18  N   UNL d   1      53.547  31.057  54.806  0.00  0.00    -0.059 NA
ATOM     19  C   UNL d   1      53.421  30.324  54.460  0.00  0.00     0.735 A 
ATOM     20  N   UNL d   1      53.361  29.564  54.791  0.00  0.00    -0.059 NA
ATOM     21  N   UNL d   1      53.351  30.430  53.647  0.00  0.00    -0.136 N 
ATOM     22  C   UNL d   1      53.231  28.915  54.301  0.00  0.00     0.119 A 
ATOM     23  C   UNL d   1      53.160  29.017  53.487  0.00  0.00     0.041 A 
ATOM     24  C   UNL d   1      53.219  29.768  53.159  0.00  0.00     0.100 A 
ATOM     25  C   UNL d   1      53.434  31.234  53.488  0.00  0.00     0.118 A 
ENDBRANCH   1  17
TORSDOF 4
ENDMDL
MODEL 4
REMARK VINA RESULT:      -8.2      1.469      4.995
REMARK  4 active torsions:
REMARK  status: ('A' for Active; 'I' for Inactive)
REMARK    1  A    between atoms: N_8  and  S_1 
REMARK    2  A    between atoms: C_12  and  S_1 
REMARK    3  A    between atoms: C_5  and  C_9 
REMARK    4  A    between atoms: C_15  and  N_8 
ROOT
ATOM      1  C   UNL d   1      52.446  33.220  53.015  0.00  0.00     0.021 A 
ATOM      2  C   UNL d   1      51.540  34.208  52.528  0.00  0.00     0.094 A 
ATOM      3  C   UNL d   1      51.760  33.418  52.608  0.00  0.00     0.021 A 
ATOM      4  C   UNL d   1      52.925  33.804  53.351  0.00  0.00     0.002 A 
ATOM      5  C   UNL d   1      52.707  34.602  53.273  0.00  0.00     0.002 A 
ATOM      6  C   UNL d   1      52.013  34.811  52.862  0.00  0.00     0.020 A 
ENDROOT
BRANCH   2   7
ATOM      7  N   UNL d   1      50.854  34.405  52.121  0.00  0.00    -0.158 NA
BRANCH   7   8
ATOM      8  S   UNL d   1      50.142  34.475  52.530  0.00  0.00     0.285 S 
ATOM      9  O   UNL d   1      50.319  34.267  53.309  0.00  0.00    -0.198 OA
ATOM     10  O   UNL d   1      49.550  34.482  53.108  0.00  0.00    -0.198 OA
BRANCH   8  11
ATOM     11  C   UNL d   1      49.463  34.714  52.126  0.00  0.00     0.105 A 
ATOM     12  C   UNL d   1      48.964  35.277  52.456  0.00  0.00     0.013 A 
ATOM     13  C   UNL d   1      48.289  35.513  52.053  0.00  0.00     0.001 A 
ATOM     14  C   UNL d   1      48.110  35.183  51.311  0.00  0.00     0.000 A 
ATOM     15  C   UNL d   1      48.621  34.615  50.988  0.00  0.00     0.001 A 
ATOM     16  C   UNL d   1      49.290  34.384  51.392  0.00  0.00     0.013 A 
ENDBRANCH   8  11
ENDBRANCH   7   8
ENDBRANCH   2   7
BRANCH   1  17
ATOM     17  C   UNL d   1      52.667  32.427  53.094  0.00  0.00     0.118 A 
ATOM     18  N   UNL d   1      52.486  31.809  52.578  0.00  0.00    -0.059 NA
ATOM     19  C   UNL d   1      52.818  31.120  52.876  0.00  0.00     0.735 A 
ATOM     20  N   UNL d   1      52.813  30.340  52.590  0.00  0.00    -0.059 NA
ATOM     21  N   UNL d   1      53.207  31.304  53.578  0.00  0.00    -0.136 N 
ATOM     22  C   UNL d   1      53.200  29.749  53.013  0.00  0.00     0.119 A 
ATOM     23  C   UNL d   1      53.590  29.928  53.716  0.00  0.00     0.041 A 
ATOM     24  C   UNL d   1      53.595  30.699  53.999  0.00  0.00     0.100 A 
ATOM     25  C   UNL d   1      53.115  32.111  53.716  0.00  0.00     0.118 A 
ENDBRANCH   1  17
TORSDOF 4
ENDMDL
