MODEL 1
REMARK VINA RESULT:       8.4      0.000      0.000
REMARK  4 active torsions:
REMARK  status: ('A' for Active; 'I' for Inactive)
REMARK    1  A    between atoms: C_9  and  C_3 
REMARK    2  A    between atoms: C_6  and  C_10 
REMARK    3  A    between atoms: S_7  and  C_9 
REMARK    4  A    between atoms: C_10  and  S_7 
ROOT
ATOM      1  N   UNL d   1      14.231  11.790  -2.462  0.00  0.00    -0.218 NA
ATOM      2  N   UNL d   1      13.018  11.805  -1.941  0.00  0.00    -0.218 NA
ATOM      3  C   UNL d   1      13.432  11.796  -2.656  0.00  0.00     0.206 A 
ATOM      4  C   UNL d   1      14.309  11.795  -1.659  0.00  0.00     0.101 A 
ATOM      5  C   UNL d   1      13.551  11.805  -1.333  0.00  0.00     0.101 A 
ATOM      6  C   UNL d   1      14.942  11.793  -1.154  0.00  0.00     0.021 A 
ATOM      7  C   UNL d   1      13.454  11.812  -0.515  0.00  0.00     0.021 A 
ATOM      8  C   UNL d   1      14.872  11.799  -0.346  0.00  0.00     0.002 A 
ATOM      9  C   UNL d   1      14.114  11.809  -0.020  0.00  0.00     0.002 A 
ENDROOT
BRANCH   3  10
ATOM     10  C   UNL d   1      13.107  11.793  -3.414  0.00  0.00    -0.027 C 
BRANCH  10  11
ATOM     11  S   UNL d   1      12.782  11.791  -4.172  0.00  0.00    -0.041 SA
BRANCH  11  12
ATOM     12  C   UNL d   1      13.275  11.820  -4.834  0.00  0.00     0.043 C 
BRANCH  12  13
ATOM     13  C   UNL d   1      13.027  12.212  -5.516  0.00  0.00     0.007 C 
ATOM     14  C   UNL d   1      12.979  13.039  -5.522  0.00  0.00     0.001 C 
ATOM     15  C   UNL d   1      12.829  11.779  -6.190  0.00  0.00     0.001 C 
ENDBRANCH  12  13
ENDBRANCH  11  12
ENDBRANCH  10  11
ENDBRANCH   3  10
TORSDOF 4
ENDMDL
