MODEL 1
REMARK VINA RESULT:      48.7      0.000      0.000
REMARK  4 active torsions:
REMARK  status: ('A' for Active; 'I' for Inactive)
REMARK    1  A    between atoms: S_11  and  C_2 
REMARK    2  A    between atoms: C_7  and  C_3 
REMARK    3  A    between atoms: C_17  and  S_11 
REMARK    4  A    between atoms: C_13  and  C_17 
ROOT
ATOM      1  C   UNL d   1      59.454  49.510  51.214  0.00  0.00     0.092 A 
ATOM      2  C   UNL d   1      60.261  49.492  51.309  0.00  0.00     0.124 A 
ATOM      3  C   UNL d   1      59.126  49.434  50.451  0.00  0.00     0.017 A 
ATOM      4  N   UNL d   1      60.754  49.400  50.644  0.00  0.00    -0.201 NA
ATOM      5  C   UNL d   1      60.425  49.325  49.891  0.00  0.00     0.280 A 
ATOM      6  C   UNL d   1      58.961  49.602  51.875  0.00  0.00     0.103 C 
ATOM      7  N   UNL d   1      58.473  49.694  52.541  0.00  0.00    -0.191 NA
ATOM      8  C   UNL d   1      59.619  49.343  49.795  0.00  0.00     0.063 A 
ATOM      9  O   UNL d   1      60.918  49.233  49.230  0.00  0.00    -0.265 OA
ENDROOT
BRANCH   2  10
ATOM     10  S   UNL d   1      60.589  49.567  52.067  0.00  0.00    -0.067 SA
BRANCH  10  11
ATOM     11  C   UNL d   1      61.350  49.264  52.228  0.00  0.00     0.037 C 
BRANCH  11  12
ATOM     12  C   UNL d   1      61.980  49.694  52.742  0.00  0.00     0.007 C 
ATOM     13  C   UNL d   1      62.027  49.706  53.750  0.00  0.00     0.001 C 
ENDBRANCH  11  12
ENDBRANCH  10  11
ENDBRANCH   2  10
BRANCH   3  14
ATOM     14  C   UNL d   1      58.310  49.452  50.354  0.00  0.00     0.011 A 
ATOM     15  C   UNL d   1      57.826  49.237  50.969  0.00  0.00     0.058 A 
ATOM     16 CL   UNL d   1      58.054  48.931  51.895  0.00  0.00    -0.082 Cl
ATOM     17  C   UNL d   1      56.997  49.260  50.856  0.00  0.00     0.011 A 
ATOM     18  C   UNL d   1      56.681  49.496  50.131  0.00  0.00     0.001 A 
ATOM     19  C   UNL d   1      57.179  49.707  49.529  0.00  0.00     0.000 A 
ATOM     20  C   UNL d   1      58.004  49.686  49.637  0.00  0.00     0.001 A 
ENDBRANCH   3  14
TORSDOF 4
ENDMDL
