MODEL 1
REMARK VINA RESULT:      17.9      0.000      0.000
REMARK  3 active torsions:
REMARK  status: ('A' for Active; 'I' for Inactive)
REMARK    1  A    between atoms: C_10  and  N_1 
REMARK       I    between atoms: N_3  and  C_4 
REMARK    2  A    between atoms: C_4  and  C_10 
REMARK    3  A    between atoms: O_17  and  C_13 
ROOT
ATOM      1  N   UNL d   1      45.795 -16.200  44.684  0.00  0.00    -0.268 N 
ATOM      2  C   UNL d   1      45.034 -15.881  44.787  0.00  0.00     0.265 A 
ATOM      3  C   UNL d   1      44.917 -15.067  44.720  0.00  0.00     0.059 A 
ATOM      4  C   UNL d   1      45.550 -14.568  44.552  0.00  0.00     0.028 A 
ATOM      5  C   UNL d   1      46.312 -14.874  44.448  0.00  0.00     0.021 A 
ATOM      6  C   UNL d   1      46.431 -15.698  44.515  0.00  0.00     0.083 A 
ATOM      7  O   UNL d   1      44.400 -16.381  44.955  0.00  0.00    -0.267 OA
ATOM      8  C   UNL d   1      45.430 -13.756  44.487  0.00  0.00     0.094 A 
ATOM      9  C   UNL d   1      44.159 -14.759  44.824  0.00  0.00     0.005 A 
ATOM     10  C   UNL d   1      44.039 -13.947  44.758  0.00  0.00     0.002 A 
ATOM     11  C   UNL d   1      44.672 -13.448  44.590  0.00  0.00     0.024 A 
ENDROOT
BRANCH   1  12
ATOM     12  C   UNL d   1      45.915 -17.011  44.750  0.00  0.00     0.144 C 
BRANCH  12  13
ATOM     13  C   UNL d   1      46.031 -17.467  44.070  0.00  0.00     0.283 C 
ATOM     14  N   UNL d   1      46.224 -18.266  44.129  0.00  0.00    -0.272 N 
ATOM     15  C   UNL d   1      46.338 -18.709  43.452  0.00  0.00     0.067 A 
ATOM     16  C   UNL d   1      46.301 -18.614  44.882  0.00  0.00     0.083 A 
ATOM     17  C   UNL d   1      46.531 -19.512  43.516  0.00  0.00     0.016 A 
ATOM     18  C   UNL d   1      46.261 -18.364  42.717  0.00  0.00     0.018 A 
ATOM     19  C   UNL d   1      46.647 -19.963  42.840  0.00  0.00     0.001 A 
ATOM     20  C   UNL d   1      46.610 -19.868  44.260  0.00  0.00     0.003 A 
ATOM     21  C   UNL d   1      46.570 -19.619  42.097  0.00  0.00     0.000 A 
ATOM     22  C   UNL d   1      46.376 -18.812  42.032  0.00  0.00     0.002 A 
ATOM     23  C   UNL d   1      46.496 -19.421  44.937  0.00  0.00     0.019 A 
ATOM     24  O   UNL d   1      45.953 -17.114  43.325  0.00  0.00    -0.265 OA
ENDBRANCH  12  13
ENDBRANCH   1  12
BRANCH   8  25
ATOM     25  O   UNL d   1      46.061 -13.254  44.319  0.00  0.00    -0.328 OA
ATOM     26  C   UNL d   1      45.979 -12.443  44.417  0.00  0.00     0.181 C 
ENDBRANCH   8  25
TORSDOF 3
ENDMDL
