MODEL 1
REMARK VINA RESULT:      -5.6      0.000      0.000
REMARK  0 active torsions:
REMARK  status: ('A' for Active; 'I' for Inactive)
ROOT
ATOM      1  C   UNL d   1      57.900  -0.180  30.326  0.00  0.00     0.166 A 
ATOM      2  C   UNL d   1      57.839  -0.996  30.409  0.00  0.00     0.117 A 
ATOM      3  N   UNL d   1      58.397  -0.047  29.679  0.00  0.00    -0.288 N 
ATOM      4  C   UNL d   1      58.281  -1.354  29.836  0.00  0.00     0.038 A 
ATOM      5  N   UNL d   1      57.503   0.336  30.840  0.00  0.00    -0.225 NA
ATOM      6  C   UNL d   1      58.629  -0.761  29.380  0.00  0.00     0.067 A 
ATOM      7  N   UNL d   1      57.369  -1.277  31.021  0.00  0.00    -0.241 NA
ATOM      8  C   UNL d   1      57.043   0.032  31.439  0.00  0.00     0.101 A 
ATOM      9  C   UNL d   1      56.984  -0.781  31.520  0.00  0.00     0.099 A 
ATOM     10  C   UNL d   1      59.117  -0.962  28.747  0.00  0.00     0.018 A 
ATOM     11  C   UNL d   1      58.421  -2.147  29.658  0.00  0.00     0.015 A 
ATOM     12  C   UNL d   1      58.909  -2.347  29.024  0.00  0.00     0.058 A 
ATOM     13  C   UNL d   1      58.612   0.682  29.395  0.00  0.00     0.101 C 
ATOM     14  C   UNL d   1      59.257  -1.754  28.568  0.00  0.00     0.013 A 
ATOM     15 CL   UNL d   1      59.049  -3.141  28.846  0.00  0.00    -0.082 Cl
ATOM     16  C   UNL d   1      56.657   0.530  31.938  0.00  0.00     0.021 A 
ATOM     17  C   UNL d   1      56.524  -1.085  32.119  0.00  0.00     0.021 A 
ATOM     18  C   UNL d   1      56.115  -0.591  32.649  0.00  0.00     0.002 A 
ATOM     19  C   UNL d   1      56.191   0.208  32.546  0.00  0.00     0.002 A 
ENDROOT
TORSDOF 0
ENDMDL
MODEL 2
REMARK VINA RESULT:      -4.3      2.519      4.406
REMARK  0 active torsions:
REMARK  status: ('A' for Active; 'I' for Inactive)
ROOT
ATOM      1  C   UNL d   1      57.706   0.662  32.656  0.00  0.00     0.166 A 
ATOM      2  C   UNL d   1      56.948   0.655  32.337  0.00  0.00     0.117 A 
ATOM      3  N   UNL d   1      57.614   0.672  33.477  0.00  0.00    -0.288 N 
ATOM      4  C   UNL d   1      56.408   0.660  32.937  0.00  0.00     0.038 A 
ATOM      5  N   UNL d   1      58.377   0.659  32.170  0.00  0.00    -0.225 NA
ATOM      6  C   UNL d   1      56.824   0.671  33.649  0.00  0.00     0.067 A 
ATOM      7  N   UNL d   1      56.885   0.644  31.518  0.00  0.00    -0.241 NA
ATOM      8  C   UNL d   1      58.288   0.648  31.360  0.00  0.00     0.101 A 
ATOM      9  C   UNL d   1      57.533   0.641  31.045  0.00  0.00     0.099 A 
ATOM     10  C   UNL d   1      56.415   0.679  34.365  0.00  0.00     0.018 A 
ATOM     11  C   UNL d   1      55.583   0.657  32.940  0.00  0.00     0.015 A 
ATOM     12  C   UNL d   1      55.175   0.664  33.657  0.00  0.00     0.058 A 
ATOM     13  C   UNL d   1      58.219   0.682  34.016  0.00  0.00     0.101 C 
ATOM     14  C   UNL d   1      55.591   0.675  34.369  0.00  0.00     0.013 A 
ATOM     15 CL   UNL d   1      54.349   0.661  33.661  0.00  0.00    -0.082 Cl
ATOM     16  C   UNL d   1      58.938   0.645  30.887  0.00  0.00     0.021 A 
ATOM     17  C   UNL d   1      57.444   0.630  30.236  0.00  0.00     0.021 A 
ATOM     18  C   UNL d   1      58.100   0.626  29.724  0.00  0.00     0.002 A 
ATOM     19  C   UNL d   1      58.835   0.634  30.062  0.00  0.00     0.002 A 
ENDROOT
TORSDOF 0
ENDMDL
MODEL 3
REMARK VINA RESULT:      -4.2      2.582      3.590
REMARK  0 active torsions:
REMARK  status: ('A' for Active; 'I' for Inactive)
ROOT
ATOM      1  C   UNL d   1      56.854   0.679  33.594  0.00  0.00     0.166 A 
ATOM      2  C   UNL d   1      56.426   0.675  32.891  0.00  0.00     0.117 A 
ATOM      3  N   UNL d   1      57.653   0.679  33.381  0.00  0.00    -0.288 N 
ATOM      4  C   UNL d   1      56.940   0.673  32.268  0.00  0.00     0.038 A 
ATOM      5  N   UNL d   1      56.473   0.681  34.330  0.00  0.00    -0.225 NA
ATOM      6  C   UNL d   1      57.706   0.676  32.574  0.00  0.00     0.067 A 
ATOM      7  N   UNL d   1      55.606   0.674  32.951  0.00  0.00    -0.241 NA
ATOM      8  C   UNL d   1      55.659   0.680  34.362  0.00  0.00     0.101 A 
ATOM      9  C   UNL d   1      55.235   0.676  33.662  0.00  0.00     0.099 A 
ATOM     10  C   UNL d   1      58.353   0.675  32.064  0.00  0.00     0.018 A 
ATOM     11  C   UNL d   1      56.821   0.670  31.452  0.00  0.00     0.015 A 
ATOM     12  C   UNL d   1      57.469   0.669  30.942  0.00  0.00     0.058 A 
ATOM     13  C   UNL d   1      58.276   0.682  33.900  0.00  0.00     0.101 C 
ATOM     14  C   UNL d   1      58.235   0.671  31.248  0.00  0.00     0.013 A 
ATOM     15 CL   UNL d   1      57.351   0.666  30.125  0.00  0.00    -0.082 Cl
ATOM     16  C   UNL d   1      55.287   0.682  35.075  0.00  0.00     0.021 A 
ATOM     17  C   UNL d   1      54.422   0.675  33.693  0.00  0.00     0.021 A 
ATOM     18  C   UNL d   1      54.013   0.677  34.418  0.00  0.00     0.002 A 
ATOM     19  C   UNL d   1      54.456   0.681  35.095  0.00  0.00     0.002 A 
ENDROOT
TORSDOF 0
ENDMDL
MODEL 4
REMARK VINA RESULT:      -4.1      1.119      1.782
REMARK  0 active torsions:
REMARK  status: ('A' for Active; 'I' for Inactive)
ROOT
ATOM      1  C   UNL d   1      57.963  -1.098  30.360  0.00  0.00     0.166 A 
ATOM      2  C   UNL d   1      58.269  -0.339  30.276  0.00  0.00     0.117 A 
ATOM      3  N   UNL d   1      58.354  -1.570  29.804  0.00  0.00    -0.288 N 
ATOM      4  C   UNL d   1      58.827  -0.341  29.692  0.00  0.00     0.038 A 
ATOM      5  N   UNL d   1      57.376  -1.267  30.921  0.00  0.00    -0.225 NA
ATOM      6  C   UNL d   1      58.879  -1.109  29.398  0.00  0.00     0.067 A 
ATOM      7  N   UNL d   1      57.968   0.243  30.772  0.00  0.00    -0.241 NA
ATOM      8  C   UNL d   1      57.095  -0.671  31.400  0.00  0.00     0.101 A 
ATOM      9  C   UNL d   1      57.401   0.083  31.315  0.00  0.00     0.099 A 
ATOM     10  C   UNL d   1      59.409  -1.282  28.790  0.00  0.00     0.018 A 
ATOM     11  C   UNL d   1      59.303   0.255  29.380  0.00  0.00     0.015 A 
ATOM     12  C   UNL d   1      59.833   0.082  28.772  0.00  0.00     0.058 A 
ATOM     13  C   UNL d   1      58.226  -2.363  29.691  0.00  0.00     0.101 C 
ATOM     14  C   UNL d   1      59.886  -0.687  28.477  0.00  0.00     0.013 A 
ATOM     15 CL   UNL d   1      60.310   0.678  28.458  0.00  0.00    -0.082 Cl
ATOM     16  C   UNL d   1      56.526  -0.832  31.945  0.00  0.00     0.021 A 
ATOM     17  C   UNL d   1      57.120   0.678  31.795  0.00  0.00     0.021 A 
ATOM     18  C   UNL d   1      56.531   0.538  32.366  0.00  0.00     0.002 A 
ATOM     19  C   UNL d   1      56.247  -0.217  32.429  0.00  0.00     0.002 A 
ENDROOT
TORSDOF 0
ENDMDL
MODEL 5
REMARK VINA RESULT:      -3.9      9.230      9.548
REMARK  0 active torsions:
REMARK  status: ('A' for Active; 'I' for Inactive)
ROOT
ATOM      1  C   UNL d   1      60.161  -9.451  33.417  0.00  0.00     0.166 A 
ATOM      2  C   UNL d   1      59.347  -9.465  33.538  0.00  0.00     0.117 A 
ATOM      3  N   UNL d   1      60.278  -9.561  32.606  0.00  0.00    -0.288 N 
ATOM      4  C   UNL d   1      58.976  -9.579  32.831  0.00  0.00     0.038 A 
ATOM      5  N   UNL d   1      60.688  -9.342  34.048  0.00  0.00    -0.225 NA
ATOM      6  C   UNL d   1      59.557  -9.639  32.249  0.00  0.00     0.067 A 
ATOM      7  N   UNL d   1      59.080  -9.367  34.309  0.00  0.00    -0.241 NA
ATOM      8  C   UNL d   1      60.398  -9.246  34.803  0.00  0.00     0.101 A 
ATOM      9  C   UNL d   1      59.588  -9.261  34.921  0.00  0.00     0.099 A 
ATOM     10  C   UNL d   1      59.342  -9.758  31.462  0.00  0.00     0.018 A 
ATOM     11  C   UNL d   1      58.179  -9.639  32.626  0.00  0.00     0.015 A 
ATOM     12  C   UNL d   1      57.964  -9.758  31.839  0.00  0.00     0.058 A 
ATOM     13  C   UNL d   1      60.999  -9.585  32.237  0.00  0.00     0.101 C 
ATOM     14  C   UNL d   1      58.546  -9.818  31.256  0.00  0.00     0.013 A 
ATOM     15 CL   UNL d   1      57.167  -9.818  31.633  0.00  0.00    -0.082 Cl
ATOM     16  C   UNL d   1      60.907  -9.140  35.416  0.00  0.00     0.021 A 
ATOM     17  C   UNL d   1      59.298  -9.165  35.676  0.00  0.00     0.021 A 
ATOM     18  C   UNL d   1      59.805  -9.054  36.327  0.00  0.00     0.002 A 
ATOM     19  C   UNL d   1      60.601  -9.044  36.182  0.00  0.00     0.002 A 
ENDROOT
TORSDOF 0
ENDMDL
MODEL 6
REMARK VINA RESULT:      -3.6      1.885      2.285
REMARK  0 active torsions:
REMARK  status: ('A' for Active; 'I' for Inactive)
ROOT
ATOM      1  C   UNL d   1      57.936   0.521  32.143  0.00  0.00     0.166 A 
ATOM      2  C   UNL d   1      57.415   0.470  31.509  0.00  0.00     0.117 A 
ATOM      3  N   UNL d   1      58.691   0.609  31.819  0.00  0.00    -0.288 N 
ATOM      4  C   UNL d   1      57.831   0.524  30.819  0.00  0.00     0.038 A 
ATOM      5  N   UNL d   1      57.666   0.481  32.926  0.00  0.00    -0.225 NA
ATOM      6  C   UNL d   1      58.628   0.612  31.013  0.00  0.00     0.067 A 
ATOM      7  N   UNL d   1      56.617   0.378  31.684  0.00  0.00    -0.241 NA
ATOM      8  C   UNL d   1      56.870   0.390  33.073  0.00  0.00     0.101 A 
ATOM      9  C   UNL d   1      56.353   0.340  32.440  0.00  0.00     0.099 A 
ATOM     10  C   UNL d   1      59.192   0.682  30.416  0.00  0.00     0.018 A 
ATOM     11  C   UNL d   1      57.598   0.508  30.028  0.00  0.00     0.015 A 
ATOM     12  C   UNL d   1      58.163   0.578  29.431  0.00  0.00     0.058 A 
ATOM     13  C   UNL d   1      59.378   0.681  32.244  0.00  0.00     0.101 C 
ATOM     14  C   UNL d   1      58.960   0.665  29.625  0.00  0.00     0.013 A 
ATOM     15 CL   UNL d   1      57.930   0.561  28.639  0.00  0.00    -0.082 Cl
ATOM     16  C   UNL d   1      56.606   0.352  33.832  0.00  0.00     0.021 A 
ATOM     17  C   UNL d   1      55.558   0.249  32.587  0.00  0.00     0.021 A 
ATOM     18  C   UNL d   1      55.259   0.206  33.363  0.00  0.00     0.002 A 
ATOM     19  C   UNL d   1      55.792   0.259  33.970  0.00  0.00     0.002 A 
ENDROOT
TORSDOF 0
ENDMDL
MODEL 7
REMARK VINA RESULT:      -2.7      9.160      9.381
REMARK  0 active torsions:
REMARK  status: ('A' for Active; 'I' for Inactive)
ROOT
ATOM      1  C   UNL d   1      59.679  -9.813  31.368  0.00  0.00     0.166 A 
ATOM      2  C   UNL d   1      58.873  -9.813  31.531  0.00  0.00     0.117 A 
ATOM      3  N   UNL d   1      59.752  -9.814  30.545  0.00  0.00    -0.288 N 
ATOM      4  C   UNL d   1      58.462  -9.814  30.835  0.00  0.00     0.038 A 
ATOM      5  N   UNL d   1      60.241  -9.813  31.978  0.00  0.00    -0.225 NA
ATOM      6  C   UNL d   1      59.012  -9.814  30.220  0.00  0.00     0.067 A 
ATOM      7  N   UNL d   1      58.649  -9.812  32.321  0.00  0.00    -0.241 NA
ATOM      8  C   UNL d   1      59.993  -9.812  32.754  0.00  0.00     0.101 A 
ATOM      9  C   UNL d   1      59.190  -9.811  32.913  0.00  0.00     0.099 A 
ATOM     10  C   UNL d   1      58.753  -9.815  29.437  0.00  0.00     0.018 A 
ATOM     11  C   UNL d   1      57.655  -9.814  30.668  0.00  0.00     0.015 A 
ATOM     12  C   UNL d   1      57.397  -9.814  29.885  0.00  0.00     0.058 A 
ATOM     13  C   UNL d   1      60.452  -9.815  30.136  0.00  0.00     0.101 C 
ATOM     14  C   UNL d   1      57.946  -9.815  29.269  0.00  0.00     0.013 A 
ATOM     15 CL   UNL d   1      56.588  -9.814  29.717  0.00  0.00    -0.082 Cl
ATOM     16  C   UNL d   1      60.536  -9.811  33.347  0.00  0.00     0.021 A 
ATOM     17  C   UNL d   1      58.942  -9.810  33.688  0.00  0.00     0.021 A 
ATOM     18  C   UNL d   1      59.484  -9.809  34.320  0.00  0.00     0.002 A 
ATOM     19  C   UNL d   1      60.272  -9.810  34.134  0.00  0.00     0.002 A 
ENDROOT
TORSDOF 0
ENDMDL
