MODEL 1
REMARK VINA RESULT:      67.6      0.000      0.000
REMARK  8 active torsions:
REMARK  status: ('A' for Active; 'I' for Inactive)
REMARK    1  A    between atoms: C_8  and  C_1 
REMARK    2  A    between atoms: C_7  and  C_2 
REMARK    3  A    between atoms: C_9  and  C_3 
REMARK    4  A    between atoms: O_14  and  C_7 
REMARK    5  A    between atoms: O_15  and  C_8 
REMARK    6  A    between atoms: C_22  and  O_14 
REMARK    7  A    between atoms: C_23  and  O_15 
REMARK    8  A    between atoms: O_21  and  C_18 
ROOT
ATOM      1  C   UNL d   1     -55.014-101.338 -42.913  0.00  0.00     0.081 A 
ATOM      2  C   UNL d   1     -55.153-100.171 -43.713  0.00  0.00     0.081 A 
ATOM      3  C   UNL d   1     -55.159-100.988 -43.644  0.00  0.00     0.013 A 
ATOM      4  C   UNL d   1     -54.862-100.867 -42.252  0.00  0.00     0.086 A 
ATOM      5  C   UNL d   1     -55.001 -99.700 -43.053  0.00  0.00     0.086 A 
ATOM      6  N   UNL d   1     -54.856-100.047 -42.325  0.00  0.00    -0.245 NA
ATOM      7  C   UNL d   1     -54.994 -98.861 -43.125  0.00  0.00     0.021 C 
ATOM      8  C   UNL d   1     -54.713-101.219 -41.506  0.00  0.00     0.021 C 
ENDROOT
BRANCH   3   9
ATOM      9  C   UNL d   1     -55.311-101.461 -44.307  0.00  0.00     0.001 A 
ATOM     10  C   UNL d   1     -54.725-101.588 -44.867  0.00  0.00     0.002 A 
ATOM     11  C   UNL d   1     -54.878-102.064 -45.534  0.00  0.00     0.024 A 
ATOM     12  C   UNL d   1     -55.616-102.408 -45.634  0.00  0.00     0.094 A 
ATOM     13  C   UNL d   1     -56.206-102.281 -45.073  0.00  0.00     0.024 A 
ATOM     14  C   UNL d   1     -56.053-101.806 -44.407  0.00  0.00     0.002 A 
BRANCH  12  15
ATOM     15  O   UNL d   1     -55.774-102.878 -46.289  0.00  0.00    -0.328 OA
ATOM     16  C   UNL d   1     -56.207-102.569 -46.917  0.00  0.00     0.181 C 
ENDBRANCH  12  15
ENDBRANCH   3   9
BRANCH   2  17
ATOM     17  C   UNL d   1     -55.302 -99.817 -44.465  0.00  0.00     0.302 C 
ATOM     18  O   UNL d   1     -54.712 -99.383 -44.838  0.00  0.00    -0.259 OA
BRANCH  17  19
ATOM     19  O   UNL d   1     -56.047 -99.910 -44.822  0.00  0.00    -0.271 OA
BRANCH  19  20
ATOM     20  C   UNL d   1     -56.674 -99.422 -44.607  0.00  0.00     0.126 C 
ATOM     21  C   UNL d   1     -57.299 -99.297 -45.127  0.00  0.00     0.029 C 
ENDBRANCH  19  20
ENDBRANCH  17  19
ENDBRANCH   2  17
BRANCH   1  22
ATOM     22  C   UNL d   1     -55.021-102.175 -42.847  0.00  0.00     0.302 C 
ATOM     23  O   UNL d   1     -55.286-102.640 -43.491  0.00  0.00    -0.259 OA
BRANCH  22  24
ATOM     24  O   UNL d   1     -54.767-102.526 -42.145  0.00  0.00    -0.271 OA
BRANCH  24  25
ATOM     25  C   UNL d   1     -55.317-102.701 -41.555  0.00  0.00     0.126 C 
ATOM     26  C   UNL d   1     -55.146-102.513 -40.768  0.00  0.00     0.029 C 
ENDBRANCH  24  25
ENDBRANCH  22  24
ENDBRANCH   1  22
TORSDOF 8
ENDMDL
MODEL 2
REMARK VINA RESULT:      70.5      2.834      4.183
REMARK  8 active torsions:
REMARK  status: ('A' for Active; 'I' for Inactive)
REMARK    1  A    between atoms: C_8  and  C_1 
REMARK    2  A    between atoms: C_7  and  C_2 
REMARK    3  A    between atoms: C_9  and  C_3 
REMARK    4  A    between atoms: O_14  and  C_7 
REMARK    5  A    between atoms: O_15  and  C_8 
REMARK    6  A    between atoms: C_22  and  O_14 
REMARK    7  A    between atoms: C_23  and  O_15 
REMARK    8  A    between atoms: O_21  and  C_18 
ROOT
ATOM      1  C   UNL d   1     -58.495 -98.945 -44.072  0.00  0.00     0.081 A 
ATOM      2  C   UNL d   1     -57.166 -98.941 -44.578  0.00  0.00     0.081 A 
ATOM      3  C   UNL d   1     -57.973 -99.004 -44.707  0.00  0.00     0.013 A 
ATOM      4  C   UNL d   1     -58.205 -98.824 -43.309  0.00  0.00     0.086 A 
ATOM      5  C   UNL d   1     -56.876 -98.820 -43.815  0.00  0.00     0.086 A 
ATOM      6  N   UNL d   1     -57.394 -98.762 -43.183  0.00  0.00    -0.245 NA
ATOM      7  C   UNL d   1     -56.047 -98.756 -43.683  0.00  0.00     0.021 C 
ATOM      8  C   UNL d   1     -58.733 -98.765 -42.661  0.00  0.00     0.021 C 
ENDROOT
BRANCH   3   9
ATOM      9  C   UNL d   1     -58.264 -99.125 -45.473  0.00  0.00     0.001 A 
ATOM     10  C   UNL d   1     -59.025 -99.411 -45.585  0.00  0.00     0.002 A 
ATOM     11  C   UNL d   1     -59.318 -99.534 -46.356  0.00  0.00     0.024 A 
ATOM     12  C   UNL d   1     -58.847 -99.368 -47.006  0.00  0.00     0.094 A 
ATOM     13  C   UNL d   1     -58.083 -99.081 -46.897  0.00  0.00     0.024 A 
ATOM     14  C   UNL d   1     -57.790 -98.959 -46.126  0.00  0.00     0.002 A 
BRANCH  12  15
ATOM     15  O   UNL d   1     -59.130 -99.487 -47.769  0.00  0.00    -0.328 OA
ATOM     16  C   UNL d   1     -59.425 -98.848 -48.197  0.00  0.00     0.181 C 
ENDBRANCH  12  15
ENDBRANCH   3   9
BRANCH   2  17
ATOM     17  C   UNL d   1     -56.635 -99.002 -45.232  0.00  0.00     0.302 C 
ATOM     18  O   UNL d   1     -56.919 -99.227 -45.970  0.00  0.00    -0.259 OA
BRANCH  17  19
ATOM     19  O   UNL d   1     -55.829 -98.833 -45.124  0.00  0.00    -0.271 OA
BRANCH  19  20
ATOM     20  C   UNL d   1     -55.313 -99.420 -44.862  0.00  0.00     0.126 C 
ATOM     21  C   UNL d   1     -54.824 -99.810 -45.396  0.00  0.00     0.029 C 
ENDBRANCH  19  20
ENDBRANCH  17  19
ENDBRANCH   2  17
BRANCH   1  22
ATOM     22  C   UNL d   1     -59.321 -99.010 -44.209  0.00  0.00     0.302 C 
ATOM     23  O   UNL d   1     -59.622 -98.911 -44.984  0.00  0.00    -0.259 OA
BRANCH  22  24
ATOM     24  O   UNL d   1     -59.823 -99.171 -43.576  0.00  0.00    -0.271 OA
BRANCH  24  25
ATOM     25  C   UNL d   1     -59.510 -99.238 -42.815  0.00  0.00     0.126 C 
ATOM     26  C   UNL d   1     -59.960 -98.997 -42.164  0.00  0.00     0.029 C 
ENDBRANCH  24  25
ENDBRANCH  22  24
ENDBRANCH   1  22
TORSDOF 8
ENDMDL
