MODEL 1
REMARK VINA RESULT:      19.4      0.000      0.000
REMARK  3 active torsions:
REMARK  status: ('A' for Active; 'I' for Inactive)
REMARK    1  A    between atoms: N_7  and  S_1 
REMARK    2  A    between atoms: C_3  and  C_8 
REMARK    3  A    between atoms: C_13  and  N_7 
ROOT
ATOM      1  C   UNL d   1      13.746  12.516  -2.698  0.00  0.00     0.018 A 
ATOM      2  C   UNL d   1      14.157  13.192  -2.489  0.00  0.00     0.003 A 
ATOM      3  C   UNL d   1      13.609  11.924  -2.138  0.00  0.00     0.003 A 
ATOM      4  C   UNL d   1      14.307  12.710  -1.162  0.00  0.00     0.093 A 
ATOM      5  C   UNL d   1      14.438  13.291  -1.722  0.00  0.00     0.020 A 
ATOM      6  C   UNL d   1      13.889  12.020  -1.372  0.00  0.00     0.020 A 
ENDROOT
BRANCH   1   7
ATOM      7  C   UNL d   1      13.463  12.415  -3.466  0.00  0.00     0.088 A 
ATOM      8  N   UNL d   1      13.607  12.916  -4.104  0.00  0.00    -0.239 NA
ATOM      9  C   UNL d   1      13.224  12.611  -4.760  0.00  0.00     0.111 A 
ATOM     10  C   UNL d   1      13.223  12.944  -5.523  0.00  0.00     0.028 C 
ATOM     11  S   UNL d   1      12.838  11.917  -4.534  0.00  0.00    -0.066 SA
ATOM     12  C   UNL d   1      12.987  11.795  -3.728  0.00  0.00     0.056 A 
ENDBRANCH   1   7
BRANCH   4  13
ATOM     13  N   UNL d   1      14.587  12.802  -0.390  0.00  0.00    -0.162 NA
BRANCH  13  14
ATOM     14  S   UNL d   1      15.402  12.738  -0.272  0.00  0.00     0.266 S 
ATOM     15  O   UNL d   1      15.363  11.878  -0.416  0.00  0.00    -0.203 OA
ATOM     16  O   UNL d   1      15.369  13.767  -0.113  0.00  0.00    -0.203 OA
ATOM     17  C   UNL d   1      16.494  12.835  -0.086  0.00  0.00     0.165 C 
ENDBRANCH  13  14
ENDBRANCH   4  13
TORSDOF 3
ENDMDL
