MODEL 1
REMARK VINA RESULT:       9.5      0.000      0.000
REMARK  4 active torsions:
REMARK  status: ('A' for Active; 'I' for Inactive)
REMARK    1  A    between atoms: C_2  and  C_1 
REMARK    2  A    between atoms: C_3  and  C_2 
REMARK    3  A    between atoms: C_5  and  C_3 
REMARK    4  A    between atoms: O_12  and  C_7 
ROOT
ATOM      1  C   UNL d   1      58.590  49.703  50.797  0.00  0.00     0.000 A 
ATOM      2  C   UNL d   1      57.029  49.694  50.259  0.00  0.00     0.094 A 
ATOM      3  C   UNL d   1      58.430  49.708  49.985  0.00  0.00     0.002 A 
ATOM      4  C   UNL d   1      57.965  49.694  51.339  0.00  0.00     0.002 A 
ATOM      5  C   UNL d   1      57.654  49.703  49.717  0.00  0.00     0.024 A 
ATOM      6  C   UNL d   1      57.184  49.689  51.065  0.00  0.00     0.024 A 
ENDROOT
BRANCH   1   7
ATOM      7  C   UNL d   1      59.373  49.707  51.059  0.00  0.00     0.006 C 
BRANCH   7   8
ATOM      8  C   UNL d   1      59.986  49.694  50.507  0.00  0.00     0.070 C 
BRANCH   8   9
ATOM      9  C   UNL d   1      60.740  49.465  50.738  0.00  0.00     0.211 C 
ATOM     10  O   UNL d   1      61.255  49.138  50.187  0.00  0.00    -0.644 OA
ATOM     11  O   UNL d   1      60.978  49.561  51.515  0.00  0.00    -0.644 OA
ENDBRANCH   8   9
ENDBRANCH   7   8
ENDBRANCH   1   7
BRANCH   2  12
ATOM     12  O   UNL d   1      56.253  49.690  49.991  0.00  0.00    -0.328 OA
ATOM     13  C   UNL d   1      56.095  49.612  49.188  0.00  0.00     0.181 C 
ENDBRANCH   2  12
TORSDOF 4
ENDMDL
MODEL 2
REMARK VINA RESULT:       9.8      0.734      3.552
REMARK  4 active torsions:
REMARK  status: ('A' for Active; 'I' for Inactive)
REMARK    1  A    between atoms: C_2  and  C_1 
REMARK    2  A    between atoms: C_3  and  C_2 
REMARK    3  A    between atoms: C_5  and  C_3 
REMARK    4  A    between atoms: O_12  and  C_7 
ROOT
ATOM      1  C   UNL d   1      58.986  49.700  50.508  0.00  0.00     0.000 A 
ATOM      2  C   UNL d   1      60.485  49.689  51.199  0.00  0.00     0.094 A 
ATOM      3  C   UNL d   1      59.663  49.688  50.032  0.00  0.00     0.002 A 
ATOM      4  C   UNL d   1      59.062  49.707  51.331  0.00  0.00     0.002 A 
ATOM      5  C   UNL d   1      60.409  49.682  50.376  0.00  0.00     0.024 A 
ATOM      6  C   UNL d   1      59.815  49.701  51.674  0.00  0.00     0.024 A 
ENDROOT
BRANCH   1   7
ATOM      7  C   UNL d   1      58.239  49.706  50.155  0.00  0.00     0.006 C 
BRANCH   7   8
ATOM      8  C   UNL d   1      57.566  49.671  50.630  0.00  0.00     0.070 C 
BRANCH   8   9
ATOM      9  C   UNL d   1      56.824  49.609  50.285  0.00  0.00     0.211 C 
ATOM     10  O   UNL d   1      56.746  49.670  49.469  0.00  0.00    -0.644 OA
ATOM     11  O   UNL d   1      56.162  49.487  50.752  0.00  0.00    -0.644 OA
ENDBRANCH   8   9
ENDBRANCH   7   8
ENDBRANCH   1   7
BRANCH   2  12
ATOM     12  O   UNL d   1      61.230  49.683  51.543  0.00  0.00    -0.328 OA
ATOM     13  C   UNL d   1      61.306  49.669  52.362  0.00  0.00     0.181 C 
ENDBRANCH   2  12
TORSDOF 4
ENDMDL
