MODEL 1
REMARK VINA RESULT:      -4.7      0.000      0.000
REMARK  2 active torsions:
REMARK  status: ('A' for Active; 'I' for Inactive)
REMARK    1  A    between atoms: CA_3  and  C_1 
REMARK    2  A    between atoms: C_2  and  CA_3 
ROOT
ATOM      1  C   UNL d   1      55.670  -0.152  33.316  0.00  0.00     0.026 A 
ATOM      2  C   UNL d   1      56.171   0.147  32.724  0.00  0.00     0.013 A 
ATOM      3  C   UNL d   1      56.543  -0.367  32.201  0.00  0.00     0.058 A 
ATOM      4 CL   UNL d   1      57.039  -0.067  31.615  0.00  0.00    -0.082 Cl
ATOM      5  C   UNL d   1      55.547  -0.966  33.377  0.00  0.00     0.002 A 
ATOM      6  C   UNL d   1      55.926  -1.480  32.847  0.00  0.00     0.001 A 
ATOM      7  C   UNL d   1      56.421  -1.181  32.262  0.00  0.00     0.011 A 
ENDROOT
BRANCH   1   8
ATOM      8  CA  UNL d   1      55.297   0.366  33.840  0.00  0.00     0.167 C 
ATOM      9  N   UNL d   1      54.560   0.682  33.657  0.00  0.00    -0.142 N 
BRANCH   8  10
ATOM     10  C   UNL d   1      55.667   0.567  34.550  0.00  0.00     0.231 C 
ATOM     11  O   UNL d   1      56.482   0.682  34.581  0.00  0.00    -0.643 OA
ATOM     12  OXT UNL d   1      55.218   0.654  35.240  0.00  0.00    -0.643 OA
ENDBRANCH   8  10
ENDBRANCH   1   8
TORSDOF 2
ENDMDL
MODEL 2
REMARK VINA RESULT:      -4.2      1.315      1.739
REMARK  2 active torsions:
REMARK  status: ('A' for Active; 'I' for Inactive)
REMARK    1  A    between atoms: CA_3  and  C_1 
REMARK    2  A    between atoms: C_2  and  CA_3 
ROOT
ATOM      1  C   UNL d   1      56.542  -0.085  32.775  0.00  0.00     0.026 A 
ATOM      2  C   UNL d   1      56.636  -0.082  31.949  0.00  0.00     0.013 A 
ATOM      3  C   UNL d   1      57.281   0.300  31.608  0.00  0.00     0.058 A 
ATOM      4 CL   UNL d   1      57.371   0.301  30.789  0.00  0.00    -0.082 Cl
ATOM      5  C   UNL d   1      57.097   0.297  33.252  0.00  0.00     0.002 A 
ATOM      6  C   UNL d   1      57.745   0.681  32.903  0.00  0.00     0.001 A 
ATOM      7  C   UNL d   1      57.835   0.682  32.085  0.00  0.00     0.011 A 
ENDROOT
BRANCH   1   8
ATOM      8  CA  UNL d   1      55.895  -0.469  33.114  0.00  0.00     0.167 C 
ATOM      9  N   UNL d   1      55.758  -1.265  32.959  0.00  0.00    -0.142 N 
BRANCH   8  10
ATOM     10  C   UNL d   1      55.385  -0.051  33.610  0.00  0.00     0.231 C 
ATOM     11  O   UNL d   1      54.754   0.377  33.300  0.00  0.00    -0.643 OA
ATOM     12  OXT UNL d   1      55.506  -0.059  34.429  0.00  0.00    -0.643 OA
ENDBRANCH   8  10
ENDBRANCH   1   8
TORSDOF 2
ENDMDL
MODEL 3
REMARK VINA RESULT:      -4.0      2.010      2.737
REMARK  2 active torsions:
REMARK  status: ('A' for Active; 'I' for Inactive)
REMARK    1  A    between atoms: CA_3  and  C_1 
REMARK    2  A    between atoms: C_2  and  CA_3 
ROOT
ATOM      1  C   UNL d   1      55.888   0.096  33.509  0.00  0.00     0.026 A 
ATOM      2  C   UNL d   1      56.029   0.200  34.321  0.00  0.00     0.013 A 
ATOM      3  C   UNL d   1      55.434   0.492  34.809  0.00  0.00     0.058 A 
ATOM      4 CL   UNL d   1      55.577   0.595  35.614  0.00  0.00    -0.082 Cl
ATOM      5  C   UNL d   1      55.149   0.285  33.194  0.00  0.00     0.002 A 
ATOM      6  C   UNL d   1      54.552   0.580  33.690  0.00  0.00     0.001 A 
ATOM      7  C   UNL d   1      54.695   0.682  34.494  0.00  0.00     0.011 A 
ENDROOT
BRANCH   1   8
ATOM      8  CA  UNL d   1      56.487  -0.197  33.022  0.00  0.00     0.167 C 
ATOM      9  N   UNL d   1      57.187   0.223  32.928  0.00  0.00    -0.142 N 
BRANCH   8  10
ATOM     10  C   UNL d   1      56.379  -0.915  32.629  0.00  0.00     0.231 C 
ATOM     11  O   UNL d   1      56.273  -1.613  33.050  0.00  0.00    -0.643 OA
ATOM     12  OXT UNL d   1      56.379  -0.936  31.801  0.00  0.00    -0.643 OA
ENDBRANCH   8  10
ENDBRANCH   1   8
TORSDOF 2
ENDMDL
MODEL 4
REMARK VINA RESULT:      -3.8      8.958      9.562
REMARK  2 active torsions:
REMARK  status: ('A' for Active; 'I' for Inactive)
REMARK    1  A    between atoms: CA_3  and  C_1 
REMARK    2  A    between atoms: C_2  and  CA_3 
ROOT
ATOM      1  C   UNL d   1      60.247  -8.025  35.591  0.00  0.00     0.026 A 
ATOM      2  C   UNL d   1      60.768  -7.405  35.778  0.00  0.00     0.013 A 
ATOM      3  C   UNL d   1      60.485  -6.726  36.145  0.00  0.00     0.058 A 
ATOM      4 CL   UNL d   1      61.005  -6.113  36.329  0.00  0.00    -0.082 Cl
ATOM      5  C   UNL d   1      59.446  -7.957  35.775  0.00  0.00     0.002 A 
ATOM      6  C   UNL d   1      59.166  -7.269  36.146  0.00  0.00     0.001 A 
ATOM      7  C   UNL d   1      59.684  -6.657  36.329  0.00  0.00     0.011 A 
ENDROOT
BRANCH   1   8
ATOM      8  CA  UNL d   1      60.534  -8.706  35.222  0.00  0.00     0.167 C 
ATOM      9  N   UNL d   1      60.876  -9.306  35.668  0.00  0.00    -0.142 N 
BRANCH   8  10
ATOM     10  C   UNL d   1      60.476  -8.783  34.402  0.00  0.00     0.231 C 
ATOM     11  O   UNL d   1      59.805  -9.112  34.057  0.00  0.00    -0.643 OA
ATOM     12  OXT UNL d   1      61.096  -8.525  33.918  0.00  0.00    -0.643 OA
ENDBRANCH   8  10
ENDBRANCH   1   8
TORSDOF 2
ENDMDL
MODEL 5
REMARK VINA RESULT:      -3.1      2.193      2.824
REMARK  2 active torsions:
REMARK  status: ('A' for Active; 'I' for Inactive)
REMARK    1  A    between atoms: CA_3  and  C_1 
REMARK    2  A    between atoms: C_2  and  CA_3 
ROOT
ATOM      1  C   UNL d   1      56.335  -0.538  32.942  0.00  0.00     0.026 A 
ATOM      2  C   UNL d   1      55.609  -0.404  33.322  0.00  0.00     0.013 A 
ATOM      3  C   UNL d   1      55.541   0.193  33.884  0.00  0.00     0.058 A 
ATOM      4 CL   UNL d   1      54.819   0.324  34.258  0.00  0.00    -0.082 Cl
ATOM      5  C   UNL d   1      56.989  -0.071  33.130  0.00  0.00     0.002 A 
ATOM      6  C   UNL d   1      56.915   0.531  33.697  0.00  0.00     0.001 A 
ATOM      7  C   UNL d   1      56.194   0.661  34.071  0.00  0.00     0.011 A 
ENDROOT
BRANCH   1   8
ATOM      8  CA  UNL d   1      56.401  -1.139  32.379  0.00  0.00     0.167 C 
ATOM      9  N   UNL d   1      56.063  -1.876  32.518  0.00  0.00    -0.142 N 
BRANCH   8  10
ATOM     10  C   UNL d   1      56.806  -0.996  31.674  0.00  0.00     0.231 C 
ATOM     11  O   UNL d   1      57.496  -1.407  31.496  0.00  0.00    -0.643 OA
ATOM     12  OXT UNL d   1      56.518  -0.435  31.138  0.00  0.00    -0.643 OA
ENDBRANCH   8  10
ENDBRANCH   1   8
TORSDOF 2
ENDMDL
MODEL 6
REMARK VINA RESULT:      -3.0      3.520      4.314
REMARK  2 active torsions:
REMARK  status: ('A' for Active; 'I' for Inactive)
REMARK    1  A    between atoms: CA_3  and  C_1 
REMARK    2  A    between atoms: C_2  and  CA_3 
ROOT
ATOM      1  C   UNL d   1      57.944   0.094  30.604  0.00  0.00     0.026 A 
ATOM      2  C   UNL d   1      57.408  -0.498  30.832  0.00  0.00     0.013 A 
ATOM      3  C   UNL d   1      57.091  -0.497  31.592  0.00  0.00     0.058 A 
ATOM      4 CL   UNL d   1      56.559  -1.086  31.814  0.00  0.00    -0.082 Cl
ATOM      5  C   UNL d   1      58.159   0.682  31.141  0.00  0.00     0.002 A 
ATOM      6  C   UNL d   1      57.837   0.679  31.906  0.00  0.00     0.001 A 
ATOM      7  C   UNL d   1      57.306   0.091  32.129  0.00  0.00     0.011 A 
ENDROOT
BRANCH   1   8
ATOM      8  CA  UNL d   1      58.261   0.090  29.840  0.00  0.00     0.167 C 
ATOM      9  N   UNL d   1      57.983   0.619  29.275  0.00  0.00    -0.142 N 
BRANCH   8  10
ATOM     10  C   UNL d   1      58.857  -0.446  29.647  0.00  0.00     0.231 C 
ATOM     11  O   UNL d   1      58.678  -1.156  29.271  0.00  0.00    -0.643 OA
ATOM     12  OXT UNL d   1      59.645  -0.273  29.833  0.00  0.00    -0.643 OA
ENDBRANCH   8  10
ENDBRANCH   1   8
TORSDOF 2
ENDMDL
MODEL 7
REMARK VINA RESULT:      -2.7      4.718      5.506
REMARK  2 active torsions:
REMARK  status: ('A' for Active; 'I' for Inactive)
REMARK    1  A    between atoms: CA_3  and  C_1 
REMARK    2  A    between atoms: C_2  and  CA_3 
ROOT
ATOM      1  C   UNL d   1      59.147  -1.199  29.086  0.00  0.00     0.026 A 
ATOM      2  C   UNL d   1      58.773  -1.939  29.027  0.00  0.00     0.013 A 
ATOM      3  C   UNL d   1      59.224  -2.626  28.976  0.00  0.00     0.058 A 
ATOM      4 CL   UNL d   1      58.850  -3.358  28.918  0.00  0.00    -0.082 Cl
ATOM      5  C   UNL d   1      59.970  -1.155  29.092  0.00  0.00     0.002 A 
ATOM      6  C   UNL d   1      60.421  -1.851  29.040  0.00  0.00     0.001 A 
ATOM      7  C   UNL d   1      60.048  -2.582  28.982  0.00  0.00     0.011 A 
ENDROOT
BRANCH   1   8
ATOM      8  CA  UNL d   1      58.692  -0.512  29.138  0.00  0.00     0.167 C 
ATOM      9  N   UNL d   1      58.453  -0.121  28.455  0.00  0.00    -0.142 N 
BRANCH   8  10
ATOM     10  C   UNL d   1      58.477  -0.218  29.878  0.00  0.00     0.231 C 
ATOM     11  O   UNL d   1      58.979   0.286  30.293  0.00  0.00    -0.643 OA
ATOM     12  OXT UNL d   1      57.750  -0.431  30.212  0.00  0.00    -0.643 OA
ENDBRANCH   8  10
ENDBRANCH   1   8
TORSDOF 2
ENDMDL
MODEL 8
REMARK VINA RESULT:      -2.0      4.910      5.781
REMARK  2 active torsions:
REMARK  status: ('A' for Active; 'I' for Inactive)
REMARK    1  A    between atoms: CA_3  and  C_1 
REMARK    2  A    between atoms: C_2  and  CA_3 
ROOT
ATOM      1  C   UNL d   1      59.604  -0.113  29.245  0.00  0.00     0.026 A 
ATOM      2  C   UNL d   1      59.989   0.084  29.954  0.00  0.00     0.013 A 
ATOM      3  C   UNL d   1      60.711   0.479  29.937  0.00  0.00     0.058 A 
ATOM      4 CL   UNL d   1      61.089   0.672  30.642  0.00  0.00    -0.082 Cl
ATOM      5  C   UNL d   1      59.948   0.090  28.522  0.00  0.00     0.002 A 
ATOM      6  C   UNL d   1      60.676   0.489  28.510  0.00  0.00     0.001 A 
ATOM      7  C   UNL d   1      61.054   0.682  29.214  0.00  0.00     0.011 A 
ENDROOT
BRANCH   1   8
ATOM      8  CA  UNL d   1      58.880  -0.510  29.265  0.00  0.00     0.167 C 
ATOM      9  N   UNL d   1      58.853  -1.326  29.178  0.00  0.00    -0.142 N 
BRANCH   8  10
ATOM     10  C   UNL d   1      58.183  -0.082  29.375  0.00  0.00     0.231 C 
ATOM     11  O   UNL d   1      57.834  -0.030  30.118  0.00  0.00    -0.643 OA
ATOM     12  OXT UNL d   1      57.827   0.300  28.732  0.00  0.00    -0.643 OA
ENDBRANCH   8  10
ENDBRANCH   1   8
TORSDOF 2
ENDMDL
MODEL 9
REMARK VINA RESULT:      -2.0      2.289      3.069
REMARK  2 active torsions:
REMARK  status: ('A' for Active; 'I' for Inactive)
REMARK    1  A    between atoms: CA_3  and  C_1 
REMARK    2  A    between atoms: C_2  and  CA_3 
ROOT
ATOM      1  C   UNL d   1      57.659   0.153  31.182  0.00  0.00     0.026 A 
ATOM      2  C   UNL d   1      57.603  -0.482  30.649  0.00  0.00     0.013 A 
ATOM      3  C   UNL d   1      58.190  -0.599  30.084  0.00  0.00     0.058 A 
ATOM      4 CL   UNL d   1      58.131  -1.230  29.557  0.00  0.00    -0.082 Cl
ATOM      5  C   UNL d   1      58.305   0.665  31.143  0.00  0.00     0.002 A 
ATOM      6  C   UNL d   1      58.894   0.542  30.572  0.00  0.00     0.001 A 
ATOM      7  C   UNL d   1      58.836  -0.087  30.046  0.00  0.00     0.011 A 
ENDROOT
BRANCH   1   8
ATOM      8  CA  UNL d   1      57.068   0.269  31.748  0.00  0.00     0.167 C 
ATOM      9  N   UNL d   1      56.382   0.677  31.552  0.00  0.00    -0.142 N 
BRANCH   8  10
ATOM     10  C   UNL d   1      57.170  -0.027  32.511  0.00  0.00     0.231 C 
ATOM     11  O   UNL d   1      56.773  -0.705  32.756  0.00  0.00    -0.643 OA
ATOM     12  OXT UNL d   1      57.676   0.360  33.040  0.00  0.00    -0.643 OA
ENDBRANCH   8  10
ENDBRANCH   1   8
TORSDOF 2
ENDMDL
