MODEL 1
REMARK VINA RESULT:      -5.9      0.000      0.000
REMARK  1 active torsions:
REMARK  status: ('A' for Active; 'I' for Inactive)
REMARK    1  A    between atoms: C_8  and  C_4 
ROOT
ATOM      1  N   UNL d   1     -41.407-121.616 -52.650  0.00  0.00    -0.211 NA
ATOM      2  C   UNL d   1     -41.275-121.640 -51.836  0.00  0.00     0.140 A 
ATOM      3  C   UNL d   1     -41.293-122.360 -51.424  0.00  0.00     0.051 A 
ATOM      4  C   UNL d   1     -41.560-122.320 -53.063  0.00  0.00     0.183 A 
ATOM      5  C   UNL d   1     -41.449-123.076 -51.844  0.00  0.00     0.104 A 
ATOM      6  O   UNL d   1     -41.580-123.045 -52.660  0.00  0.00    -0.289 OA
ATOM      7  S   UNL d   1     -41.123-120.937 -51.423  0.00  0.00    -0.057 SA
ATOM      8  C   UNL d   1     -41.163-122.394 -50.611  0.00  0.00     0.004 A 
ATOM      9  C   UNL d   1     -41.468-123.789 -51.444  0.00  0.00     0.025 A 
ATOM     10  C   UNL d   1     -41.183-123.113 -50.209  0.00  0.00     0.000 A 
ATOM     11  C   UNL d   1     -41.336-123.818 -50.622  0.00  0.00     0.002 A 
ENDROOT
BRANCH   4  12
ATOM     12  C   UNL d   1     -41.694-122.301 -53.887  0.00  0.00     0.041 A 
ATOM     13  C   UNL d   1     -42.384-121.968 -54.184  0.00  0.00     0.004 A 
ATOM     14  C   UNL d   1     -42.514-121.950 -54.991  0.00  0.00     0.000 A 
ATOM     15  C   UNL d   1     -41.952-122.265 -55.505  0.00  0.00     0.000 A 
ATOM     16  C   UNL d   1     -41.268-122.595 -55.205  0.00  0.00     0.000 A 
ATOM     17  C   UNL d   1     -41.134-122.615 -54.382  0.00  0.00     0.004 A 
ENDBRANCH   4  12
TORSDOF 1
ENDMDL
MODEL 2
REMARK VINA RESULT:      -5.1      1.246      3.712
REMARK  1 active torsions:
REMARK  status: ('A' for Active; 'I' for Inactive)
REMARK    1  A    between atoms: C_8  and  C_4 
ROOT
ATOM      1  N   UNL d   1     -41.289-123.164 -53.273  0.00  0.00    -0.211 NA
ATOM      2  C   UNL d   1     -41.411-123.180 -54.089  0.00  0.00     0.140 A 
ATOM      3  C   UNL d   1     -41.819-122.565 -54.469  0.00  0.00     0.051 A 
ATOM      4  C   UNL d   1     -41.577-122.527 -52.826  0.00  0.00     0.183 A 
ATOM      5  C   UNL d   1     -42.112-121.917 -54.015  0.00  0.00     0.104 A 
ATOM      6  O   UNL d   1     -41.986-121.907 -53.197  0.00  0.00    -0.289 OA
ATOM      7  S   UNL d   1     -41.123-123.817 -54.536  0.00  0.00    -0.057 SA
ATOM      8  C   UNL d   1     -41.946-122.572 -55.284  0.00  0.00     0.004 A 
ATOM      9  C   UNL d   1     -42.515-121.308 -54.383  0.00  0.00     0.025 A 
ATOM     10  C   UNL d   1     -42.352-121.958 -55.654  0.00  0.00     0.000 A 
ATOM     11  C   UNL d   1     -42.641-121.320 -55.207  0.00  0.00     0.002 A 
ENDROOT
BRANCH   4  12
ATOM     12  C   UNL d   1     -41.456-122.507 -52.001  0.00  0.00     0.041 A 
ATOM     13  C   UNL d   1     -41.537-123.193 -51.556  0.00  0.00     0.004 A 
ATOM     14  C   UNL d   1     -41.418-123.171 -50.748  0.00  0.00     0.000 A 
ATOM     15  C   UNL d   1     -41.217-122.462 -50.380  0.00  0.00     0.000 A 
ATOM     16  C   UNL d   1     -41.138-121.782 -50.826  0.00  0.00     0.000 A 
ATOM     17  C   UNL d   1     -41.259-121.802 -51.651  0.00  0.00     0.004 A 
ENDBRANCH   4  12
TORSDOF 1
ENDMDL
MODEL 3
REMARK VINA RESULT:      -4.9      1.371      3.842
REMARK  1 active torsions:
REMARK  status: ('A' for Active; 'I' for Inactive)
REMARK    1  A    between atoms: C_8  and  C_4 
ROOT
ATOM      1  N   UNL d   1     -41.564-122.144 -50.637  0.00  0.00    -0.211 NA
ATOM      2  C   UNL d   1     -41.344-121.919 -51.401  0.00  0.00     0.140 A 
ATOM      3  C   UNL d   1     -41.341-122.470 -52.021  0.00  0.00     0.051 A 
ATOM      4  C   UNL d   1     -41.785-122.930 -50.488  0.00  0.00     0.183 A 
ATOM      5  C   UNL d   1     -41.566-123.270 -51.869  0.00  0.00     0.104 A 
ATOM      6  O   UNL d   1     -41.786-123.488 -51.101  0.00  0.00    -0.289 OA
ATOM      7  S   UNL d   1     -41.123-121.134 -51.551  0.00  0.00    -0.057 SA
ATOM      8  C   UNL d   1     -41.123-122.255 -52.786  0.00  0.00     0.004 A 
ATOM      9  C   UNL d   1     -41.565-123.818 -52.476  0.00  0.00     0.025 A 
ATOM     10  C   UNL d   1     -41.122-122.808 -53.397  0.00  0.00     0.000 A 
ATOM     11  C   UNL d   1     -41.344-123.595 -53.247  0.00  0.00     0.002 A 
ENDROOT
BRANCH   4  12
ATOM     12  C   UNL d   1     -42.009-123.162 -49.718  0.00  0.00     0.041 A 
ATOM     13  C   UNL d   1     -42.795-123.108 -49.483  0.00  0.00     0.004 A 
ATOM     14  C   UNL d   1     -43.012-123.336 -48.729  0.00  0.00     0.000 A 
ATOM     15  C   UNL d   1     -42.442-123.618 -48.205  0.00  0.00     0.000 A 
ATOM     16  C   UNL d   1     -41.662-123.670 -48.441  0.00  0.00     0.000 A 
ATOM     17  C   UNL d   1     -41.439-123.438 -49.211  0.00  0.00     0.004 A 
ENDBRANCH   4  12
TORSDOF 1
ENDMDL
MODEL 4
REMARK VINA RESULT:      -4.4      2.066      3.054
REMARK  1 active torsions:
REMARK  status: ('A' for Active; 'I' for Inactive)
REMARK    1  A    between atoms: C_8  and  C_4 
ROOT
ATOM      1  N   UNL d   1     -42.719-123.214 -50.312  0.00  0.00    -0.211 NA
ATOM      2  C   UNL d   1     -42.979-123.426 -49.558  0.00  0.00     0.140 A 
ATOM      3  C   UNL d   1     -42.455-123.434 -48.915  0.00  0.00     0.051 A 
ATOM      4  C   UNL d   1     -41.924-123.006 -50.429  0.00  0.00     0.183 A 
ATOM      5  C   UNL d   1     -41.647-123.222 -49.034  0.00  0.00     0.104 A 
ATOM      6  O   UNL d   1     -41.392-123.011 -49.792  0.00  0.00    -0.289 OA
ATOM      7  S   UNL d   1     -43.774-123.634 -49.441  0.00  0.00    -0.057 SA
ATOM      8  C   UNL d   1     -42.706-123.644 -48.158  0.00  0.00     0.004 A 
ATOM      9  C   UNL d   1     -41.126-123.228 -48.404  0.00  0.00     0.025 A 
ATOM     10  C   UNL d   1     -42.180-123.650 -47.524  0.00  0.00     0.000 A 
ATOM     11  C   UNL d   1     -41.384-123.442 -47.641  0.00  0.00     0.002 A 
ENDROOT
BRANCH   4  12
ATOM     12  C   UNL d   1     -41.656-122.791 -51.189  0.00  0.00     0.041 A 
ATOM     13  C   UNL d   1     -41.626-121.998 -51.407  0.00  0.00     0.004 A 
ATOM     14  C   UNL d   1     -41.363-121.789 -52.151  0.00  0.00     0.000 A 
ATOM     15  C   UNL d   1     -41.128-122.373 -52.684  0.00  0.00     0.000 A 
ATOM     16  C   UNL d   1     -41.159-123.159 -52.464  0.00  0.00     0.000 A 
ATOM     17  C   UNL d   1     -41.427-123.374 -51.704  0.00  0.00     0.004 A 
ENDBRANCH   4  12
TORSDOF 1
ENDMDL
MODEL 5
REMARK VINA RESULT:      -3.1      1.950      4.329
REMARK  1 active torsions:
REMARK  status: ('A' for Active; 'I' for Inactive)
REMARK    1  A    between atoms: C_8  and  C_4 
ROOT
ATOM      1  N   UNL d   1     -41.659-123.490 -50.658  0.00  0.00    -0.211 NA
ATOM      2  C   UNL d   1     -41.475-123.249 -51.425  0.00  0.00     0.140 A 
ATOM      3  C   UNL d   1     -41.390-122.444 -51.609  0.00  0.00     0.051 A 
ATOM      4  C   UNL d   1     -41.761-122.922 -50.061  0.00  0.00     0.183 A 
ATOM      5  C   UNL d   1     -41.493-121.866 -51.002  0.00  0.00     0.104 A 
ATOM      6  O   UNL d   1     -41.678-122.114 -50.235  0.00  0.00    -0.289 OA
ATOM      7  S   UNL d   1     -41.374-123.817 -52.022  0.00  0.00    -0.057 SA
ATOM      8  C   UNL d   1     -41.206-122.194 -52.372  0.00  0.00     0.004 A 
ATOM      9  C   UNL d   1     -41.411-121.072 -51.176  0.00  0.00     0.025 A 
ATOM     10  C   UNL d   1     -41.124-121.393 -52.547  0.00  0.00     0.000 A 
ATOM     11  C   UNL d   1     -41.225-120.824 -51.950  0.00  0.00     0.002 A 
ENDROOT
BRANCH   4  12
ATOM     12  C   UNL d   1     -41.947-123.160 -49.284  0.00  0.00     0.041 A 
ATOM     13  C   UNL d   1     -41.347-123.289 -48.738  0.00  0.00     0.004 A 
ATOM     14  C   UNL d   1     -41.530-123.523 -47.977  0.00  0.00     0.000 A 
ATOM     15  C   UNL d   1     -42.318-123.629 -47.757  0.00  0.00     0.000 A 
ATOM     16  C   UNL d   1     -42.912-123.500 -48.303  0.00  0.00     0.000 A 
ATOM     17  C   UNL d   1     -42.726-123.261 -49.081  0.00  0.00     0.004 A 
ENDBRANCH   4  12
TORSDOF 1
ENDMDL
