MODEL 1
REMARK VINA RESULT:      49.4      0.000      0.000
REMARK  3 active torsions:
REMARK  status: ('A' for Active; 'I' for Inactive)
REMARK    1  A    between atoms: C_2  and  N_1 
REMARK    2  A    between atoms: N_8  and  C_3 
REMARK       I    between atoms: C_9  and  N_8 
REMARK    3  A    between atoms: C_10  and  C_9 
ROOT
ATOM      1  N   UNL d   1      58.009  49.404  50.625  0.00  0.00    -0.189 N 
ATOM      2  C   UNL d   1      57.318  49.516  51.067  0.00  0.00     0.171 A 
ATOM      3  N   UNL d   1      57.796  49.222  49.854  0.00  0.00    -0.162 NA
ATOM      4  C   UNL d   1      56.687  49.399  50.549  0.00  0.00     0.060 A 
ATOM      5  C   UNL d   1      56.970  49.221  49.813  0.00  0.00     0.105 A 
ATOM      6  C   UNL d   1      56.510  49.065  49.139  0.00  0.00     0.023 C 
ENDROOT
BRANCH   1   7
ATOM      7  C   UNL d   1      58.796  49.459  50.887  0.00  0.00     0.197 A 
ATOM      8  N   UNL d   1      58.992  49.518  51.686  0.00  0.00    -0.221 NA
ATOM      9  C   UNL d   1      59.824  49.562  51.735  0.00  0.00     0.090 A 
ATOM     10  C   UNL d   1      60.338  49.625  52.358  0.00  0.00     0.020 A 
ATOM     11  C   UNL d   1      60.109  49.528  50.961  0.00  0.00     0.050 A 
ATOM     12  C   UNL d   1      61.153  49.657  52.233  0.00  0.00     0.002 A 
ATOM     13  C   UNL d   1      61.430  49.624  51.470  0.00  0.00     0.001 A 
ATOM     14  C   UNL d   1      60.917  49.559  50.830  0.00  0.00     0.008 A 
ATOM     15  S   UNL d   1      59.471  49.465  50.450  0.00  0.00    -0.047 SA
ENDBRANCH   1   7
BRANCH   2  16
ATOM     16  N   UNL d   1      57.268  49.708  51.870  0.00  0.00    -0.189 NA
ATOM     17  C   UNL d   1      56.825  49.236  52.364  0.00  0.00     0.281 C 
ATOM     18  O   UNL d   1      56.433  48.577  52.064  0.00  0.00    -0.265 OA
BRANCH  17  19
ATOM     19  C   UNL d   1      56.773  49.423  53.168  0.00  0.00     0.058 A 
ATOM     20  C   UNL d   1      56.715  49.613  53.980  0.00  0.00     0.005 A 
ATOM     21  C   UNL d   1      56.037  49.577  53.510  0.00  0.00     0.005 A 
ENDBRANCH  17  19
ENDBRANCH   2  16
TORSDOF 3
ENDMDL
MODEL 2
REMARK VINA RESULT:      50.0      1.818      4.376
REMARK  3 active torsions:
REMARK  status: ('A' for Active; 'I' for Inactive)
REMARK    1  A    between atoms: C_2  and  N_1 
REMARK    2  A    between atoms: N_8  and  C_3 
REMARK       I    between atoms: C_9  and  N_8 
REMARK    3  A    between atoms: C_10  and  C_9 
ROOT
ATOM      1  N   UNL d   1      59.471  49.603  51.663  0.00  0.00    -0.189 N 
ATOM      2  C   UNL d   1      60.238  49.487  51.374  0.00  0.00     0.171 A 
ATOM      3  N   UNL d   1      59.513  49.699  52.476  0.00  0.00    -0.162 NA
ATOM      4  C   UNL d   1      60.740  49.515  52.028  0.00  0.00     0.060 A 
ATOM      5  C   UNL d   1      60.308  49.643  52.698  0.00  0.00     0.105 A 
ATOM      6  C   UNL d   1      60.610  49.706  53.469  0.00  0.00     0.023 C 
ENDROOT
BRANCH   1   7
ATOM      7  C   UNL d   1      58.762  49.625  51.230  0.00  0.00     0.197 A 
ATOM      8  N   UNL d   1      58.749  49.649  50.406  0.00  0.00    -0.221 NA
ATOM      9  C   UNL d   1      57.948  49.665  50.170  0.00  0.00     0.090 A 
ATOM     10  C   UNL d   1      57.586  49.691  49.446  0.00  0.00     0.020 A 
ATOM     11  C   UNL d   1      57.497  49.651  50.862  0.00  0.00     0.050 A 
ATOM     12  C   UNL d   1      56.763  49.702  49.385  0.00  0.00     0.002 A 
ATOM     13  C   UNL d   1      56.322  49.688  50.067  0.00  0.00     0.001 A 
ATOM     14  C   UNL d   1      56.681  49.662  50.808  0.00  0.00     0.008 A 
ATOM     15  S   UNL d   1      58.006  49.626  51.505  0.00  0.00    -0.047 SA
ENDBRANCH   1   7
BRANCH   2  16
ATOM     16  N   UNL d   1      60.459  49.367  50.586  0.00  0.00    -0.189 NA
ATOM     17  C   UNL d   1      61.233  49.177  50.416  0.00  0.00     0.281 C 
ATOM     18  O   UNL d   1      61.784  49.106  51.023  0.00  0.00    -0.265 OA
BRANCH  17  19
ATOM     19  C   UNL d   1      61.459  49.056  49.629  0.00  0.00     0.058 A 
ATOM     20  C   UNL d   1      61.685  48.937  48.833  0.00  0.00     0.005 A 
ATOM     21  C   UNL d   1      61.257  49.609  49.051  0.00  0.00     0.005 A 
ENDBRANCH  17  19
ENDBRANCH   2  16
TORSDOF 3
ENDMDL
MODEL 3
REMARK VINA RESULT:      51.1      2.047      4.439
REMARK  3 active torsions:
REMARK  status: ('A' for Active; 'I' for Inactive)
REMARK    1  A    between atoms: C_2  and  N_1 
REMARK    2  A    between atoms: N_8  and  C_3 
REMARK       I    between atoms: C_9  and  N_8 
REMARK    3  A    between atoms: C_10  and  C_9 
ROOT
ATOM      1  N   UNL d   1      59.961  49.198  51.043  0.00  0.00    -0.189 N 
ATOM      2  C   UNL d   1      60.538  48.616  50.924  0.00  0.00     0.171 A 
ATOM      3  N   UNL d   1      60.199  49.676  51.665  0.00  0.00    -0.162 NA
ATOM      4  C   UNL d   1      61.126  48.754  51.485  0.00  0.00     0.060 A 
ATOM      5  C   UNL d   1      60.927  49.393  51.936  0.00  0.00     0.105 A 
ATOM      6  C   UNL d   1      61.376  49.708  52.561  0.00  0.00     0.023 C 
ENDROOT
BRANCH   1   7
ATOM      7  C   UNL d   1      59.252  49.305  50.621  0.00  0.00     0.197 A 
ATOM      8  N   UNL d   1      58.512  49.226  50.976  0.00  0.00    -0.221 NA
ATOM      9  C   UNL d   1      57.937  49.373  50.388  0.00  0.00     0.090 A 
ATOM     10  C   UNL d   1      57.127  49.378  50.396  0.00  0.00     0.020 A 
ATOM     11  C   UNL d   1      58.349  49.536  49.691  0.00  0.00     0.050 A 
ATOM     12  C   UNL d   1      56.698  49.546  49.712  0.00  0.00     0.002 A 
ATOM     13  C   UNL d   1      57.105  49.706  49.028  0.00  0.00     0.001 A 
ATOM     14  C   UNL d   1      57.929  49.704  49.008  0.00  0.00     0.008 A 
ATOM     15  S   UNL d   1      59.153  49.492  49.846  0.00  0.00    -0.047 SA
ENDBRANCH   1   7
BRANCH   2  16
ATOM     16  N   UNL d   1      60.528  48.015  50.355  0.00  0.00    -0.189 NA
ATOM     17  C   UNL d   1      61.166  47.513  50.297  0.00  0.00     0.281 C 
ATOM     18  O   UNL d   1      61.812  47.606  50.800  0.00  0.00    -0.265 OA
BRANCH  17  19
ATOM     19  C   UNL d   1      61.161  46.911  49.731  0.00  0.00     0.058 A 
ATOM     20  C   UNL d   1      61.160  46.301  49.159  0.00  0.00     0.005 A 
ATOM     21  C   UNL d   1      61.828  46.436  49.624  0.00  0.00     0.005 A 
ENDBRANCH  17  19
ENDBRANCH   2  16
TORSDOF 3
ENDMDL
