MODEL 1
REMARK VINA RESULT:      -5.9      0.000      0.000
REMARK  6 active torsions:
REMARK  status: ('A' for Active; 'I' for Inactive)
REMARK    1  A    between atoms: N_3  and  S_1 
REMARK    2  A    between atoms: C_7  and  S_1 
REMARK    3  A    between atoms: C_2  and  N_3 
REMARK    4  A    between atoms: N_9  and  C_5 
REMARK    5  A    between atoms: C_22  and  N_9 
REMARK    6  A    between atoms: C_21  and  C_22 
ROOT
ATOM      1  C   UNL d   1     -44.836  12.538  22.393  0.00  0.00     0.211 A 
ATOM      2  N   UNL d   1     -45.195  11.937  22.819  0.00  0.00    -0.222 NA
ATOM      3  C   UNL d   1     -44.039  12.483  22.186  0.00  0.00     0.200 A 
ATOM      4  N   UNL d   1     -43.602  11.812  22.414  0.00  0.00    -0.223 NA
ATOM      5  C   UNL d   1     -44.764  11.279  23.042  0.00  0.00     0.101 A 
ATOM      6  C   UNL d   1     -43.968  11.209  22.844  0.00  0.00     0.101 A 
ATOM      7  C   UNL d   1     -43.538  10.543  23.070  0.00  0.00     0.021 A 
ATOM      8  C   UNL d   1     -45.135  10.675  23.472  0.00  0.00     0.021 A 
ATOM      9  C   UNL d   1     -43.908   9.947  23.497  0.00  0.00     0.002 A 
ATOM     10  C   UNL d   1     -44.701  10.010  23.698  0.00  0.00     0.002 A 
ENDROOT
BRANCH   1  11
ATOM     11  N   UNL d   1     -45.269  13.199  22.169  0.00  0.00    -0.136 NA
BRANCH  11  12
ATOM     12  S   UNL d   1     -46.047  13.349  22.581  0.00  0.00     0.287 S 
ATOM     13  O   UNL d   1     -46.025  13.797  23.352  0.00  0.00    -0.198 OA
ATOM     14  O   UNL d   1     -45.463  13.698  23.070  0.00  0.00    -0.198 OA
BRANCH  12  15
ATOM     15  C   UNL d   1     -46.828  13.155  22.400  0.00  0.00     0.105 A 
ATOM     16  C   UNL d   1     -47.356  12.935  23.001  0.00  0.00     0.013 A 
ATOM     17  C   UNL d   1     -48.147  12.739  22.819  0.00  0.00     0.001 A 
ATOM     18  C   UNL d   1     -48.663  12.522  23.417  0.00  0.00     0.000 C 
ATOM     19  C   UNL d   1     -48.403  12.766  22.028  0.00  0.00     0.000 A 
ATOM     20  C   UNL d   1     -47.873  12.986  21.431  0.00  0.00     0.001 A 
ATOM     21  C   UNL d   1     -47.092  13.180  21.612  0.00  0.00     0.013 A 
ENDBRANCH  12  15
ENDBRANCH  11  12
ENDBRANCH   1  11
BRANCH   3  22
ATOM     22  N   UNL d   1     -43.669  13.088  21.755  0.00  0.00    -0.223 NA
BRANCH  22  23
ATOM     23  C   UNL d   1     -42.960  12.940  21.343  0.00  0.00     0.101 C 
BRANCH  23  24
ATOM     24  C   UNL d   1     -42.444  13.561  21.174  0.00  0.00     0.021 A 
ATOM     25  C   UNL d   1     -42.512  14.384  21.260  0.00  0.00     0.028 A 
ATOM     26  C   UNL d   1     -41.880  14.873  21.033  0.00  0.00     0.119 A 
ATOM     27  O   UNL d   1     -41.787  15.693  21.052  0.00  0.00    -0.300 OA
ATOM     28  C   UNL d   1     -41.193  14.539  20.725  0.00  0.00     0.119 A 
ATOM     29  C   UNL d   1     -41.038  15.869  20.755  0.00  0.00     0.304 A 
ATOM     30  O   UNL d   1     -40.669  15.162  20.553  0.00  0.00    -0.300 OA
ATOM     31  C   UNL d   1     -41.129  13.722  20.642  0.00  0.00     0.026 A 
ATOM     32  C   UNL d   1     -41.751  13.232  20.864  0.00  0.00     0.004 A 
ENDBRANCH  23  24
ENDBRANCH  22  23
ENDBRANCH   3  22
TORSDOF 6
ENDMDL
MODEL 2
REMARK VINA RESULT:      -4.3      3.911      5.843
REMARK  6 active torsions:
REMARK  status: ('A' for Active; 'I' for Inactive)
REMARK    1  A    between atoms: N_3  and  S_1 
REMARK    2  A    between atoms: C_7  and  S_1 
REMARK    3  A    between atoms: C_2  and  N_3 
REMARK    4  A    between atoms: N_9  and  C_5 
REMARK    5  A    between atoms: C_22  and  N_9 
REMARK    6  A    between atoms: C_21  and  C_22 
ROOT
ATOM      1  C   UNL d   1     -39.346  14.511  21.104  0.00  0.00     0.211 A 
ATOM      2  N   UNL d   1     -39.477  14.450  21.911  0.00  0.00    -0.222 NA
ATOM      3  C   UNL d   1     -38.747  14.072  20.745  0.00  0.00     0.200 A 
ATOM      4  N   UNL d   1     -38.276  13.565  21.210  0.00  0.00    -0.223 NA
ATOM      5  C   UNL d   1     -39.014  13.953  22.365  0.00  0.00     0.101 A 
ATOM      6  C   UNL d   1     -38.412  13.507  22.022  0.00  0.00     0.101 A 
ATOM      7  C   UNL d   1     -37.948  13.007  22.484  0.00  0.00     0.021 A 
ATOM      8  C   UNL d   1     -39.153  13.896  23.180  0.00  0.00     0.021 A 
ATOM      9  C   UNL d   1     -38.088  12.954  23.292  0.00  0.00     0.002 A 
ATOM     10  C   UNL d   1     -38.686  13.395  23.640  0.00  0.00     0.002 A 
ENDROOT
BRANCH   1  11
ATOM     11  N   UNL d   1     -39.811  15.011  20.648  0.00  0.00    -0.136 NA
BRANCH  11  12
ATOM     12  S   UNL d   1     -40.696  14.987  20.771  0.00  0.00     0.287 S 
ATOM     13  O   UNL d   1     -41.074  15.685  21.177  0.00  0.00    -0.198 OA
ATOM     14  O   UNL d   1     -40.443  15.717  21.097  0.00  0.00    -0.198 OA
BRANCH  12  15
ATOM     15  C   UNL d   1     -41.277  14.433  20.583  0.00  0.00     0.105 A 
ATOM     16  C   UNL d   1     -41.721  14.071  21.183  0.00  0.00     0.013 A 
ATOM     17  C   UNL d   1     -42.310  13.510  20.994  0.00  0.00     0.001 A 
ATOM     18  C   UNL d   1     -42.745  13.156  21.591  0.00  0.00     0.000 C 
ATOM     19  C   UNL d   1     -42.449  13.316  20.198  0.00  0.00     0.000 A 
ATOM     20  C   UNL d   1     -42.004  13.680  19.601  0.00  0.00     0.001 A 
ATOM     21  C   UNL d   1     -41.422  14.234  19.789  0.00  0.00     0.013 A 
ENDBRANCH  12  15
ENDBRANCH  11  12
ENDBRANCH   1  11
BRANCH   3  22
ATOM     22  N   UNL d   1     -38.608  14.128  19.929  0.00  0.00    -0.223 NA
BRANCH  22  23
ATOM     23  C   UNL d   1     -38.201  13.523  19.527  0.00  0.00     0.101 C 
BRANCH  23  24
ATOM     24  C   UNL d   1     -38.163  13.529  18.703  0.00  0.00     0.021 A 
ATOM     25  C   UNL d   1     -38.084  14.143  18.151  0.00  0.00     0.028 A 
ATOM     26  C   UNL d   1     -38.064  13.964  17.339  0.00  0.00     0.119 A 
ATOM     27  O   UNL d   1     -37.991  14.446  16.673  0.00  0.00    -0.300 OA
ATOM     28  C   UNL d   1     -38.122  13.181  17.090  0.00  0.00     0.119 A 
ATOM     29  C   UNL d   1     -38.004  13.960  16.008  0.00  0.00     0.304 A 
ATOM     30  O   UNL d   1     -38.085  13.181  16.259  0.00  0.00    -0.300 OA
ATOM     31  C   UNL d   1     -38.200  12.575  17.641  0.00  0.00     0.026 A 
ATOM     32  C   UNL d   1     -38.221  12.744  18.445  0.00  0.00     0.004 A 
ENDBRANCH  23  24
ENDBRANCH  22  23
ENDBRANCH   3  22
TORSDOF 6
ENDMDL
MODEL 3
REMARK VINA RESULT:      -4.0      1.434      4.807
REMARK  6 active torsions:
REMARK  status: ('A' for Active; 'I' for Inactive)
REMARK    1  A    between atoms: N_3  and  S_1 
REMARK    2  A    between atoms: C_7  and  S_1 
REMARK    3  A    between atoms: C_2  and  N_3 
REMARK    4  A    between atoms: N_9  and  C_5 
REMARK    5  A    between atoms: C_22  and  N_9 
REMARK    6  A    between atoms: C_21  and  C_22 
ROOT
ATOM      1  C   UNL d   1     -44.230  12.489  22.201  0.00  0.00     0.211 A 
ATOM      2  N   UNL d   1     -43.658  11.912  22.310  0.00  0.00    -0.222 NA
ATOM      3  C   UNL d   1     -44.972  12.411  22.556  0.00  0.00     0.200 A 
ATOM      4  N   UNL d   1     -45.134  11.742  23.025  0.00  0.00    -0.223 NA
ATOM      5  C   UNL d   1     -43.819  11.257  22.771  0.00  0.00     0.101 A 
ATOM      6  C   UNL d   1     -44.553  11.165  23.132  0.00  0.00     0.101 A 
ATOM      7  C   UNL d   1     -44.711  10.502  23.596  0.00  0.00     0.021 A 
ATOM      8  C   UNL d   1     -43.234  10.678  22.877  0.00  0.00     0.021 A 
ATOM      9  C   UNL d   1     -44.130   9.931  23.698  0.00  0.00     0.002 A 
ATOM     10  C   UNL d   1     -43.396  10.016  23.342  0.00  0.00     0.002 A 
ENDROOT
BRANCH   1  11
ATOM     11  N   UNL d   1     -44.069  13.147  21.738  0.00  0.00    -0.136 NA
BRANCH  11  12
ATOM     12  S   UNL d   1     -43.363  13.112  21.192  0.00  0.00     0.287 S 
ATOM     13  O   UNL d   1     -43.421  12.579  20.479  0.00  0.00    -0.198 OA
ATOM     14  O   UNL d   1     -43.932  12.594  20.858  0.00  0.00    -0.198 OA
BRANCH  12  15
ATOM     15  C   UNL d   1     -42.625  13.481  21.198  0.00  0.00     0.105 A 
ATOM     16  C   UNL d   1     -42.570  14.309  21.177  0.00  0.00     0.013 A 
ATOM     17  C   UNL d   1     -41.825  14.684  21.183  0.00  0.00     0.001 A 
ATOM     18  C   UNL d   1     -41.777  15.501  21.163  0.00  0.00     0.000 C 
ATOM     19  C   UNL d   1     -41.135  14.221  21.209  0.00  0.00     0.000 A 
ATOM     20  C   UNL d   1     -41.194  13.394  21.229  0.00  0.00     0.001 A 
ATOM     21  C   UNL d   1     -41.931  13.025  21.223  0.00  0.00     0.013 A 
ENDBRANCH  12  15
ENDBRANCH  11  12
ENDBRANCH   1  11
BRANCH   3  22
ATOM     22  N   UNL d   1     -45.557  12.991  22.450  0.00  0.00    -0.223 NA
BRANCH  22  23
ATOM     23  C   UNL d   1     -46.363  12.793  22.515  0.00  0.00     0.101 C 
BRANCH  23  24
ATOM     24  C   UNL d   1     -46.937  13.383  22.462  0.00  0.00     0.021 A 
ATOM     25  C   UNL d   1     -46.946  14.179  22.698  0.00  0.00     0.028 A 
ATOM     26  C   UNL d   1     -47.624  14.639  22.563  0.00  0.00     0.119 A 
ATOM     27  O   UNL d   1     -47.793  15.429  22.732  0.00  0.00    -0.300 OA
ATOM     28  C   UNL d   1     -48.281  14.303  22.198  0.00  0.00     0.119 A 
ATOM     29  C   UNL d   1     -48.560  15.584  22.471  0.00  0.00     0.304 A 
ATOM     30  O   UNL d   1     -48.864  14.894  22.141  0.00  0.00    -0.300 OA
ATOM     31  C   UNL d   1     -48.269  13.514  21.965  0.00  0.00     0.026 A 
ATOM     32  C   UNL d   1     -47.602  13.052  22.095  0.00  0.00     0.004 A 
ENDBRANCH  23  24
ENDBRANCH  22  23
ENDBRANCH   3  22
TORSDOF 6
ENDMDL
MODEL 4
REMARK VINA RESULT:      -3.8      2.134      3.458
REMARK  6 active torsions:
REMARK  status: ('A' for Active; 'I' for Inactive)
REMARK    1  A    between atoms: N_3  and  S_1 
REMARK    2  A    between atoms: C_7  and  S_1 
REMARK    3  A    between atoms: C_2  and  N_3 
REMARK    4  A    between atoms: N_9  and  C_5 
REMARK    5  A    between atoms: C_22  and  N_9 
REMARK    6  A    between atoms: C_21  and  C_22 
ROOT
ATOM      1  C   UNL d   1     -47.689  13.250  22.829  0.00  0.00     0.211 A 
ATOM      2  N   UNL d   1     -48.451  12.981  22.961  0.00  0.00    -0.222 NA
ATOM      3  C   UNL d   1     -47.044  12.744  22.934  0.00  0.00     0.200 A 
ATOM      4  N   UNL d   1     -47.177  11.957  23.173  0.00  0.00    -0.223 NA
ATOM      5  C   UNL d   1     -48.579  12.209  23.196  0.00  0.00     0.101 A 
ATOM      6  C   UNL d   1     -47.948  11.691  23.304  0.00  0.00     0.101 A 
ATOM      7  C   UNL d   1     -48.082  10.914  23.542  0.00  0.00     0.021 A 
ATOM      8  C   UNL d   1     -49.354  11.945  23.327  0.00  0.00     0.021 A 
ATOM      9  C   UNL d   1     -48.850  10.655  23.670  0.00  0.00     0.002 A 
ATOM     10  C   UNL d   1     -49.484  11.165  23.564  0.00  0.00     0.002 A 
ENDROOT
BRANCH   1  11
ATOM     11  N   UNL d   1     -47.560  14.026  22.593  0.00  0.00    -0.136 NA
BRANCH  11  12
ATOM     12  S   UNL d   1     -48.246  14.473  22.234  0.00  0.00     0.287 S 
ATOM     13  O   UNL d   1     -48.313  14.477  21.345  0.00  0.00    -0.198 OA
ATOM     14  O   UNL d   1     -47.820  14.155  21.586  0.00  0.00    -0.198 OA
BRANCH  12  15
ATOM     15  C   UNL d   1     -48.867  14.909  22.558  0.00  0.00     0.105 A 
ATOM     16  C   UNL d   1     -49.646  14.780  22.303  0.00  0.00     0.013 A 
ATOM     17  C   UNL d   1     -50.276  15.220  22.630  0.00  0.00     0.001 A 
ATOM     18  C   UNL d   1     -51.043  15.089  22.375  0.00  0.00     0.000 C 
ATOM     19  C   UNL d   1     -50.116  15.790  23.214  0.00  0.00     0.000 A 
ATOM     20  C   UNL d   1     -49.337  15.916  23.465  0.00  0.00     0.001 A 
ATOM     21  C   UNL d   1     -48.716  15.480  23.142  0.00  0.00     0.013 A 
ENDBRANCH  12  15
ENDBRANCH  11  12
ENDBRANCH   1  11
BRANCH   3  22
ATOM     22  N   UNL d   1     -46.269  13.009  22.802  0.00  0.00    -0.223 NA
BRANCH  22  23
ATOM     23  C   UNL d   1     -45.620  12.513  22.966  0.00  0.00     0.101 C 
BRANCH  23  24
ATOM     24  C   UNL d   1     -44.931  12.575  22.517  0.00  0.00     0.021 A 
ATOM     25  C   UNL d   1     -44.659  13.152  21.986  0.00  0.00     0.028 A 
ATOM     26  C   UNL d   1     -43.923  13.051  21.613  0.00  0.00     0.119 A 
ATOM     27  O   UNL d   1     -43.515  13.521  21.070  0.00  0.00    -0.300 OA
ATOM     28  C   UNL d   1     -43.472  12.381  21.771  0.00  0.00     0.119 A 
ATOM     29  C   UNL d   1     -42.806  13.140  20.891  0.00  0.00     0.304 A 
ATOM     30  O   UNL d   1     -42.775  12.439  21.320  0.00  0.00    -0.300 OA
ATOM     31  C   UNL d   1     -43.745  11.811  22.298  0.00  0.00     0.026 A 
ATOM     32  C   UNL d   1     -44.472  11.904  22.671  0.00  0.00     0.004 A 
ENDBRANCH  23  24
ENDBRANCH  22  23
ENDBRANCH   3  22
TORSDOF 6
ENDMDL
MODEL 5
REMARK VINA RESULT:      -3.2      2.810      5.053
REMARK  6 active torsions:
REMARK  status: ('A' for Active; 'I' for Inactive)
REMARK    1  A    between atoms: N_3  and  S_1 
REMARK    2  A    between atoms: C_7  and  S_1 
REMARK    3  A    between atoms: C_2  and  N_3 
REMARK    4  A    between atoms: N_9  and  C_5 
REMARK    5  A    between atoms: C_22  and  N_9 
REMARK    6  A    between atoms: C_21  and  C_22 
ROOT
ATOM      1  C   UNL d   1     -49.267  13.183  23.643  0.00  0.00     0.211 A 
ATOM      2  N   UNL d   1     -50.029  13.486  23.669  0.00  0.00    -0.222 NA
ATOM      3  C   UNL d   1     -48.617  13.692  23.616  0.00  0.00     0.200 A 
ATOM      4  N   UNL d   1     -48.742  14.516  23.616  0.00  0.00    -0.223 NA
ATOM      5  C   UNL d   1     -50.148  14.294  23.669  0.00  0.00     0.101 A 
ATOM      6  C   UNL d   1     -49.512  14.815  23.643  0.00  0.00     0.101 A 
ATOM      7  C   UNL d   1     -49.638  15.630  23.643  0.00  0.00     0.021 A 
ATOM      8  C   UNL d   1     -50.922  14.592  23.697  0.00  0.00     0.021 A 
ATOM      9  C   UNL d   1     -50.405  15.922  23.670  0.00  0.00     0.002 A 
ATOM     10  C   UNL d   1     -51.044  15.408  23.697  0.00  0.00     0.002 A 
ENDROOT
BRANCH   1  11
ATOM     11  N   UNL d   1     -49.146  12.371  23.642  0.00  0.00    -0.136 NA
BRANCH  11  12
ATOM     12  S   UNL d   1     -49.517  11.893  22.985  0.00  0.00     0.287 S 
ATOM     13  O   UNL d   1     -50.051  11.218  23.219  0.00  0.00    -0.198 OA
ATOM     14  O   UNL d   1     -49.794  11.549  23.697  0.00  0.00    -0.198 OA
BRANCH  12  15
ATOM     15  C   UNL d   1     -49.477  11.937  22.162  0.00  0.00     0.105 A 
ATOM     16  C   UNL d   1     -50.074  12.320  21.732  0.00  0.00     0.013 A 
ATOM     17  C   UNL d   1     -50.033  12.365  20.900  0.00  0.00     0.001 A 
ATOM     18  C   UNL d   1     -50.626  12.745  20.481  0.00  0.00     0.000 C 
ATOM     19  C   UNL d   1     -49.389  12.022  20.503  0.00  0.00     0.000 A 
ATOM     20  C   UNL d   1     -48.794  11.640  20.936  0.00  0.00     0.001 A 
ATOM     21  C   UNL d   1     -48.835  11.597  21.758  0.00  0.00     0.013 A 
ENDBRANCH  12  15
ENDBRANCH  11  12
ENDBRANCH   1  11
BRANCH   3  22
ATOM     22  N   UNL d   1     -47.844  13.393  23.589  0.00  0.00    -0.223 NA
BRANCH  22  23
ATOM     23  C   UNL d   1     -47.198  13.906  23.470  0.00  0.00     0.101 C 
BRANCH  23  24
ATOM     24  C   UNL d   1     -46.507  13.623  23.119  0.00  0.00     0.021 A 
ATOM     25  C   UNL d   1     -46.052  12.941  23.250  0.00  0.00     0.028 A 
ATOM     26  C   UNL d   1     -45.369  12.811  22.794  0.00  0.00     0.119 A 
ATOM     27  O   UNL d   1     -44.817  12.197  22.797  0.00  0.00    -0.300 OA
ATOM     28  C   UNL d   1     -45.150  13.357  22.219  0.00  0.00     0.119 A 
ATOM     29  C   UNL d   1     -44.252  12.363  22.220  0.00  0.00     0.304 A 
ATOM     30  O   UNL d   1     -44.453  13.076  21.862  0.00  0.00    -0.300 OA
ATOM     31  C   UNL d   1     -45.604  14.032  22.092  0.00  0.00     0.026 A 
ATOM     32  C   UNL d   1     -46.280  14.168  22.539  0.00  0.00     0.004 A 
ENDBRANCH  23  24
ENDBRANCH  22  23
ENDBRANCH   3  22
TORSDOF 6
ENDMDL
