MODEL 1
REMARK VINA RESULT:      -7.6      0.000      0.000
REMARK  5 active torsions:
REMARK  status: ('A' for Active; 'I' for Inactive)
REMARK    1  A    between atoms: C_9  and  N_1 
REMARK    2  A    between atoms: S_8  and  C_2 
REMARK    3  A    between atoms: C_6  and  C_10 
REMARK       I    between atoms: N_7  and  C_6 
REMARK    4  A    between atoms: C_10  and  S_8 
REMARK    5  A    between atoms: C_13  and  C_9 
ROOT
ATOM      1  N   UNL d   1     -48.583  13.240  22.237  0.00  0.00    -0.303 N 
ATOM      2  C   UNL d   1     -47.333  13.400  22.675  0.00  0.00     0.049 A 
ATOM      3  C   UNL d   1     -47.921  12.841  22.476  0.00  0.00     0.087 A 
ATOM      4  C   UNL d   1     -47.664  14.147  22.548  0.00  0.00     0.024 A 
ATOM      5  C   UNL d   1     -48.437  14.048  22.277  0.00  0.00     0.065 A 
ATOM      6  C   UNL d   1     -47.355  14.901  22.646  0.00  0.00     0.002 A 
ATOM      7  C   UNL d   1     -48.901  14.703  22.104  0.00  0.00     0.018 A 
ATOM      8  C   UNL d   1     -47.820  15.561  22.472  0.00  0.00     0.000 A 
ATOM      9  C   UNL d   1     -48.593  15.462  22.202  0.00  0.00     0.002 A 
ENDROOT
BRANCH   2  10
ATOM     10  S   UNL d   1     -46.572  13.244  22.945  0.00  0.00    -0.080 SA
BRANCH  10  11
ATOM     11  C   UNL d   1     -46.271  12.470  22.925  0.00  0.00     0.097 C 
BRANCH  11  12
ATOM     12  C   UNL d   1     -45.472  12.330  22.796  0.00  0.00     0.272 C 
ATOM     13  N   UNL d   1     -45.117  11.626  23.041  0.00  0.00    -0.267 N 
ATOM     14  C   UNL d   1     -45.579  11.054  23.423  0.00  0.00     0.110 A 
ATOM     15  C   UNL d   1     -44.315  11.495  22.906  0.00  0.00     0.110 A 
ATOM     16  C   UNL d   1     -45.238  10.352  23.671  0.00  0.00     0.142 A 
ATOM     17  O   UNL d   1     -44.421  10.214  23.536  0.00  0.00    -0.300 OA
ATOM     18  C   UNL d   1     -43.964  10.785  23.155  0.00  0.00     0.142 A 
ATOM     19  O   UNL d   1     -45.024  12.900  22.417  0.00  0.00    -0.266 OA
ENDBRANCH  11  12
ENDBRANCH  10  11
ENDBRANCH   2  10
BRANCH   1  20
ATOM     20  C   UNL d   1     -49.303  12.885  21.989  0.00  0.00     0.080 C 
BRANCH  20  21
ATOM     21  C   UNL d   1     -49.790  12.512  22.533  0.00  0.00     0.018 A 
ATOM     22  C   UNL d   1     -49.527  11.852  22.953  0.00  0.00     0.002 A 
ATOM     23  C   UNL d   1     -50.020  11.480  23.499  0.00  0.00     0.000 A 
ATOM     24  C   UNL d   1     -50.776  11.762  23.631  0.00  0.00     0.000 A 
ATOM     25  C   UNL d   1     -51.052  12.430  23.210  0.00  0.00     0.000 A 
ATOM     26  C   UNL d   1     -50.552  12.800  22.662  0.00  0.00     0.002 A 
ENDBRANCH  20  21
ENDBRANCH   1  20
TORSDOF 5
ENDMDL
MODEL 2
REMARK VINA RESULT:      -7.4      1.210      2.930
REMARK  5 active torsions:
REMARK  status: ('A' for Active; 'I' for Inactive)
REMARK    1  A    between atoms: C_9  and  N_1 
REMARK    2  A    between atoms: S_8  and  C_2 
REMARK    3  A    between atoms: C_6  and  C_10 
REMARK       I    between atoms: N_7  and  C_6 
REMARK    4  A    between atoms: C_10  and  S_8 
REMARK    5  A    between atoms: C_13  and  C_9 
ROOT
ATOM      1  N   UNL d   1     -49.376  13.191  23.535  0.00  0.00    -0.303 N 
ATOM      2  C   UNL d   1     -48.424  12.261  23.611  0.00  0.00     0.049 A 
ATOM      3  C   UNL d   1     -48.575  13.080  23.550  0.00  0.00     0.087 A 
ATOM      4  C   UNL d   1     -49.160  11.885  23.632  0.00  0.00     0.024 A 
ATOM      5  C   UNL d   1     -49.749  12.460  23.585  0.00  0.00     0.065 A 
ATOM      6  C   UNL d   1     -49.362  11.090  23.688  0.00  0.00     0.002 A 
ATOM      7  C   UNL d   1     -50.540  12.242  23.594  0.00  0.00     0.018 A 
ATOM      8  C   UNL d   1     -50.157  10.869  23.698  0.00  0.00     0.000 A 
ATOM      9  C   UNL d   1     -50.746  11.445  23.651  0.00  0.00     0.002 A 
ENDROOT
BRANCH   2  10
ATOM     10  S   UNL d   1     -47.688  11.894  23.644  0.00  0.00    -0.080 SA
BRANCH  10  11
ATOM     11  C   UNL d   1     -47.003  12.310  23.429  0.00  0.00     0.097 C 
BRANCH  11  12
ATOM     12  C   UNL d   1     -46.281  11.925  23.346  0.00  0.00     0.272 C 
ATOM     13  N   UNL d   1     -45.664  12.264  22.915  0.00  0.00    -0.267 N 
ATOM     14  C   UNL d   1     -45.778  13.005  22.563  0.00  0.00     0.110 A 
ATOM     15  C   UNL d   1     -44.945  11.869  22.838  0.00  0.00     0.110 A 
ATOM     16  C   UNL d   1     -45.172  13.351  22.134  0.00  0.00     0.142 A 
ATOM     17  O   UNL d   1     -44.438  12.952  22.052  0.00  0.00    -0.300 OA
ATOM     18  C   UNL d   1     -44.328  12.215  22.404  0.00  0.00     0.142 A 
ATOM     19  O   UNL d   1     -46.178  11.194  23.697  0.00  0.00    -0.266 OA
ENDBRANCH  11  12
ENDBRANCH  10  11
ENDBRANCH   2  10
BRANCH   1  20
ATOM     20  C   UNL d   1     -49.764  13.934  23.477  0.00  0.00     0.080 C 
BRANCH  20  21
ATOM     21  C   UNL d   1     -49.451  14.529  23.006  0.00  0.00     0.018 A 
ATOM     22  C   UNL d   1     -48.956  15.106  23.329  0.00  0.00     0.002 A 
ATOM     23  C   UNL d   1     -48.645  15.702  22.852  0.00  0.00     0.000 A 
ATOM     24  C   UNL d   1     -48.822  15.728  22.055  0.00  0.00     0.000 A 
ATOM     25  C   UNL d   1     -49.323  15.148  21.719  0.00  0.00     0.000 A 
ATOM     26  C   UNL d   1     -49.634  14.551  22.203  0.00  0.00     0.002 A 
ENDBRANCH  20  21
ENDBRANCH   1  20
TORSDOF 5
ENDMDL
MODEL 3
REMARK VINA RESULT:      -6.1      7.837      9.439
REMARK  5 active torsions:
REMARK  status: ('A' for Active; 'I' for Inactive)
REMARK    1  A    between atoms: C_9  and  N_1 
REMARK    2  A    between atoms: S_8  and  C_2 
REMARK    3  A    between atoms: C_6  and  C_10 
REMARK       I    between atoms: N_7  and  C_6 
REMARK    4  A    between atoms: C_10  and  S_8 
REMARK    5  A    between atoms: C_13  and  C_9 
ROOT
ATOM      1  N   UNL d   1     -39.651  15.391  21.220  0.00  0.00    -0.303 N 
ATOM      2  C   UNL d   1     -39.415  15.396  19.907  0.00  0.00     0.049 A 
ATOM      3  C   UNL d   1     -39.076  15.279  20.662  0.00  0.00     0.087 A 
ATOM      4  C   UNL d   1     -40.211  15.582  20.031  0.00  0.00     0.024 A 
ATOM      5  C   UNL d   1     -40.357  15.578  20.843  0.00  0.00     0.065 A 
ATOM      6  C   UNL d   1     -40.817  15.752  19.503  0.00  0.00     0.002 A 
ATOM      7  C   UNL d   1     -41.109  15.745  21.127  0.00  0.00     0.018 A 
ATOM      8  C   UNL d   1     -41.574  15.920  19.787  0.00  0.00     0.000 A 
ATOM      9  C   UNL d   1     -41.719  15.917  20.599  0.00  0.00     0.002 A 
ENDROOT
BRANCH   2  10
ATOM     10  S   UNL d   1     -39.035  15.340  19.180  0.00  0.00    -0.080 SA
BRANCH  10  11
ATOM     11  C   UNL d   1     -38.746  14.608  18.914  0.00  0.00     0.097 C 
BRANCH  11  12
ATOM     12  C   UNL d   1     -38.437  14.524  18.157  0.00  0.00     0.272 C 
ATOM     13  N   UNL d   1     -38.349  13.779  17.813  0.00  0.00    -0.267 N 
ATOM     14  C   UNL d   1     -38.578  13.108  18.241  0.00  0.00     0.110 A 
ATOM     15  C   UNL d   1     -38.039  13.705  17.053  0.00  0.00     0.110 A 
ATOM     16  C   UNL d   1     -38.495  12.363  17.910  0.00  0.00     0.142 A 
ATOM     17  O   UNL d   1     -38.179  12.283  17.136  0.00  0.00    -0.300 OA
ATOM     18  C   UNL d   1     -37.953  12.953  16.712  0.00  0.00     0.142 A 
ATOM     19  O   UNL d   1     -38.214  15.192  17.742  0.00  0.00    -0.266 OA
ENDBRANCH  11  12
ENDBRANCH  10  11
ENDBRANCH   2  10
BRANCH   1  20
ATOM     20  C   UNL d   1     -39.542  15.326  22.050  0.00  0.00     0.080 C 
BRANCH  20  21
ATOM     21  C   UNL d   1     -39.131  14.690  22.366  0.00  0.00     0.018 A 
ATOM     22  C   UNL d   1     -39.454  13.930  22.352  0.00  0.00     0.002 A 
ATOM     23  C   UNL d   1     -39.038  13.294  22.671  0.00  0.00     0.000 A 
ATOM     24  C   UNL d   1     -38.300  13.408  23.004  0.00  0.00     0.000 A 
ATOM     25  C   UNL d   1     -37.964  14.175  23.022  0.00  0.00     0.000 A 
ATOM     26  C   UNL d   1     -38.388  14.811  22.700  0.00  0.00     0.002 A 
ENDBRANCH  20  21
ENDBRANCH   1  20
TORSDOF 5
ENDMDL
MODEL 4
REMARK VINA RESULT:      -5.7      1.539      2.684
REMARK  5 active torsions:
REMARK  status: ('A' for Active; 'I' for Inactive)
REMARK    1  A    between atoms: C_9  and  N_1 
REMARK    2  A    between atoms: S_8  and  C_2 
REMARK    3  A    between atoms: C_6  and  C_10 
REMARK       I    between atoms: N_7  and  C_6 
REMARK    4  A    between atoms: C_10  and  S_8 
REMARK    5  A    between atoms: C_13  and  C_9 
ROOT
ATOM      1  N   UNL d   1     -48.698  13.208  22.701  0.00  0.00    -0.303 N 
ATOM      2  C   UNL d   1     -47.400  12.995  22.926  0.00  0.00     0.049 A 
ATOM      3  C   UNL d   1     -47.962  13.539  22.633  0.00  0.00     0.087 A 
ATOM      4  C   UNL d   1     -47.822  12.328  23.171  0.00  0.00     0.024 A 
ATOM      5  C   UNL d   1     -48.624  12.460  23.032  0.00  0.00     0.065 A 
ATOM      6  C   UNL d   1     -47.571  11.619  23.503  0.00  0.00     0.002 A 
ATOM      7  C   UNL d   1     -49.176  11.883  23.225  0.00  0.00     0.018 A 
ATOM      8  C   UNL d   1     -48.125  11.039  23.698  0.00  0.00     0.000 A 
ATOM      9  C   UNL d   1     -48.928  11.171  23.559  0.00  0.00     0.002 A 
ENDROOT
BRANCH   2  10
ATOM     10  S   UNL d   1     -46.585  13.097  22.965  0.00  0.00    -0.080 SA
BRANCH  10  11
ATOM     11  C   UNL d   1     -46.144  13.214  22.271  0.00  0.00     0.097 C 
BRANCH  11  12
ATOM     12  C   UNL d   1     -45.431  13.622  22.285  0.00  0.00     0.272 C 
ATOM     13  N   UNL d   1     -44.754  13.311  21.930  0.00  0.00    -0.267 N 
ATOM     14  C   UNL d   1     -44.798  12.575  21.554  0.00  0.00     0.110 A 
ATOM     15  C   UNL d   1     -44.044  13.729  21.950  0.00  0.00     0.110 A 
ATOM     16  C   UNL d   1     -44.133  12.256  21.198  0.00  0.00     0.142 A 
ATOM     17  O   UNL d   1     -43.407  12.678  21.216  0.00  0.00    -0.300 OA
ATOM     18  C   UNL d   1     -43.366  13.411  21.591  0.00  0.00     0.142 A 
ATOM     19  O   UNL d   1     -45.396  14.349  22.659  0.00  0.00    -0.266 OA
ENDBRANCH  11  12
ENDBRANCH  10  11
ENDBRANCH   2  10
BRANCH   1  20
ATOM     20  C   UNL d   1     -49.418  13.572  22.470  0.00  0.00     0.080 C 
BRANCH  20  21
ATOM     21  C   UNL d   1     -49.626  14.308  22.769  0.00  0.00     0.018 A 
ATOM     22  C   UNL d   1     -50.177  14.376  23.379  0.00  0.00     0.002 A 
ATOM     23  C   UNL d   1     -50.382  15.116  23.676  0.00  0.00     0.000 A 
ATOM     24  C   UNL d   1     -50.042  15.793  23.369  0.00  0.00     0.000 A 
ATOM     25  C   UNL d   1     -49.482  15.735  22.749  0.00  0.00     0.000 A 
ATOM     26  C   UNL d   1     -49.279  14.987  22.455  0.00  0.00     0.002 A 
ENDBRANCH  20  21
ENDBRANCH   1  20
TORSDOF 5
ENDMDL
