MODEL 1
REMARK VINA RESULT:      -1.8      0.000      0.000
REMARK  4 active torsions:
REMARK  status: ('A' for Active; 'I' for Inactive)
REMARK    1  A    between atoms: N_10  and  C_3 
REMARK    2  A    between atoms: C_11  and  C_5 
REMARK    3  A    between atoms: C_13  and  N_10 
REMARK    4  A    between atoms: C_15  and  C_13 
ROOT
ATOM      1  N   UNL d   1      32.951  20.535 -22.396  0.00  0.00    -0.195 N 
ATOM      2  C   UNL d   1      32.873  21.312 -22.089  0.00  0.00     0.167 A 
ATOM      3  C   UNL d   1      33.076  20.426 -23.207  0.00  0.00     0.167 A 
ATOM      4  N   UNL d   1      32.778  20.002 -21.092  0.00  0.00    -0.163 NA
ATOM      5  C   UNL d   1      32.751  21.419 -21.299  0.00  0.00     0.055 A 
ATOM      6  N   UNL d   1      32.923  21.952 -22.603  0.00  0.00    -0.227 NA
ATOM      7  C   UNL d   1      33.123  21.068 -23.701  0.00  0.00     0.054 A 
ATOM      8  C   UNL d   1      32.702  20.767 -20.790  0.00  0.00     0.104 A 
ATOM      9  C   UNL d   1      33.047  21.848 -23.402  0.00  0.00     0.086 A 
ATOM     10  C   UNL d   1      33.240  21.136 -24.501  0.00  0.00     0.005 A 
ATOM     11  C   UNL d   1      32.578  20.884 -19.990  0.00  0.00     0.023 C 
ATOM     12  C   UNL d   1      33.118  22.376 -24.025  0.00  0.00     0.019 A 
ATOM     13  C   UNL d   1      33.239  21.925 -24.712  0.00  0.00     0.002 A 
ENDROOT
BRANCH   3  14
ATOM     14  N   UNL d   1      33.155  19.643 -23.520  0.00  0.00    -0.224 NA
BRANCH  14  15
ATOM     15  C   UNL d   1      33.067  18.831 -23.302  0.00  0.00     0.120 C 
BRANCH  15  16
ATOM     16  C   UNL d   1      32.703  18.295 -23.827  0.00  0.00     0.101 A 
ATOM     17  N   UNL d   1      33.120  18.031 -24.517  0.00  0.00    -0.242 NA
ATOM     18  C   UNL d   1      32.755  17.489 -25.049  0.00  0.00     0.099 A 
ATOM     19  C   UNL d   1      31.973  17.211 -24.893  0.00  0.00     0.021 A 
ATOM     20  C   UNL d   1      31.556  17.475 -24.205  0.00  0.00     0.003 A 
ATOM     21  C   UNL d   1      31.928  18.019 -23.674  0.00  0.00     0.021 A 
ENDBRANCH  15  16
ENDBRANCH  14  15
ENDBRANCH   3  14
BRANCH   5  22
ATOM     22  C   UNL d   1      32.675  22.179 -20.998  0.00  0.00     0.004 A 
ATOM     23  C   UNL d   1      33.241  22.482 -20.493  0.00  0.00     0.000 A 
ATOM     24  C   UNL d   1      33.164  23.251 -20.189  0.00  0.00     0.000 A 
ATOM     25  C   UNL d   1      32.523  23.701 -20.396  0.00  0.00     0.000 A 
ATOM     26  C   UNL d   1      31.949  23.400 -20.906  0.00  0.00     0.000 A 
ATOM     27  C   UNL d   1      32.028  22.642 -21.204  0.00  0.00     0.000 A 
ENDBRANCH   5  22
TORSDOF 4
ENDMDL
MODEL 2
REMARK VINA RESULT:      -0.8      1.150      4.946
REMARK  4 active torsions:
REMARK  status: ('A' for Active; 'I' for Inactive)
REMARK    1  A    between atoms: N_10  and  C_3 
REMARK    2  A    between atoms: C_11  and  C_5 
REMARK    3  A    between atoms: C_13  and  N_10 
REMARK    4  A    between atoms: C_15  and  C_13 
ROOT
ATOM      1  N   UNL d   1      32.902  18.814 -22.809  0.00  0.00    -0.195 N 
ATOM      2  C   UNL d   1      32.806  18.262 -23.433  0.00  0.00     0.167 A 
ATOM      3  C   UNL d   1      33.027  19.612 -22.984  0.00  0.00     0.167 A 
ATOM      4  N   UNL d   1      32.748  17.769 -21.861  0.00  0.00    -0.163 NA
ATOM      5  C   UNL d   1      32.683  17.482 -23.263  0.00  0.00     0.055 A 
ATOM      6  N   UNL d   1      32.838  18.528 -24.211  0.00  0.00    -0.227 NA
ATOM      7  C   UNL d   1      33.057  19.859 -23.757  0.00  0.00     0.054 A 
ATOM      8  C   UNL d   1      32.653  17.225 -22.476  0.00  0.00     0.104 A 
ATOM      9  C   UNL d   1      32.961  19.314 -24.387  0.00  0.00     0.086 A 
ATOM     10  C   UNL d   1      33.169  20.588 -24.095  0.00  0.00     0.005 A 
ATOM     11  C   UNL d   1      32.528  16.434 -22.311  0.00  0.00     0.023 C 
ATOM     12  C   UNL d   1      33.017  19.720 -25.097  0.00  0.00     0.019 A 
ATOM     13  C   UNL d   1      33.147  20.519 -24.909  0.00  0.00     0.002 A 
ENDROOT
BRANCH   3  14
ATOM     14  N   UNL d   1      33.125  20.172 -22.357  0.00  0.00    -0.224 NA
BRANCH  14  15
ATOM     15  C   UNL d   1      32.939  20.291 -21.540  0.00  0.00     0.120 C 
BRANCH  15  16
ATOM     16  C   UNL d   1      32.703  21.045 -21.271  0.00  0.00     0.101 A 
ATOM     17  N   UNL d   1      31.919  21.159 -20.970  0.00  0.00    -0.242 NA
ATOM     18  C   UNL d   1      31.678  21.919 -20.698  0.00  0.00     0.099 A 
ATOM     19  C   UNL d   1      32.221  22.565 -20.726  0.00  0.00     0.021 A 
ATOM     20  C   UNL d   1      33.004  22.451 -21.026  0.00  0.00     0.003 A 
ATOM     21  C   UNL d   1      33.240  21.686 -21.299  0.00  0.00     0.021 A 
ENDBRANCH  15  16
ENDBRANCH  14  15
ENDBRANCH   3  14
BRANCH   5  22
ATOM     22  C   UNL d   1      32.589  16.942 -23.873  0.00  0.00     0.004 A 
ATOM     23  C   UNL d   1      31.848  16.649 -24.055  0.00  0.00     0.000 A 
ATOM     24  C   UNL d   1      31.753  16.102 -24.673  0.00  0.00     0.000 A 
ATOM     25  C   UNL d   1      32.400  15.860 -25.097  0.00  0.00     0.000 A 
ATOM     26  C   UNL d   1      33.150  16.154 -24.917  0.00  0.00     0.000 A 
ATOM     27  C   UNL d   1      33.240  16.692 -24.308  0.00  0.00     0.000 A 
ENDBRANCH   5  22
TORSDOF 4
ENDMDL
MODEL 3
REMARK VINA RESULT:      -0.4      0.933      2.021
REMARK  4 active torsions:
REMARK  status: ('A' for Active; 'I' for Inactive)
REMARK    1  A    between atoms: N_10  and  C_3 
REMARK    2  A    between atoms: C_11  and  C_5 
REMARK    3  A    between atoms: C_13  and  N_10 
REMARK    4  A    between atoms: C_15  and  C_13 
ROOT
ATOM      1  N   UNL d   1      32.849  20.821 -23.012  0.00  0.00    -0.195 N 
ATOM      2  C   UNL d   1      32.787  21.353 -22.366  0.00  0.00     0.167 A 
ATOM      3  C   UNL d   1      32.993  20.019 -22.869  0.00  0.00     0.167 A 
ATOM      4  N   UNL d   1      32.626  21.892 -23.916  0.00  0.00    -0.163 NA
ATOM      5  C   UNL d   1      32.647  22.136 -22.505  0.00  0.00     0.055 A 
ATOM      6  N   UNL d   1      32.870  21.064 -21.600  0.00  0.00    -0.227 NA
ATOM      7  C   UNL d   1      33.073  19.750 -22.107  0.00  0.00     0.054 A 
ATOM      8  C   UNL d   1      32.564  22.416 -23.280  0.00  0.00     0.104 A 
ATOM      9  C   UNL d   1      33.012  20.275 -21.456  0.00  0.00     0.086 A 
ATOM     10  C   UNL d   1      33.213  19.012 -21.799  0.00  0.00     0.005 A 
ATOM     11  C   UNL d   1      32.422  23.210 -23.412  0.00  0.00     0.023 C 
ATOM     12  C   UNL d   1      33.115  19.848 -20.764  0.00  0.00     0.019 A 
ATOM     13  C   UNL d   1      33.241  19.057 -20.984  0.00  0.00     0.002 A 
ENDROOT
BRANCH   3  14
ATOM     14  N   UNL d   1      33.057  19.479 -23.518  0.00  0.00    -0.224 NA
BRANCH  14  15
ATOM     15  C   UNL d   1      32.706  19.300 -24.266  0.00  0.00     0.120 C 
BRANCH  15  16
ATOM     16  C   UNL d   1      32.556  18.506 -24.477  0.00  0.00     0.101 A 
ATOM     17  N   UNL d   1      33.179  18.033 -24.804  0.00  0.00    -0.242 NA
ATOM     18  C   UNL d   1      33.031  17.231 -25.018  0.00  0.00     0.099 A 
ATOM     19  C   UNL d   1      32.261  16.903 -24.906  0.00  0.00     0.021 A 
ATOM     20  C   UNL d   1      31.639  17.376 -24.580  0.00  0.00     0.003 A 
ATOM     21  C   UNL d   1      31.794  18.180 -24.367  0.00  0.00     0.021 A 
ENDBRANCH  15  16
ENDBRANCH  14  15
ENDBRANCH   3  14
BRANCH   5  22
ATOM     22  C   UNL d   1      32.585  22.656 -21.873  0.00  0.00     0.004 A 
ATOM     23  C   UNL d   1      33.239  23.074 -21.617  0.00  0.00     0.000 A 
ATOM     24  C   UNL d   1      33.177  23.601 -20.977  0.00  0.00     0.000 A 
ATOM     25  C   UNL d   1      32.463  23.699 -20.608  0.00  0.00     0.000 A 
ATOM     26  C   UNL d   1      31.800  23.280 -20.863  0.00  0.00     0.000 A 
ATOM     27  C   UNL d   1      31.865  22.762 -21.493  0.00  0.00     0.000 A 
ENDBRANCH   5  22
TORSDOF 4
ENDMDL
