MODEL 1
REMARK VINA RESULT:      -3.3      0.000      0.000
REMARK  6 active torsions:
REMARK  status: ('A' for Active; 'I' for Inactive)
REMARK    1  A    between atoms: S_2  and  N_1 
REMARK    2  A    between atoms: C_11  and  S_2 
REMARK    3  A    between atoms: O_8  and  C_5 
REMARK    4  A    between atoms: C_7  and  O_8 
REMARK    5  A    between atoms: C_12  and  C_7 
REMARK    6  A    between atoms: O_20  and  C_17 
ROOT
ATOM      1  N   UNL d   1      31.352  16.721 -23.935  0.00  0.00    -0.130 N 
ATOM      2  N   UNL d   1      31.635  17.285 -23.405  0.00  0.00    -0.128 NA
ATOM      3  C   UNL d   1      31.956  16.517 -24.451  0.00  0.00     0.200 A 
ATOM      4  C   UNL d   1      32.427  17.429 -23.598  0.00  0.00     0.208 A 
ATOM      5  C   UNL d   1      32.624  16.961 -24.236  0.00  0.00     0.088 A 
ATOM      6  N   UNL d   1      31.909  15.973 -25.066  0.00  0.00    -0.126 N 
ENDROOT
BRANCH   4   7
ATOM      7  O   UNL d   1      32.932  17.958 -23.208  0.00  0.00    -0.253 OA
BRANCH   7   8
ATOM      8  C   UNL d   1      33.027  18.726 -23.497  0.00  0.00     0.301 C 
ATOM      9  O   UNL d   1      33.068  18.862 -24.307  0.00  0.00    -0.259 OA
BRANCH   8  10
ATOM     10  C   UNL d   1      33.080  19.362 -22.974  0.00  0.00     0.064 A 
ATOM     11  C   UNL d   1      33.109  19.235 -22.155  0.00  0.00     0.007 A 
ATOM     12  C   UNL d   1      33.162  19.862 -21.632  0.00  0.00     0.024 A 
ATOM     13  C   UNL d   1      33.187  20.638 -21.926  0.00  0.00     0.094 A 
ATOM     14  C   UNL d   1      33.159  20.765 -22.744  0.00  0.00     0.024 A 
ATOM     15  C   UNL d   1      33.105  20.133 -23.267  0.00  0.00     0.007 A 
BRANCH  13  16
ATOM     16  O   UNL d   1      33.240  21.274 -21.419  0.00  0.00    -0.328 OA
ATOM     17  C   UNL d   1      32.607  21.510 -20.949  0.00  0.00     0.181 C 
ENDBRANCH  13  16
ENDBRANCH   8  10
ENDBRANCH   7   8
ENDBRANCH   4   7
BRANCH   1  18
ATOM     18  S   UNL d   1      30.586  16.414 -23.945  0.00  0.00     0.287 S 
ATOM     19  O   UNL d   1      30.305  17.072 -24.381  0.00  0.00    -0.198 OA
ATOM     20  O   UNL d   1      30.851  15.774 -23.522  0.00  0.00    -0.198 OA
BRANCH  18  21
ATOM     21  C   UNL d   1      29.827  16.094 -23.946  0.00  0.00     0.105 A 
ATOM     22  C   UNL d   1      29.407  16.024 -24.655  0.00  0.00     0.013 A 
ATOM     23  C   UNL d   1      28.647  15.703 -24.652  0.00  0.00     0.001 A 
ATOM     24  C   UNL d   1      28.306  15.453 -23.947  0.00  0.00     0.000 A 
ATOM     25  C   UNL d   1      28.725  15.523 -23.242  0.00  0.00     0.001 A 
ATOM     26  C   UNL d   1      29.486  15.843 -23.233  0.00  0.00     0.013 A 
ENDBRANCH  18  21
ENDBRANCH   1  18
TORSDOF 6
ENDMDL
MODEL 2
REMARK VINA RESULT:      -2.4      2.472      5.895
REMARK  6 active torsions:
REMARK  status: ('A' for Active; 'I' for Inactive)
REMARK    1  A    between atoms: S_2  and  N_1 
REMARK    2  A    between atoms: C_11  and  S_2 
REMARK    3  A    between atoms: O_8  and  C_5 
REMARK    4  A    between atoms: C_7  and  O_8 
REMARK    5  A    between atoms: C_12  and  C_7 
REMARK    6  A    between atoms: O_20  and  C_17 
ROOT
ATOM      1  N   UNL d   1      32.933  21.196 -21.847  0.00  0.00    -0.130 N 
ATOM      2  N   UNL d   1      32.860  20.387 -21.706  0.00  0.00    -0.128 NA
ATOM      3  C   UNL d   1      33.120  21.309 -22.638  0.00  0.00     0.200 A 
ATOM      4  C   UNL d   1      33.005  19.997 -22.422  0.00  0.00     0.208 A 
ATOM      5  C   UNL d   1      33.163  20.560 -22.991  0.00  0.00     0.088 A 
ATOM      6  N   UNL d   1      33.241  22.033 -23.011  0.00  0.00    -0.126 N 
ENDROOT
BRANCH   4   7
ATOM      7  O   UNL d   1      32.991  19.177 -22.539  0.00  0.00    -0.253 OA
BRANCH   7   8
ATOM      8  C   UNL d   1      32.882  18.870 -23.298  0.00  0.00     0.301 C 
ATOM      9  O   UNL d   1      32.973  19.354 -23.957  0.00  0.00    -0.259 OA
BRANCH   8  10
ATOM     10  C   UNL d   1      32.682  18.077 -23.399  0.00  0.00     0.064 A 
ATOM     11  C   UNL d   1      32.039  17.860 -23.875  0.00  0.00     0.007 A 
ATOM     12  C   UNL d   1      31.837  17.073 -23.978  0.00  0.00     0.024 A 
ATOM     13  C   UNL d   1      32.281  16.484 -23.600  0.00  0.00     0.094 A 
ATOM     14  C   UNL d   1      32.923  16.700 -23.123  0.00  0.00     0.024 A 
ATOM     15  C   UNL d   1      33.125  17.491 -23.021  0.00  0.00     0.007 A 
BRANCH  13  16
ATOM     16  O   UNL d   1      32.093  15.696 -23.691  0.00  0.00    -0.328 OA
ATOM     17  C   UNL d   1      31.356  15.454 -23.966  0.00  0.00     0.181 C 
ENDBRANCH  13  16
ENDBRANCH   8  10
ENDBRANCH   7   8
ENDBRANCH   4   7
BRANCH   1  18
ATOM     18  S   UNL d   1      32.834  21.791 -21.285  0.00  0.00     0.287 S 
ATOM     19  O   UNL d   1      33.174  21.314 -20.688  0.00  0.00    -0.198 OA
ATOM     20  O   UNL d   1      32.503  22.260 -21.860  0.00  0.00    -0.198 OA
BRANCH  18  21
ATOM     21  C   UNL d   1      32.728  22.397 -20.736  0.00  0.00     0.105 A 
ATOM     22  C   UNL d   1      33.217  22.443 -20.070  0.00  0.00     0.013 A 
ATOM     23  C   UNL d   1      33.108  23.050 -19.522  0.00  0.00     0.001 A 
ATOM     24  C   UNL d   1      32.515  23.609 -19.636  0.00  0.00     0.000 A 
ATOM     25  C   UNL d   1      32.030  23.561 -20.300  0.00  0.00     0.001 A 
ATOM     26  C   UNL d   1      32.130  22.958 -20.854  0.00  0.00     0.013 A 
ENDBRANCH  18  21
ENDBRANCH   1  18
TORSDOF 6
ENDMDL
MODEL 3
REMARK VINA RESULT:      -2.0      3.674      6.945
REMARK  6 active torsions:
REMARK  status: ('A' for Active; 'I' for Inactive)
REMARK    1  A    between atoms: S_2  and  N_1 
REMARK    2  A    between atoms: C_11  and  S_2 
REMARK    3  A    between atoms: O_8  and  C_5 
REMARK    4  A    between atoms: C_7  and  O_8 
REMARK    5  A    between atoms: C_12  and  C_7 
REMARK    6  A    between atoms: O_20  and  C_17 
ROOT
ATOM      1  N   UNL d   1      32.592  22.615 -19.885  0.00  0.00    -0.130 N 
ATOM      2  N   UNL d   1      32.973  21.963 -20.214  0.00  0.00    -0.128 NA
ATOM      3  C   UNL d   1      32.197  23.017 -20.481  0.00  0.00     0.200 A 
ATOM      4  C   UNL d   1      32.810  21.964 -21.026  0.00  0.00     0.208 A 
ATOM      5  C   UNL d   1      32.336  22.607 -21.189  0.00  0.00     0.088 A 
ATOM      6  N   UNL d   1      31.746  23.699 -20.393  0.00  0.00    -0.126 N 
ENDROOT
BRANCH   4   7
ATOM      7  O   UNL d   1      33.082  21.407 -21.576  0.00  0.00    -0.253 OA
BRANCH   7   8
ATOM      8  C   UNL d   1      32.931  20.604 -21.459  0.00  0.00     0.301 C 
ATOM      9  O   UNL d   1      32.704  20.329 -20.718  0.00  0.00    -0.259 OA
BRANCH   8  10
ATOM     10  C   UNL d   1      33.008  20.072 -22.085  0.00  0.00     0.064 A 
ATOM     11  C   UNL d   1      33.160  19.270 -21.943  0.00  0.00     0.007 A 
ATOM     12  C   UNL d   1      33.236  18.739 -22.561  0.00  0.00     0.024 A 
ATOM     13  C   UNL d   1      33.160  19.008 -23.342  0.00  0.00     0.094 A 
ATOM     14  C   UNL d   1      33.008  19.810 -23.484  0.00  0.00     0.024 A 
ATOM     15  C   UNL d   1      32.932  20.341 -22.862  0.00  0.00     0.007 A 
BRANCH  13  16
ATOM     16  O   UNL d   1      33.234  18.493 -23.970  0.00  0.00    -0.328 OA
ATOM     17  C   UNL d   1      32.584  18.103 -24.291  0.00  0.00     0.181 C 
ENDBRANCH  13  16
ENDBRANCH   8  10
ENDBRANCH   7   8
ENDBRANCH   4   7
BRANCH   1  18
ATOM     18  S   UNL d   1      32.606  22.827 -19.088  0.00  0.00     0.287 S 
ATOM     19  O   UNL d   1      33.230  23.370 -19.222  0.00  0.00    -0.198 OA
ATOM     20  O   UNL d   1      32.001  22.303 -18.951  0.00  0.00    -0.198 OA
BRANCH  18  21
ATOM     21  C   UNL d   1      32.608  23.029 -18.289  0.00  0.00     0.105 A 
ATOM     22  C   UNL d   1      32.005  23.503 -17.980  0.00  0.00     0.013 A 
ATOM     23  C   UNL d   1      32.009  23.702 -17.179  0.00  0.00     0.001 A 
ATOM     24  C   UNL d   1      32.611  23.431 -16.689  0.00  0.00     0.000 A 
ATOM     25  C   UNL d   1      33.211  22.959 -16.999  0.00  0.00     0.001 A 
ATOM     26  C   UNL d   1      33.216  22.753 -17.798  0.00  0.00     0.013 A 
ENDBRANCH  18  21
ENDBRANCH   1  18
TORSDOF 6
ENDMDL
MODEL 4
REMARK VINA RESULT:      -1.0      1.332      5.083
REMARK  6 active torsions:
REMARK  status: ('A' for Active; 'I' for Inactive)
REMARK    1  A    between atoms: S_2  and  N_1 
REMARK    2  A    between atoms: C_11  and  S_2 
REMARK    3  A    between atoms: O_8  and  C_5 
REMARK    4  A    between atoms: C_7  and  O_8 
REMARK    5  A    between atoms: C_12  and  C_7 
REMARK    6  A    between atoms: O_20  and  C_17 
ROOT
ATOM      1  N   UNL d   1      32.112  18.306 -24.034  0.00  0.00    -0.130 N 
ATOM      2  N   UNL d   1      31.388  17.920 -23.956  0.00  0.00    -0.128 NA
ATOM      3  C   UNL d   1      32.501  18.005 -24.691  0.00  0.00     0.200 A 
ATOM      4  C   UNL d   1      31.331  17.372 -24.575  0.00  0.00     0.208 A 
ATOM      5  C   UNL d   1      32.011  17.424 -25.024  0.00  0.00     0.088 A 
ATOM      6  N   UNL d   1      33.241  18.236 -24.968  0.00  0.00    -0.126 N 
ENDROOT
BRANCH   4   7
ATOM      7  O   UNL d   1      30.694  16.861 -24.713  0.00  0.00    -0.253 OA
BRANCH   7   8
ATOM      8  C   UNL d   1      29.922  17.153 -24.704  0.00  0.00     0.301 C 
ATOM      9  O   UNL d   1      29.746  17.870 -25.067  0.00  0.00    -0.259 OA
BRANCH   8  10
ATOM     10  C   UNL d   1      29.322  16.727 -24.331  0.00  0.00     0.064 A 
ATOM     11  C   UNL d   1      29.307  15.899 -24.366  0.00  0.00     0.007 A 
ATOM     12  C   UNL d   1      28.714  15.472 -23.997  0.00  0.00     0.024 A 
ATOM     13  C   UNL d   1      28.119  15.873 -23.582  0.00  0.00     0.094 A 
ATOM     14  C   UNL d   1      28.134  16.701 -23.546  0.00  0.00     0.024 A 
ATOM     15  C   UNL d   1      28.731  17.128 -23.917  0.00  0.00     0.007 A 
BRANCH  13  16
ATOM     16  O   UNL d   1      27.521  15.464 -23.208  0.00  0.00    -0.328 OA
ATOM     17  C   UNL d   1      26.736  15.706 -23.251  0.00  0.00     0.181 C 
ENDBRANCH  13  16
ENDBRANCH   8  10
ENDBRANCH   7   8
ENDBRANCH   4   7
BRANCH   1  18
ATOM     18  S   UNL d   1      32.397  18.897 -23.535  0.00  0.00     0.287 S 
ATOM     19  O   UNL d   1      32.586  19.387 -24.187  0.00  0.00    -0.198 OA
ATOM     20  O   UNL d   1      32.216  18.427 -22.897  0.00  0.00    -0.198 OA
BRANCH  18  21
ATOM     21  C   UNL d   1      32.678  19.478 -23.022  0.00  0.00     0.105 A 
ATOM     22  C   UNL d   1      32.698  19.338 -22.207  0.00  0.00     0.013 A 
ATOM     23  C   UNL d   1      32.980  19.922 -21.697  0.00  0.00     0.001 A 
ATOM     24  C   UNL d   1      33.241  20.642 -21.996  0.00  0.00     0.000 A 
ATOM     25  C   UNL d   1      33.221  20.779 -22.808  0.00  0.00     0.001 A 
ATOM     26  C   UNL d   1      32.941  20.203 -23.328  0.00  0.00     0.013 A 
ENDBRANCH  18  21
ENDBRANCH   1  18
TORSDOF 6
ENDMDL
