MODEL 1
REMARK VINA RESULT:      -5.4      0.000      0.000
REMARK  2 active torsions:
REMARK  status: ('A' for Active; 'I' for Inactive)
REMARK    1  A    between atoms: C_7  and  C_2 
REMARK    2  A    between atoms: C_5  and  C_7 
ROOT
ATOM      1  C   UNL d   1     -41.288-122.629 -53.319  0.00  0.00     0.021 A 
ATOM      2  N   UNL d   1     -41.356-123.699 -54.097  0.00  0.00    -0.244 NA
ATOM      3  C   UNL d   1     -41.123-123.431 -53.356  0.00  0.00     0.099 A 
ATOM      4  C   UNL d   1     -41.620-122.401 -54.031  0.00  0.00     0.019 A 
ATOM      5  C   UNL d   1     -41.662-123.063 -54.514  0.00  0.00     0.081 A 
ATOM      6  C   UNL d   1     -41.892-121.668 -54.307  0.00  0.00     0.002 A 
ATOM      7  C   UNL d   1     -41.977-123.001 -55.277  0.00  0.00     0.019 A 
ATOM      8  C   UNL d   1     -42.207-121.599 -55.066  0.00  0.00     0.000 A 
ATOM      9  C   UNL d   1     -42.250-122.267 -55.553  0.00  0.00     0.002 A 
ENDROOT
BRANCH   1  10
ATOM     10  C   UNL d   1     -41.139-122.139 -52.665  0.00  0.00     0.011 C 
BRANCH  10  11
ATOM     11  C   UNL d   1     -41.199-122.445 -51.902  0.00  0.00     0.062 A 
ATOM     12  C   UNL d   1     -41.190-121.932 -51.255  0.00  0.00     0.145 A 
ATOM     13  N   UNL d   1     -41.258-122.394 -50.573  0.00  0.00    -0.191 NA
ATOM     14  S   UNL d   1     -41.123-121.101 -51.284  0.00  0.00    -0.057 SA
ATOM     15  C   UNL d   1     -41.310-123.173 -50.790  0.00  0.00     0.311 A 
ATOM     16  S   UNL d   1     -41.273-123.211 -51.614  0.00  0.00    -0.023 SA
ATOM     17  O   UNL d   1     -41.385-123.816 -50.265  0.00  0.00    -0.258 OA
ENDBRANCH  10  11
ENDBRANCH   1  10
TORSDOF 2
ENDMDL
MODEL 2
REMARK VINA RESULT:      -5.3      1.862      3.787
REMARK  2 active torsions:
REMARK  status: ('A' for Active; 'I' for Inactive)
REMARK    1  A    between atoms: C_7  and  C_2 
REMARK    2  A    between atoms: C_5  and  C_7 
ROOT
ATOM      1  C   UNL d   1     -41.195-122.380 -52.551  0.00  0.00     0.021 A 
ATOM      2  N   UNL d   1     -41.180-121.300 -51.784  0.00  0.00    -0.244 NA
ATOM      3  C   UNL d   1     -41.201-121.560 -52.563  0.00  0.00     0.099 A 
ATOM      4  C   UNL d   1     -41.172-122.626 -51.771  0.00  0.00     0.019 A 
ATOM      5  C   UNL d   1     -41.162-121.957 -51.295  0.00  0.00     0.081 A 
ATOM      6  C   UNL d   1     -41.157-123.380 -51.427  0.00  0.00     0.002 A 
ATOM      7  C   UNL d   1     -41.138-122.035 -50.472  0.00  0.00     0.019 A 
ATOM      8  C   UNL d   1     -41.133-123.464 -50.607  0.00  0.00     0.000 A 
ATOM      9  C   UNL d   1     -41.124-122.790 -50.127  0.00  0.00     0.002 A 
ENDROOT
BRANCH   1  10
ATOM     10  C   UNL d   1     -41.212-122.869 -53.221  0.00  0.00     0.011 C 
BRANCH  10  11
ATOM     11  C   UNL d   1     -41.570-122.603 -53.915  0.00  0.00     0.062 A 
ATOM     12  C   UNL d   1     -41.543-123.070 -54.594  0.00  0.00     0.145 A 
ATOM     13  N   UNL d   1     -41.944-122.664 -55.191  0.00  0.00    -0.191 NA
ATOM     14  S   UNL d   1     -41.176-123.817 -54.665  0.00  0.00    -0.057 SA
ATOM     15  C   UNL d   1     -42.214-121.961 -54.890  0.00  0.00     0.311 A 
ATOM     16  S   UNL d   1     -41.985-121.918 -54.098  0.00  0.00    -0.023 SA
ATOM     17  O   UNL d   1     -42.647-121.389 -55.315  0.00  0.00    -0.258 OA
ENDBRANCH  10  11
ENDBRANCH   1  10
TORSDOF 2
ENDMDL
MODEL 3
REMARK VINA RESULT:      -4.5      1.986      4.407
REMARK  2 active torsions:
REMARK  status: ('A' for Active; 'I' for Inactive)
REMARK    1  A    between atoms: C_7  and  C_2 
REMARK    2  A    between atoms: C_5  and  C_7 
ROOT
ATOM      1  C   UNL d   1     -42.158-122.915 -49.975  0.00  0.00     0.021 A 
ATOM      2  N   UNL d   1     -43.304-123.503 -49.668  0.00  0.00    -0.244 NA
ATOM      3  C   UNL d   1     -42.890-123.132 -50.273  0.00  0.00     0.099 A 
ATOM      4  C   UNL d   1     -42.117-123.150 -49.193  0.00  0.00     0.019 A 
ATOM      5  C   UNL d   1     -42.827-123.515 -49.001  0.00  0.00     0.081 A 
ATOM      6  C   UNL d   1     -41.520-123.080 -48.622  0.00  0.00     0.002 A 
ATOM      7  C   UNL d   1     -42.948-123.812 -48.239  0.00  0.00     0.019 A 
ATOM      8  C   UNL d   1     -41.634-123.374 -47.860  0.00  0.00     0.000 A 
ATOM      9  C   UNL d   1     -42.350-123.741 -47.667  0.00  0.00     0.002 A 
ENDROOT
BRANCH   1  10
ATOM     10  C   UNL d   1     -41.564-122.524 -50.403  0.00  0.00     0.011 C 
BRANCH  10  11
ATOM     11  C   UNL d   1     -41.438-122.712 -51.196  0.00  0.00     0.062 A 
ATOM     12  C   UNL d   1     -41.228-122.117 -51.729  0.00  0.00     0.145 A 
ATOM     13  N   UNL d   1     -41.141-122.469 -52.471  0.00  0.00    -0.191 NA
ATOM     14  S   UNL d   1     -41.124-121.308 -51.550  0.00  0.00    -0.057 SA
ATOM     15  C   UNL d   1     -41.292-123.263 -52.402  0.00  0.00     0.311 A 
ATOM     16  S   UNL d   1     -41.477-123.419 -51.613  0.00  0.00    -0.023 SA
ATOM     17  O   UNL d   1     -41.263-123.815 -53.025  0.00  0.00    -0.258 OA
ENDBRANCH  10  11
ENDBRANCH   1  10
TORSDOF 2
ENDMDL
MODEL 4
REMARK VINA RESULT:      -3.9      1.948      2.966
REMARK  2 active torsions:
REMARK  status: ('A' for Active; 'I' for Inactive)
REMARK    1  A    between atoms: C_7  and  C_2 
REMARK    2  A    between atoms: C_5  and  C_7 
ROOT
ATOM      1  C   UNL d   1     -41.886-122.937 -50.812  0.00  0.00     0.021 A 
ATOM      2  N   UNL d   1     -41.436-121.785 -51.287  0.00  0.00    -0.244 NA
ATOM      3  C   UNL d   1     -41.745-122.152 -50.620  0.00  0.00     0.099 A 
ATOM      4  C   UNL d   1     -41.667-123.055 -51.591  0.00  0.00     0.019 A 
ATOM      5  C   UNL d   1     -41.387-122.342 -51.886  0.00  0.00     0.081 A 
ATOM      6  C   UNL d   1     -41.684-123.727 -52.076  0.00  0.00     0.002 A 
ATOM      7  C   UNL d   1     -41.123-122.293 -52.669  0.00  0.00     0.019 A 
ATOM      8  C   UNL d   1     -41.422-123.685 -52.857  0.00  0.00     0.000 A 
ATOM      9  C   UNL d   1     -41.141-122.966 -53.155  0.00  0.00     0.002 A 
ENDROOT
BRANCH   1  10
ATOM     10  C   UNL d   1     -42.199-123.507 -50.296  0.00  0.00     0.011 C 
BRANCH  10  11
ATOM     11  C   UNL d   1     -42.085-123.431 -49.483  0.00  0.00     0.062 A 
ATOM     12  C   UNL d   1     -42.711-123.584 -48.966  0.00  0.00     0.145 A 
ATOM     13  N   UNL d   1     -42.432-123.464 -48.198  0.00  0.00    -0.191 NA
ATOM     14  S   UNL d   1     -43.483-123.817 -49.181  0.00  0.00    -0.057 SA
ATOM     15  C   UNL d   1     -41.653-123.241 -48.235  0.00  0.00     0.311 A 
ATOM     16  S   UNL d   1     -41.433-123.220 -49.030  0.00  0.00    -0.023 SA
ATOM     17  O   UNL d   1     -41.169-123.068 -47.579  0.00  0.00    -0.258 OA
ENDBRANCH  10  11
ENDBRANCH   1  10
TORSDOF 2
ENDMDL
