MODEL 1
REMARK VINA RESULT:      52.3      0.000      0.000
REMARK  5 active torsions:
REMARK  status: ('A' for Active; 'I' for Inactive)
REMARK    1  A    between atoms: N_3  and  C_1 
REMARK       I    between atoms: C_6  and  N_3 
REMARK    2  A    between atoms: C_9  and  C_6 
REMARK    3  A    between atoms: C_12  and  C_7 
REMARK    4  A    between atoms: S_8  and  C_9 
REMARK    5  A    between atoms: C_11  and  S_8 
ROOT
ATOM      1  N   UNL d   1      61.300  48.088  50.144  0.00  0.00    -0.181 NA
ATOM      2  C   UNL d   1      60.650  48.474  50.473  0.00  0.00     0.287 C 
ATOM      3  O   UNL d   1      60.031  48.031  50.782  0.00  0.00    -0.265 OA
ENDROOT
BRANCH   2   4
ATOM      4  C   UNL d   1      60.626  49.297  50.490  0.00  0.00     0.087 C 
ATOM      5  C   UNL d   1      60.160  49.704  49.952  0.00  0.00     0.012 C 
BRANCH   4   6
ATOM      6  S   UNL d   1      61.075  49.705  51.054  0.00  0.00    -0.082 SA
BRANCH   6   7
ATOM      7  C   UNL d   1      60.848  49.706  51.834  0.00  0.00     0.030 A 
ATOM      8  C   UNL d   1      61.421  49.706  52.427  0.00  0.00     0.006 A 
ATOM      9  C   UNL d   1      61.190  49.707  53.224  0.00  0.00     0.001 A 
ATOM     10  C   UNL d   1      60.384  49.708  53.413  0.00  0.00     0.000 A 
ATOM     11  C   UNL d   1      59.819  49.707  52.821  0.00  0.00     0.001 A 
ATOM     12  C   UNL d   1      60.041  49.706  52.023  0.00  0.00     0.006 A 
ENDBRANCH   6   7
ENDBRANCH   4   6
ENDBRANCH   2   4
BRANCH   1  13
ATOM     13  C   UNL d   1      61.332  47.267  50.124  0.00  0.00     0.219 A 
ATOM     14  S   UNL d   1      61.762  46.809  49.593  0.00  0.00    -0.026 SA
ATOM     15  C   UNL d   1      61.633  46.014  49.774  0.00  0.00     0.135 A 
ATOM     16  N   UNL d   1      61.120  45.984  50.422  0.00  0.00    -0.139 NA
ATOM     17  N   UNL d   1      60.934  46.758  50.638  0.00  0.00    -0.121 NA
BRANCH  15  18
ATOM     18  C   UNL d   1      61.955  45.363  49.383  0.00  0.00     0.028 C 
ATOM     19  C   UNL d   1      61.472  44.910  48.885  0.00  0.00     0.002 C 
ENDBRANCH  15  18
ENDBRANCH   1  13
TORSDOF 5
ENDMDL
