MODEL 1
REMARK VINA RESULT:      -6.7      0.000      0.000
REMARK  10 active torsions:
REMARK  status: ('A' for Active; 'I' for Inactive)
REMARK    1  A    between atoms: N_9  and  C_1 
REMARK    2  A    between atoms: C_4  and  S_21 
REMARK    3  A    between atoms: C_23  and  C_8 
REMARK       I    between atoms: C_19  and  N_9 
REMARK    4  A    between atoms: O_26  and  C_10 
REMARK    5  A    between atoms: C_11  and  C_12 
REMARK       I    between atoms: C_12  and  N_20 
REMARK    6  A    between atoms: O_27  and  C_13 
REMARK    7  A    between atoms: O_28  and  C_14 
REMARK    8  A    between atoms: C_25  and  C_19 
REMARK    9  A    between atoms: N_20  and  C_23 
REMARK   10  A    between atoms: S_21  and  C_25 
ROOT
ATOM      1  O   UNL d   1     -43.538  13.570  21.775  0.00  0.00    -0.262 OA
ATOM      2  C   UNL d   1     -43.923  12.835  21.823  0.00  0.00     0.236 A 
ATOM      3  N   UNL d   1     -43.432  12.275  21.483  0.00  0.00    -0.114 NA
ATOM      4  N   UNL d   1     -42.748  12.656  21.226  0.00  0.00    -0.119 NA
ATOM      5  C   UNL d   1     -42.814  13.453  21.406  0.00  0.00     0.224 A 
ENDROOT
BRANCH   5   6
ATOM      6  C   UNL d   1     -42.251  14.034  21.245  0.00  0.00     0.149 C 
BRANCH   6   7
ATOM      7  N   UNL d   1     -41.666  13.903  20.682  0.00  0.00    -0.203 NA
ATOM      8  C   UNL d   1     -41.149  14.515  20.474  0.00  0.00     0.279 C 
ATOM      9  O   UNL d   1     -41.215  15.254  20.827  0.00  0.00    -0.265 OA
BRANCH   8  10
ATOM     10  C   UNL d   1     -40.562  14.377  19.907  0.00  0.00     0.062 A 
ATOM     11  C   UNL d   1     -40.740  14.473  19.101  0.00  0.00     0.031 A 
ATOM     12  C   UNL d   1     -40.154  14.335  18.551  0.00  0.00     0.118 A 
ATOM     13  C   UNL d   1     -39.407  14.108  18.772  0.00  0.00     0.138 A 
ATOM     14  C   UNL d   1     -39.239  14.015  19.587  0.00  0.00     0.118 A 
ATOM     15  C   UNL d   1     -39.828  14.154  20.141  0.00  0.00     0.031 A 
BRANCH  12  16
ATOM     16  O   UNL d   1     -40.319  14.427  17.741  0.00  0.00    -0.326 OA
ATOM     17  C   UNL d   1     -40.830  15.035  17.497  0.00  0.00     0.181 C 
ENDBRANCH  12  16
BRANCH  13  18
ATOM     18  O   UNL d   1     -38.818  13.970  18.223  0.00  0.00    -0.324 OA
ATOM     19  C   UNL d   1     -38.739  13.217  17.874  0.00  0.00     0.182 C 
ENDBRANCH  13  18
BRANCH  14  20
ATOM     20  O   UNL d   1     -38.477  13.783  19.823  0.00  0.00    -0.326 OA
ATOM     21  C   UNL d   1     -38.215  13.917  20.585  0.00  0.00     0.181 C 
ENDBRANCH  14  20
ENDBRANCH   8  10
ENDBRANCH   6   7
ENDBRANCH   5   6
BRANCH   2  22
ATOM     22  S   UNL d   1     -44.666  12.702  22.154  0.00  0.00    -0.036 SA
BRANCH  22  23
ATOM     23  C   UNL d   1     -45.228  13.294  22.157  0.00  0.00     0.101 C 
BRANCH  23  24
ATOM     24  C   UNL d   1     -45.982  13.158  22.498  0.00  0.00     0.288 C 
ATOM     25  N   UNL d   1     -46.663  13.272  22.044  0.00  0.00    -0.182 NA
ATOM     26  O   UNL d   1     -46.042  12.916  23.277  0.00  0.00    -0.265 OA
BRANCH  25  27
ATOM     27  C   UNL d   1     -47.413  13.140  22.373  0.00  0.00     0.197 A 
ATOM     28  N   UNL d   1     -47.762  12.396  22.489  0.00  0.00    -0.221 NA
ATOM     29  C   UNL d   1     -48.506  12.515  22.829  0.00  0.00     0.090 A 
ATOM     30  C   UNL d   1     -49.093  11.998  23.064  0.00  0.00     0.020 A 
ATOM     31  C   UNL d   1     -48.615  13.340  22.923  0.00  0.00     0.050 A 
ATOM     32  C   UNL d   1     -49.799  12.278  23.396  0.00  0.00     0.002 A 
ATOM     33  C   UNL d   1     -49.903  13.097  23.487  0.00  0.00     0.001 A 
ATOM     34  C   UNL d   1     -49.315  13.616  23.252  0.00  0.00     0.008 A 
ATOM     35  S   UNL d   1     -47.938  13.725  22.641  0.00  0.00    -0.047 SA
ENDBRANCH  25  27
ENDBRANCH  23  24
ENDBRANCH  22  23
ENDBRANCH   2  22
TORSDOF 10
ENDMDL
MODEL 2
REMARK VINA RESULT:      -6.4      1.800      8.302
REMARK  10 active torsions:
REMARK  status: ('A' for Active; 'I' for Inactive)
REMARK    1  A    between atoms: N_9  and  C_1 
REMARK    2  A    between atoms: C_4  and  S_21 
REMARK    3  A    between atoms: C_23  and  C_8 
REMARK       I    between atoms: C_19  and  N_9 
REMARK    4  A    between atoms: O_26  and  C_10 
REMARK    5  A    between atoms: C_11  and  C_12 
REMARK       I    between atoms: C_12  and  N_20 
REMARK    6  A    between atoms: O_27  and  C_13 
REMARK    7  A    between atoms: O_28  and  C_14 
REMARK    8  A    between atoms: C_25  and  C_19 
REMARK    9  A    between atoms: N_20  and  C_23 
REMARK   10  A    between atoms: S_21  and  C_25 
ROOT
ATOM      1  O   UNL d   1     -44.021  13.559  21.672  0.00  0.00    -0.262 OA
ATOM      2  C   UNL d   1     -43.423  13.010  21.495  0.00  0.00     0.236 A 
ATOM      3  N   UNL d   1     -43.654  12.284  21.796  0.00  0.00    -0.114 NA
ATOM      4  N   UNL d   1     -44.389  12.380  22.157  0.00  0.00    -0.119 NA
ATOM      5  C   UNL d   1     -44.614  13.164  22.081  0.00  0.00     0.224 A 
ENDROOT
BRANCH   5   6
ATOM      6  C   UNL d   1     -45.313  13.496  22.365  0.00  0.00     0.149 C 
BRANCH   6   7
ATOM      7  N   UNL d   1     -46.005  13.053  22.393  0.00  0.00    -0.203 NA
ATOM      8  C   UNL d   1     -46.709  13.402  22.650  0.00  0.00     0.279 C 
ATOM      9  O   UNL d   1     -46.723  14.192  22.879  0.00  0.00    -0.265 OA
BRANCH   8  10
ATOM     10  C   UNL d   1     -47.402  12.951  22.677  0.00  0.00     0.062 A 
ATOM     11  C   UNL d   1     -47.424  12.258  23.136  0.00  0.00     0.031 A 
ATOM     12  C   UNL d   1     -48.113  11.822  23.154  0.00  0.00     0.118 A 
ATOM     13  C   UNL d   1     -48.772  12.048  22.738  0.00  0.00     0.138 A 
ATOM     14  C   UNL d   1     -48.739  12.747  22.279  0.00  0.00     0.118 A 
ATOM     15  C   UNL d   1     -48.046  13.187  22.260  0.00  0.00     0.031 A 
BRANCH  12  16
ATOM     16  O   UNL d   1     -48.148  11.126  23.609  0.00  0.00    -0.326 OA
ATOM     17  C   UNL d   1     -47.468  10.654  23.682  0.00  0.00     0.181 C 
ENDBRANCH  12  16
BRANCH  13  18
ATOM     18  O   UNL d   1     -49.463  11.611  22.755  0.00  0.00    -0.324 OA
ATOM     19  C   UNL d   1     -50.048  11.776  23.325  0.00  0.00     0.182 C 
ENDBRANCH  13  18
BRANCH  14  20
ATOM     20  O   UNL d   1     -49.409  12.986  21.850  0.00  0.00    -0.326 OA
ATOM     21  C   UNL d   1     -49.339  13.489  21.210  0.00  0.00     0.181 C 
ENDBRANCH  14  20
ENDBRANCH   8  10
ENDBRANCH   6   7
ENDBRANCH   5   6
BRANCH   2  22
ATOM     22  S   UNL d   1     -42.725  13.173  21.088  0.00  0.00    -0.036 SA
BRANCH  22  23
ATOM     23  C   UNL d   1     -42.243  13.786  21.329  0.00  0.00     0.101 C 
BRANCH  23  24
ATOM     24  C   UNL d   1     -41.583  14.013  20.863  0.00  0.00     0.288 C 
ATOM     25  N   UNL d   1     -41.331  14.800  20.867  0.00  0.00    -0.182 NA
ATOM     26  O   UNL d   1     -41.193  13.457  20.406  0.00  0.00    -0.265 OA
BRANCH  25  27
ATOM     27  C   UNL d   1     -40.679  15.033  20.408  0.00  0.00     0.197 A 
ATOM     28  N   UNL d   1     -40.723  15.364  19.647  0.00  0.00    -0.221 NA
ATOM     29  C   UNL d   1     -39.951  15.514  19.393  0.00  0.00     0.090 A 
ATOM     30  C   UNL d   1     -39.652  15.831  18.702  0.00  0.00     0.020 A 
ATOM     31  C   UNL d   1     -39.429  15.275  20.002  0.00  0.00     0.050 A 
ATOM     32  C   UNL d   1     -38.835  15.920  18.594  0.00  0.00     0.002 A 
ATOM     33  C   UNL d   1     -38.321  15.681  19.201  0.00  0.00     0.001 A 
ATOM     34  C   UNL d   1     -38.620  15.364  19.893  0.00  0.00     0.008 A 
ATOM     35  S   UNL d   1     -39.882  14.978  20.629  0.00  0.00    -0.047 SA
ENDBRANCH  25  27
ENDBRANCH  23  24
ENDBRANCH  22  23
ENDBRANCH   2  22
TORSDOF 10
ENDMDL
MODEL 3
REMARK VINA RESULT:      -6.3      1.738      8.168
REMARK  10 active torsions:
REMARK  status: ('A' for Active; 'I' for Inactive)
REMARK    1  A    between atoms: N_9  and  C_1 
REMARK    2  A    between atoms: C_4  and  S_21 
REMARK    3  A    between atoms: C_23  and  C_8 
REMARK       I    between atoms: C_19  and  N_9 
REMARK    4  A    between atoms: O_26  and  C_10 
REMARK    5  A    between atoms: C_11  and  C_12 
REMARK       I    between atoms: C_12  and  N_20 
REMARK    6  A    between atoms: O_27  and  C_13 
REMARK    7  A    between atoms: O_28  and  C_14 
REMARK    8  A    between atoms: C_25  and  C_19 
REMARK    9  A    between atoms: N_20  and  C_23 
REMARK   10  A    between atoms: S_21  and  C_25 
ROOT
ATOM      1  O   UNL d   1     -43.534  13.623  21.701  0.00  0.00    -0.262 OA
ATOM      2  C   UNL d   1     -42.973  13.075  21.427  0.00  0.00     0.236 A 
ATOM      3  N   UNL d   1     -43.311  12.331  21.468  0.00  0.00    -0.114 NA
ATOM      4  N   UNL d   1     -44.075  12.414  21.764  0.00  0.00    -0.119 NA
ATOM      5  C   UNL d   1     -44.212  13.209  21.908  0.00  0.00     0.224 A 
ENDROOT
BRANCH   5   6
ATOM      6  C   UNL d   1     -44.908  13.534  22.207  0.00  0.00     0.149 C 
BRANCH   6   7
ATOM      7  N   UNL d   1     -45.594  13.083  22.251  0.00  0.00    -0.203 NA
ATOM      8  C   UNL d   1     -46.244  13.361  22.681  0.00  0.00     0.279 C 
ATOM      9  O   UNL d   1     -46.209  14.086  23.066  0.00  0.00    -0.265 OA
BRANCH   8  10
ATOM     10  C   UNL d   1     -46.932  12.903  22.721  0.00  0.00     0.062 A 
ATOM     11  C   UNL d   1     -47.629  13.176  22.360  0.00  0.00     0.031 A 
ATOM     12  C   UNL d   1     -48.301  12.716  22.407  0.00  0.00     0.118 A 
ATOM     13  C   UNL d   1     -48.304  12.004  22.795  0.00  0.00     0.138 A 
ATOM     14  C   UNL d   1     -47.597  11.738  23.155  0.00  0.00     0.118 A 
ATOM     15  C   UNL d   1     -46.920  12.200  23.109  0.00  0.00     0.031 A 
BRANCH  12  16
ATOM     16  O   UNL d   1     -49.005  12.978  22.049  0.00  0.00    -0.326 OA
ATOM     17  C   UNL d   1     -48.990  13.225  21.256  0.00  0.00     0.181 C 
ENDBRANCH  12  16
BRANCH  13  18
ATOM     18  O   UNL d   1     -48.976  11.542  22.843  0.00  0.00    -0.324 OA
ATOM     19  C   UNL d   1     -49.520  11.656  23.464  0.00  0.00     0.182 C 
ENDBRANCH  13  18
BRANCH  14  20
ATOM     20  O   UNL d   1     -47.590  11.010  23.555  0.00  0.00    -0.326 OA
ATOM     21  C   UNL d   1     -46.889  10.616  23.696  0.00  0.00     0.181 C 
ENDBRANCH  14  20
ENDBRANCH   8  10
ENDBRANCH   6   7
ENDBRANCH   5   6
BRANCH   2  22
ATOM     22  S   UNL d   1     -42.213  13.256  21.162  0.00  0.00    -0.036 SA
BRANCH  22  23
ATOM     23  C   UNL d   1     -42.081  13.929  20.720  0.00  0.00     0.101 C 
BRANCH  23  24
ATOM     24  C   UNL d   1     -41.359  14.025  20.302  0.00  0.00     0.288 C 
ATOM     25  N   UNL d   1     -41.373  14.246  19.507  0.00  0.00    -0.182 NA
ATOM     26  O   UNL d   1     -40.646  13.900  20.683  0.00  0.00    -0.265 OA
BRANCH  25  27
ATOM     27  C   UNL d   1     -40.665  14.343  19.085  0.00  0.00     0.197 A 
ATOM     28  N   UNL d   1     -40.336  13.785  18.565  0.00  0.00    -0.221 NA
ATOM     29  C   UNL d   1     -39.634  14.102  18.266  0.00  0.00     0.090 A 
ATOM     30  C   UNL d   1     -39.080  13.812  17.740  0.00  0.00     0.020 A 
ATOM     31  C   UNL d   1     -39.530  14.860  18.605  0.00  0.00     0.050 A 
ATOM     32  C   UNL d   1     -38.413  14.259  17.536  0.00  0.00     0.002 A 
ATOM     33  C   UNL d   1     -38.314  15.011  17.875  0.00  0.00     0.001 A 
ATOM     34  C   UNL d   1     -38.868  15.301  18.401  0.00  0.00     0.008 A 
ATOM     35  S   UNL d   1     -40.169  15.007  19.112  0.00  0.00    -0.047 SA
ENDBRANCH  25  27
ENDBRANCH  23  24
ENDBRANCH  22  23
ENDBRANCH   2  22
TORSDOF 10
ENDMDL
MODEL 4
REMARK VINA RESULT:      -4.0      1.503      2.162
REMARK  10 active torsions:
REMARK  status: ('A' for Active; 'I' for Inactive)
REMARK    1  A    between atoms: N_9  and  C_1 
REMARK    2  A    between atoms: C_4  and  S_21 
REMARK    3  A    between atoms: C_23  and  C_8 
REMARK       I    between atoms: C_19  and  N_9 
REMARK    4  A    between atoms: O_26  and  C_10 
REMARK    5  A    between atoms: C_11  and  C_12 
REMARK       I    between atoms: C_12  and  N_20 
REMARK    6  A    between atoms: O_27  and  C_13 
REMARK    7  A    between atoms: O_28  and  C_14 
REMARK    8  A    between atoms: C_25  and  C_19 
REMARK    9  A    between atoms: N_20  and  C_23 
REMARK   10  A    between atoms: S_21  and  C_25 
ROOT
ATOM      1  O   UNL d   1     -44.322  12.673  21.828  0.00  0.00    -0.262 OA
ATOM      2  C   UNL d   1     -44.955  13.060  22.203  0.00  0.00     0.236 A 
ATOM      3  N   UNL d   1     -44.797  13.863  22.192  0.00  0.00    -0.114 NA
ATOM      4  N   UNL d   1     -44.073  13.976  21.816  0.00  0.00    -0.119 NA
ATOM      5  C   UNL d   1     -43.781  13.243  21.592  0.00  0.00     0.224 A 
ENDROOT
BRANCH   5   6
ATOM      6  C   UNL d   1     -43.070  13.106  21.199  0.00  0.00     0.149 C 
BRANCH   6   7
ATOM      7  N   UNL d   1     -42.445  13.635  21.268  0.00  0.00    -0.203 NA
ATOM      8  C   UNL d   1     -41.773  13.545  20.794  0.00  0.00     0.279 C 
ATOM      9  O   UNL d   1     -41.724  12.929  20.253  0.00  0.00    -0.265 OA
BRANCH   8  10
ATOM     10  C   UNL d   1     -41.147  14.081  20.868  0.00  0.00     0.062 A 
ATOM     11  C   UNL d   1     -40.562  13.953  21.445  0.00  0.00     0.031 A 
ATOM     12  C   UNL d   1     -39.950  14.488  21.509  0.00  0.00     0.118 A 
ATOM     13  C   UNL d   1     -39.900  15.137  21.025  0.00  0.00     0.138 A 
ATOM     14  C   UNL d   1     -40.493  15.257  20.447  0.00  0.00     0.118 A 
ATOM     15  C   UNL d   1     -41.110  14.719  20.383  0.00  0.00     0.031 A 
BRANCH  12  16
ATOM     16  O   UNL d   1     -39.359  14.372  22.083  0.00  0.00    -0.326 OA
ATOM     17  C   UNL d   1     -39.166  13.598  22.315  0.00  0.00     0.181 C 
ENDBRANCH  12  16
BRANCH  13  18
ATOM     18  O   UNL d   1     -39.287  15.675  21.088  0.00  0.00    -0.324 OA
ATOM     19  C   UNL d   1     -38.835  15.875  20.416  0.00  0.00     0.182 C 
ENDBRANCH  13  18
BRANCH  14  20
ATOM     20  O   UNL d   1     -40.450  15.919  19.948  0.00  0.00    -0.326 OA
ATOM     21  C   UNL d   1     -40.757  15.894  19.191  0.00  0.00     0.181 C 
ENDBRANCH  14  20
ENDBRANCH   8  10
ENDBRANCH   6   7
ENDBRANCH   5   6
BRANCH   2  22
ATOM     22  S   UNL d   1     -45.620  12.694  22.524  0.00  0.00    -0.036 SA
BRANCH  22  23
ATOM     23  C   UNL d   1     -46.170  13.131  22.940  0.00  0.00     0.101 C 
BRANCH  23  24
ATOM     24  C   UNL d   1     -46.962  12.863  23.004  0.00  0.00     0.288 C 
ATOM     25  N   UNL d   1     -47.582  13.407  22.970  0.00  0.00    -0.182 NA
ATOM     26  O   UNL d   1     -47.118  12.066  23.099  0.00  0.00    -0.265 OA
BRANCH  25  27
ATOM     27  C   UNL d   1     -48.369  13.151  23.033  0.00  0.00     0.197 A 
ATOM     28  N   UNL d   1     -48.695  12.500  22.632  0.00  0.00    -0.221 NA
ATOM     29  C   UNL d   1     -49.489  12.441  22.851  0.00  0.00     0.090 A 
ATOM     30  C   UNL d   1     -50.080  11.918  22.639  0.00  0.00     0.020 A 
ATOM     31  C   UNL d   1     -49.654  13.060  23.389  0.00  0.00     0.050 A 
ATOM     32  C   UNL d   1     -50.844  11.991  22.951  0.00  0.00     0.002 A 
ATOM     33  C   UNL d   1     -51.003  12.607  23.485  0.00  0.00     0.001 A 
ATOM     34  C   UNL d   1     -50.412  13.131  23.697  0.00  0.00     0.008 A 
ATOM     35  S   UNL d   1     -48.960  13.498  23.501  0.00  0.00    -0.047 SA
ENDBRANCH  25  27
ENDBRANCH  23  24
ENDBRANCH  22  23
ENDBRANCH   2  22
TORSDOF 10
ENDMDL
