MODEL 1
REMARK VINA RESULT:      -8.6      0.000      0.000
REMARK  3 active torsions:
REMARK  status: ('A' for Active; 'I' for Inactive)
REMARK    1  A    between atoms: C_10  and  C_3 
REMARK    2  A    between atoms: C_13  and  C_7 
REMARK    3  A    between atoms: C_12  and  C_13 
ROOT
ATOM      1  C   UNL d   1      53.539  33.320  54.110  0.00  0.00     0.171 A 
ATOM      2  N   UNL d   1      53.135  32.787  53.629  0.00  0.00    -0.212 N 
ATOM      3  C   UNL d   1      54.133  32.901  54.510  0.00  0.00     0.121 A 
ATOM      4  N   UNL d   1      53.320  34.111  54.125  0.00  0.00    -0.227 NA
ATOM      5  N   UNL d   1      53.477  32.035  53.729  0.00  0.00    -0.162 NA
ATOM      6  C   UNL d   1      52.510  33.042  53.161  0.00  0.00     0.086 A 
ATOM      7  C   UNL d   1      52.289  33.836  53.176  0.00  0.00     0.035 A 
ATOM      8  C   UNL d   1      52.693  34.369  53.656  0.00  0.00     0.085 A 
ATOM      9  C   UNL d   1      54.096  32.111  54.277  0.00  0.00     0.130 A 
ATOM     10  C   UNL d   1      52.105  32.507  52.679  0.00  0.00     0.021 C 
ATOM     11  C   UNL d   1      52.471  35.166  53.670  0.00  0.00     0.021 C 
ENDROOT
BRANCH   3  12
ATOM     12  C   UNL d   1      54.669  33.223  55.049  0.00  0.00     0.215 C 
ATOM     13  O   UNL d   1      54.514  33.184  55.862  0.00  0.00    -0.644 OA
ATOM     14  O   UNL d   1      55.364  33.586  54.783  0.00  0.00    -0.644 OA
ENDBRANCH   3  12
BRANCH   7  15
ATOM     15  C   UNL d   1      51.662  34.094  52.706  0.00  0.00     0.003 C 
BRANCH  15  16
ATOM     16  C   UNL d   1      50.897  34.095  53.012  0.00  0.00     0.000 C 
ATOM     17  C   UNL d   1      50.267  34.351  52.542  0.00  0.00     0.000 C 
ENDBRANCH  15  16
ENDBRANCH   7  15
TORSDOF 3
ENDMDL
MODEL 2
REMARK VINA RESULT:      -8.6      1.757      2.582
REMARK  3 active torsions:
REMARK  status: ('A' for Active; 'I' for Inactive)
REMARK    1  A    between atoms: C_10  and  C_3 
REMARK    2  A    between atoms: C_13  and  C_7 
REMARK    3  A    between atoms: C_12  and  C_13 
ROOT
ATOM      1  C   UNL d   1      53.369  31.635  53.604  0.00  0.00     0.171 A 
ATOM      2  N   UNL d   1      52.902  32.133  53.143  0.00  0.00    -0.212 N 
ATOM      3  C   UNL d   1      53.205  30.853  53.379  0.00  0.00     0.121 A 
ATOM      4  N   UNL d   1      53.880  31.948  54.165  0.00  0.00    -0.227 NA
ATOM      5  N   UNL d   1      52.446  31.663  52.630  0.00  0.00    -0.162 NA
ATOM      6  C   UNL d   1      52.943  32.947  53.241  0.00  0.00     0.086 A 
ATOM      7  C   UNL d   1      53.456  33.264  53.804  0.00  0.00     0.035 A 
ATOM      8  C   UNL d   1      53.923  32.766  54.265  0.00  0.00     0.085 A 
ATOM      9  C   UNL d   1      52.638  30.869  52.780  0.00  0.00     0.130 A 
ATOM     10  C   UNL d   1      52.475  33.447  52.778  0.00  0.00     0.021 C 
ATOM     11  C   UNL d   1      54.436  33.085  54.829  0.00  0.00     0.021 C 
ENDROOT
BRANCH   3  12
ATOM     12  C   UNL d   1      53.552  30.177  53.700  0.00  0.00     0.215 C 
ATOM     13  O   UNL d   1      54.270  29.894  53.398  0.00  0.00    -0.644 OA
ATOM     14  O   UNL d   1      53.187  29.777  54.327  0.00  0.00    -0.644 OA
ENDBRANCH   3  12
BRANCH   7  15
ATOM     15  C   UNL d   1      53.499  34.081  53.903  0.00  0.00     0.003 C 
BRANCH  15  16
ATOM     16  C   UNL d   1      53.008  34.452  54.452  0.00  0.00     0.000 C 
ATOM     17  C   UNL d   1      53.015  35.276  54.518  0.00  0.00     0.000 C 
ENDBRANCH  15  16
ENDBRANCH   7  15
TORSDOF 3
ENDMDL
MODEL 3
REMARK VINA RESULT:      -8.3      1.414      2.706
REMARK  3 active torsions:
REMARK  status: ('A' for Active; 'I' for Inactive)
REMARK    1  A    between atoms: C_10  and  C_3 
REMARK    2  A    between atoms: C_13  and  C_7 
REMARK    3  A    between atoms: C_12  and  C_13 
ROOT
ATOM      1  C   UNL d   1      53.015  33.951  53.856  0.00  0.00     0.171 A 
ATOM      2  N   UNL d   1      52.433  33.547  53.435  0.00  0.00    -0.212 N 
ATOM      3  C   UNL d   1      52.720  34.705  54.038  0.00  0.00     0.121 A 
ATOM      4  N   UNL d   1      53.733  33.590  54.021  0.00  0.00    -0.227 NA
ATOM      5  N   UNL d   1      51.774  34.049  53.354  0.00  0.00    -0.162 NA
ATOM      6  C   UNL d   1      52.566  32.780  53.177  0.00  0.00     0.086 A 
ATOM      7  C   UNL d   1      53.287  32.415  53.342  0.00  0.00     0.035 A 
ATOM      8  C   UNL d   1      53.869  32.819  53.762  0.00  0.00     0.085 A 
ATOM      9  C   UNL d   1      51.957  34.767  53.730  0.00  0.00     0.130 A 
ATOM     10  C   UNL d   1      51.983  32.375  52.756  0.00  0.00     0.021 C 
ATOM     11  C   UNL d   1      54.592  32.451  53.927  0.00  0.00     0.021 C 
ENDROOT
BRANCH   3  12
ATOM     12  C   UNL d   1      53.122  35.292  54.455  0.00  0.00     0.215 C 
ATOM     13  O   UNL d   1      53.541  35.880  54.048  0.00  0.00    -0.644 OA
ATOM     14  O   UNL d   1      53.112  35.299  55.283  0.00  0.00    -0.644 OA
ENDBRANCH   3  12
BRANCH   7  15
ATOM     15  C   UNL d   1      53.423  31.643  53.083  0.00  0.00     0.003 C 
BRANCH  15  16
ATOM     16  C   UNL d   1      53.287  31.011  53.595  0.00  0.00     0.000 C 
ATOM     17  C   UNL d   1      53.368  30.236  53.320  0.00  0.00     0.000 C 
ENDBRANCH  15  16
ENDBRANCH   7  15
TORSDOF 3
ENDMDL
MODEL 4
REMARK VINA RESULT:      -8.3      1.864      3.220
REMARK  3 active torsions:
REMARK  status: ('A' for Active; 'I' for Inactive)
REMARK    1  A    between atoms: C_10  and  C_3 
REMARK    2  A    between atoms: C_13  and  C_7 
REMARK    3  A    between atoms: C_12  and  C_13 
ROOT
ATOM      1  C   UNL d   1      52.302  33.528  53.449  0.00  0.00     0.171 A 
ATOM      2  N   UNL d   1      52.758  32.848  53.543  0.00  0.00    -0.212 N 
ATOM      3  C   UNL d   1      51.723  33.368  52.877  0.00  0.00     0.121 A 
ATOM      4  N   UNL d   1      52.467  34.201  53.889  0.00  0.00    -0.227 NA
ATOM      5  N   UNL d   1      52.464  32.263  53.030  0.00  0.00    -0.162 NA
ATOM      6  C   UNL d   1      53.381  32.838  54.078  0.00  0.00     0.086 A 
ATOM      7  C   UNL d   1      53.548  33.513  54.521  0.00  0.00     0.035 A 
ATOM      8  C   UNL d   1      53.093  34.193  54.427  0.00  0.00     0.085 A 
ATOM      9  C   UNL d   1      51.821  32.591  52.618  0.00  0.00     0.130 A 
ATOM     10  C   UNL d   1      53.838  32.156  54.172  0.00  0.00     0.021 C 
ATOM     11  C   UNL d   1      53.261  34.869  54.872  0.00  0.00     0.021 C 
ENDROOT
BRANCH   3  12
ATOM     12  C   UNL d   1      51.148  33.898  52.613  0.00  0.00     0.215 C 
ATOM     13  O   UNL d   1      51.291  34.367  51.945  0.00  0.00    -0.644 OA
ATOM     14  O   UNL d   1      50.426  33.965  53.012  0.00  0.00    -0.644 OA
ENDBRANCH   3  12
BRANCH   7  15
ATOM     15  C   UNL d   1      54.173  33.505  55.058  0.00  0.00     0.003 C 
BRANCH  15  16
ATOM     16  C   UNL d   1      54.926  33.737  54.814  0.00  0.00     0.000 C 
ATOM     17  C   UNL d   1      55.536  33.799  55.367  0.00  0.00     0.000 C 
ENDBRANCH  15  16
ENDBRANCH   7  15
TORSDOF 3
ENDMDL
MODEL 5
REMARK VINA RESULT:      -8.0      1.929      3.398
REMARK  3 active torsions:
REMARK  status: ('A' for Active; 'I' for Inactive)
REMARK    1  A    between atoms: C_10  and  C_3 
REMARK    2  A    between atoms: C_13  and  C_7 
REMARK    3  A    between atoms: C_12  and  C_13 
ROOT
ATOM      1  C   UNL d   1      52.503  33.176  53.206  0.00  0.00     0.171 A 
ATOM      2  N   UNL d   1      53.100  33.158  53.773  0.00  0.00    -0.212 N 
ATOM      3  C   UNL d   1      52.206  33.951  53.173  0.00  0.00     0.121 A 
ATOM      4  N   UNL d   1      52.303  32.495  52.792  0.00  0.00    -0.227 NA
ATOM      5  N   UNL d   1      53.177  33.921  54.095  0.00  0.00    -0.162 NA
ATOM      6  C   UNL d   1      53.501  32.459  53.930  0.00  0.00     0.086 A 
ATOM      7  C   UNL d   1      53.302  31.774  53.516  0.00  0.00     0.035 A 
ATOM      8  C   UNL d   1      52.704  31.792  52.949  0.00  0.00     0.085 A 
ATOM      9  C   UNL d   1      52.620  34.410  53.720  0.00  0.00     0.130 A 
ATOM     10  C   UNL d   1      54.099  32.440  54.499  0.00  0.00     0.021 C 
ATOM     11  C   UNL d   1      52.506  31.105  52.534  0.00  0.00     0.021 C 
ENDROOT
BRANCH   3  12
ATOM     12  C   UNL d   1      51.602  34.215  52.679  0.00  0.00     0.215 C 
ATOM     13  O   UNL d   1      50.820  34.240  52.954  0.00  0.00    -0.644 OA
ATOM     14  O   UNL d   1      51.769  34.456  51.904  0.00  0.00    -0.644 OA
ENDBRANCH   3  12
BRANCH   7  15
ATOM     15  C   UNL d   1      53.703  31.071  53.672  0.00  0.00     0.003 C 
BRANCH  15  16
ATOM     16  C   UNL d   1      53.296  30.432  53.999  0.00  0.00     0.000 C 
ATOM     17  C   UNL d   1      53.676  29.703  54.080  0.00  0.00     0.000 C 
ENDBRANCH  15  16
ENDBRANCH   7  15
TORSDOF 3
ENDMDL
