MODEL 1
REMARK VINA RESULT:      -2.0      0.000      0.000
REMARK  5 active torsions:
REMARK  status: ('A' for Active; 'I' for Inactive)
REMARK       I    between atoms: N_2  and  C_1 
REMARK       I    between atoms: N_4  and  C_1 
REMARK    1  A    between atoms: C_8  and  N_2 
REMARK    2  A    between atoms: C_3  and  C_5 
REMARK    3  A    between atoms: O_11  and  C_3 
REMARK    4  A    between atoms: C_14  and  N_4 
REMARK    5  A    between atoms: C_15  and  N_4 
ROOT
ATOM      1  C   UNL d   1      33.022  20.901 -21.620  0.00  0.00     0.063 A 
ATOM      2  C   UNL d   1      33.115  19.386 -22.266  0.00  0.00     0.086 A 
ATOM      3  C   UNL d   1      33.193  20.253 -21.135  0.00  0.00     0.007 A 
ATOM      4  C   UNL d   1      32.899  20.794 -22.421  0.00  0.00     0.007 A 
ATOM      5  C   UNL d   1      33.238  19.493 -21.464  0.00  0.00     0.019 A 
ATOM      6  C   UNL d   1      32.945  20.037 -22.746  0.00  0.00     0.019 A 
ENDROOT
BRANCH   2   7
ATOM      7  N   UNL d   1      33.161  18.634 -22.591  0.00  0.00    -0.192 NA
ATOM      8  C   UNL d   1      32.483  18.296 -22.924  0.00  0.00     0.354 C 
ATOM      9  N   UNL d   1      32.518  17.548 -23.251  0.00  0.00    -0.256 N 
ATOM     10  O   UNL d   1      31.767  18.715 -22.928  0.00  0.00    -0.244 OA
BRANCH   9  11
ATOM     11  C   UNL d   1      33.235  17.134 -23.245  0.00  0.00     0.085 C 
ATOM     12  C   UNL d   1      33.238  16.312 -23.162  0.00  0.00     0.021 C 
ENDBRANCH   9  11
BRANCH   9  13
ATOM     13  C   UNL d   1      31.838  17.214 -23.583  0.00  0.00     0.085 C 
ATOM     14  C   UNL d   1      31.688  17.317 -24.389  0.00  0.00     0.021 C 
ENDBRANCH   9  13
ENDBRANCH   2   7
BRANCH   1  15
ATOM     15  C   UNL d   1      32.975  21.653 -21.302  0.00  0.00     0.296 C 
ATOM     16  O   UNL d   1      33.238  21.797 -20.540  0.00  0.00    -0.259 OA
BRANCH  15  17
ATOM     17  O   UNL d   1      32.661  22.269 -21.754  0.00  0.00    -0.296 OA
ATOM     18  C   UNL d   1      32.483  22.981 -21.393  0.00  0.00     0.185 C 
ENDBRANCH  15  17
ENDBRANCH   1  15
TORSDOF 5
ENDMDL
MODEL 2
REMARK VINA RESULT:      -1.8      1.219      1.785
REMARK  5 active torsions:
REMARK  status: ('A' for Active; 'I' for Inactive)
REMARK       I    between atoms: N_2  and  C_1 
REMARK       I    between atoms: N_4  and  C_1 
REMARK    1  A    between atoms: C_8  and  N_2 
REMARK    2  A    between atoms: C_3  and  C_5 
REMARK    3  A    between atoms: O_11  and  C_3 
REMARK    4  A    between atoms: C_14  and  N_4 
REMARK    5  A    between atoms: C_15  and  N_4 
ROOT
ATOM      1  C   UNL d   1      32.714  21.931 -20.844  0.00  0.00     0.063 A 
ATOM      2  C   UNL d   1      32.923  20.857 -22.079  0.00  0.00     0.086 A 
ATOM      3  C   UNL d   1      33.138  21.232 -20.719  0.00  0.00     0.007 A 
ATOM      4  C   UNL d   1      32.396  22.093 -21.580  0.00  0.00     0.007 A 
ATOM      5  C   UNL d   1      33.241  20.695 -21.343  0.00  0.00     0.019 A 
ATOM      6  C   UNL d   1      32.499  21.558 -22.199  0.00  0.00     0.019 A 
ENDROOT
BRANCH   2   7
ATOM      7  N   UNL d   1      33.025  20.326 -22.697  0.00  0.00    -0.192 NA
ATOM      8  C   UNL d   1      32.826  19.532 -22.583  0.00  0.00     0.354 C 
ATOM      9  N   UNL d   1      32.923  18.994 -23.191  0.00  0.00    -0.256 N 
ATOM     10  O   UNL d   1      32.527  19.277 -21.852  0.00  0.00    -0.244 OA
BRANCH   9  11
ATOM     11  C   UNL d   1      33.221  19.254 -23.919  0.00  0.00     0.085 C 
ATOM     12  C   UNL d   1      32.836  19.048 -24.621  0.00  0.00     0.021 C 
ENDBRANCH   9  11
BRANCH   9  13
ATOM     13  C   UNL d   1      32.723  18.201 -23.073  0.00  0.00     0.085 C 
ATOM     14  C   UNL d   1      33.162  17.611 -23.449  0.00  0.00     0.021 C 
ENDBRANCH   9  13
ENDBRANCH   2   7
BRANCH   1  15
ATOM     15  C   UNL d   1      32.609  22.464 -20.234  0.00  0.00     0.296 C 
ATOM     16  O   UNL d   1      32.040  23.051 -20.289  0.00  0.00    -0.259 OA
BRANCH  15  17
ATOM     17  O   UNL d   1      33.081  22.410 -19.558  0.00  0.00    -0.296 OA
ATOM     18  C   UNL d   1      32.884  22.847 -18.894  0.00  0.00     0.185 C 
ENDBRANCH  15  17
ENDBRANCH   1  15
TORSDOF 5
ENDMDL
MODEL 3
REMARK VINA RESULT:      -1.7      2.614      4.271
REMARK  5 active torsions:
REMARK  status: ('A' for Active; 'I' for Inactive)
REMARK       I    between atoms: N_2  and  C_1 
REMARK       I    between atoms: N_4  and  C_1 
REMARK    1  A    between atoms: C_8  and  N_2 
REMARK    2  A    between atoms: C_3  and  C_5 
REMARK    3  A    between atoms: O_11  and  C_3 
REMARK    4  A    between atoms: C_14  and  N_4 
REMARK    5  A    between atoms: C_15  and  N_4 
ROOT
ATOM      1  C   UNL d   1      32.534  23.266 -18.781  0.00  0.00     0.063 A 
ATOM      2  C   UNL d   1      32.814  22.931 -20.372  0.00  0.00     0.086 A 
ATOM      3  C   UNL d   1      33.103  22.705 -18.993  0.00  0.00     0.007 A 
ATOM      4  C   UNL d   1      32.107  23.658 -19.359  0.00  0.00     0.007 A 
ATOM      5  C   UNL d   1      33.241  22.540 -19.794  0.00  0.00     0.019 A 
ATOM      6  C   UNL d   1      32.246  23.492 -20.155  0.00  0.00     0.019 A 
ENDROOT
BRANCH   2   7
ATOM      7  N   UNL d   1      32.950  22.768 -21.165  0.00  0.00    -0.192 NA
ATOM      8  C   UNL d   1      32.739  22.028 -21.467  0.00  0.00     0.354 C 
ATOM      9  N   UNL d   1      32.870  21.855 -22.255  0.00  0.00    -0.256 N 
ATOM     10  O   UNL d   1      32.394  21.458 -20.972  0.00  0.00    -0.244 OA
BRANCH   9  11
ATOM     11  C   UNL d   1      33.215  22.427 -22.745  0.00  0.00     0.085 C 
ATOM     12  C   UNL d   1      32.878  22.600 -23.479  0.00  0.00     0.021 C 
ENDBRANCH   9  11
BRANCH   9  13
ATOM     13  C   UNL d   1      32.658  21.113 -22.552  0.00  0.00     0.085 C 
ATOM     14  C   UNL d   1      33.232  20.641 -22.911  0.00  0.00     0.021 C 
ENDBRANCH   9  13
ENDBRANCH   2   7
BRANCH   1  15
ATOM     15  C   UNL d   1      32.393  23.434 -17.994  0.00  0.00     0.296 C 
ATOM     16  O   UNL d   1      31.654  23.690 -17.750  0.00  0.00    -0.259 OA
BRANCH  15  17
ATOM     17  O   UNL d   1      33.002  23.344 -17.441  0.00  0.00    -0.296 OA
ATOM     18  C   UNL d   1      32.816  23.271 -16.648  0.00  0.00     0.185 C 
ENDBRANCH  15  17
ENDBRANCH   1  15
TORSDOF 5
ENDMDL
MODEL 4
REMARK VINA RESULT:      -1.6      3.569      4.338
REMARK  5 active torsions:
REMARK  status: ('A' for Active; 'I' for Inactive)
REMARK       I    between atoms: N_2  and  C_1 
REMARK       I    between atoms: N_4  and  C_1 
REMARK    1  A    between atoms: C_8  and  N_2 
REMARK    2  A    between atoms: C_3  and  C_5 
REMARK    3  A    between atoms: O_11  and  C_3 
REMARK    4  A    between atoms: C_14  and  N_4 
REMARK    5  A    between atoms: C_15  and  N_4 
ROOT
ATOM      1  C   UNL d   1      32.465  23.006 -19.672  0.00  0.00     0.063 A 
ATOM      2  C   UNL d   1      32.776  22.677 -21.259  0.00  0.00     0.086 A 
ATOM      3  C   UNL d   1      31.997  22.461 -20.082  0.00  0.00     0.007 A 
ATOM      4  C   UNL d   1      33.084  23.384 -20.051  0.00  0.00     0.007 A 
ATOM      5  C   UNL d   1      32.157  22.299 -20.880  0.00  0.00     0.019 A 
ATOM      6  C   UNL d   1      33.241  23.221 -20.844  0.00  0.00     0.019 A 
ENDROOT
BRANCH   2   7
ATOM      7  N   UNL d   1      32.934  22.517 -22.048  0.00  0.00    -0.192 NA
ATOM      8  C   UNL d   1      32.649  23.031 -22.630  0.00  0.00     0.354 C 
ATOM      9  N   UNL d   1      32.801  22.881 -23.419  0.00  0.00    -0.256 N 
ATOM     10  O   UNL d   1      32.209  23.701 -22.415  0.00  0.00    -0.244 OA
BRANCH   9  11
ATOM     11  C   UNL d   1      33.241  22.211 -23.627  0.00  0.00     0.085 C 
ATOM     12  C   UNL d   1      33.076  21.811 -24.331  0.00  0.00     0.021 C 
ENDBRANCH   9  11
BRANCH   9  13
ATOM     13  C   UNL d   1      32.514  23.398 -23.997  0.00  0.00     0.085 C 
ATOM     14  C   UNL d   1      33.015  23.643 -24.606  0.00  0.00     0.021 C 
ENDBRANCH   9  13
ENDBRANCH   2   7
BRANCH   1  15
ATOM     15  C   UNL d   1      32.313  23.170 -18.886  0.00  0.00     0.296 C 
ATOM     16  O   UNL d   1      31.612  23.533 -18.667  0.00  0.00    -0.259 OA
BRANCH  15  17
ATOM     17  O   UNL d   1      32.872  22.969 -18.311  0.00  0.00    -0.296 OA
ATOM     18  C   UNL d   1      32.752  23.203 -17.536  0.00  0.00     0.185 C 
ENDBRANCH  15  17
ENDBRANCH   1  15
TORSDOF 5
ENDMDL
MODEL 5
REMARK VINA RESULT:      -0.9      2.434      4.112
REMARK  5 active torsions:
REMARK  status: ('A' for Active; 'I' for Inactive)
REMARK       I    between atoms: N_2  and  C_1 
REMARK       I    between atoms: N_4  and  C_1 
REMARK    1  A    between atoms: C_8  and  N_2 
REMARK    2  A    between atoms: C_3  and  C_5 
REMARK    3  A    between atoms: O_11  and  C_3 
REMARK    4  A    between atoms: C_14  and  N_4 
REMARK    5  A    between atoms: C_15  and  N_4 
ROOT
ATOM      1  C   UNL d   1      32.168  18.075 -24.133  0.00  0.00     0.063 A 
ATOM      2  C   UNL d   1      30.859  17.126 -24.459  0.00  0.00     0.086 A 
ATOM      3  C   UNL d   1      31.419  18.416 -24.216  0.00  0.00     0.007 A 
ATOM      4  C   UNL d   1      32.263  17.267 -24.212  0.00  0.00     0.007 A 
ATOM      5  C   UNL d   1      30.764  17.934 -24.380  0.00  0.00     0.019 A 
ATOM      6  C   UNL d   1      31.610  16.790 -24.376  0.00  0.00     0.019 A 
ENDROOT
BRANCH   2   7
ATOM      7  N   UNL d   1      30.210  16.650 -24.622  0.00  0.00    -0.192 NA
ATOM      8  C   UNL d   1      29.808  16.288 -23.996  0.00  0.00     0.354 C 
ATOM      9  N   UNL d   1      29.161  15.812 -24.147  0.00  0.00    -0.256 N 
ATOM     10  O   UNL d   1      30.059  16.407 -23.214  0.00  0.00    -0.244 OA
BRANCH   9  11
ATOM     11  C   UNL d   1      28.915  15.697 -24.929  0.00  0.00     0.085 C 
ATOM     12  C   UNL d   1      28.116  15.566 -25.096  0.00  0.00     0.021 C 
ENDBRANCH   9  11
BRANCH   9  13
ATOM     13  C   UNL d   1      28.762  15.453 -23.518  0.00  0.00     0.085 C 
ATOM     14  C   UNL d   1      27.945  15.553 -23.446  0.00  0.00     0.021 C 
ENDBRANCH   9  13
ENDBRANCH   2   7
BRANCH   1  15
ATOM     15  C   UNL d   1      32.818  18.543 -23.971  0.00  0.00     0.296 C 
ATOM     16  O   UNL d   1      33.173  18.980 -24.567  0.00  0.00    -0.259 OA
BRANCH  15  17
ATOM     17  O   UNL d   1      33.118  18.575 -23.202  0.00  0.00    -0.296 OA
ATOM     18  C   UNL d   1      33.208  19.302 -22.836  0.00  0.00     0.185 C 
ENDBRANCH  15  17
ENDBRANCH   1  15
TORSDOF 5
ENDMDL
MODEL 6
REMARK VINA RESULT:      -0.8      2.534      5.284
REMARK  5 active torsions:
REMARK  status: ('A' for Active; 'I' for Inactive)
REMARK       I    between atoms: N_2  and  C_1 
REMARK       I    between atoms: N_4  and  C_1 
REMARK    1  A    between atoms: C_8  and  N_2 
REMARK    2  A    between atoms: C_3  and  C_5 
REMARK    3  A    between atoms: O_11  and  C_3 
REMARK    4  A    between atoms: C_14  and  N_4 
REMARK    5  A    between atoms: C_15  and  N_4 
ROOT
ATOM      1  C   UNL d   1      29.380  16.349 -24.403  0.00  0.00     0.063 A 
ATOM      2  C   UNL d   1      30.742  17.265 -24.568  0.00  0.00     0.086 A 
ATOM      3  C   UNL d   1      29.319  17.169 -24.500  0.00  0.00     0.007 A 
ATOM      4  C   UNL d   1      30.114  15.990 -24.389  0.00  0.00     0.007 A 
ATOM      5  C   UNL d   1      30.008  17.625 -24.582  0.00  0.00     0.019 A 
ATOM      6  C   UNL d   1      30.797  16.445 -24.471  0.00  0.00     0.019 A 
ENDROOT
BRANCH   2   7
ATOM      7  N   UNL d   1      31.422  17.717 -24.649  0.00  0.00    -0.192 NA
ATOM      8  C   UNL d   1      31.929  17.805 -24.001  0.00  0.00     0.354 C 
ATOM      9  N   UNL d   1      32.609  18.253 -24.072  0.00  0.00    -0.256 N 
ATOM     10  O   UNL d   1      31.748  17.440 -23.278  0.00  0.00    -0.244 OA
BRANCH   9  11
ATOM     11  C   UNL d   1      32.784  18.614 -24.796  0.00  0.00     0.085 C 
ATOM     12  C   UNL d   1      33.240  19.303 -24.814  0.00  0.00     0.021 C 
ENDBRANCH   9  11
BRANCH   9  13
ATOM     13  C   UNL d   1      33.112  18.338 -23.421  0.00  0.00     0.085 C 
ATOM     14  C   UNL d   1      33.204  19.082 -23.075  0.00  0.00     0.021 C 
ENDBRANCH   9  13
ENDBRANCH   2   7
BRANCH   1  15
ATOM     15  C   UNL d   1      28.706  15.893 -24.321  0.00  0.00     0.296 C 
ATOM     16  O   UNL d   1      28.425  15.452 -24.952  0.00  0.00    -0.259 OA
BRANCH  15  17
ATOM     17  O   UNL d   1      28.308  15.879 -23.597  0.00  0.00    -0.296 OA
ATOM     18  C   UNL d   1      27.612  15.453 -23.530  0.00  0.00     0.185 C 
ENDBRANCH  15  17
ENDBRANCH   1  15
TORSDOF 5
ENDMDL
MODEL 7
REMARK VINA RESULT:      -0.6      1.376      4.461
REMARK  5 active torsions:
REMARK  status: ('A' for Active; 'I' for Inactive)
REMARK       I    between atoms: N_2  and  C_1 
REMARK       I    between atoms: N_4  and  C_1 
REMARK    1  A    between atoms: C_8  and  N_2 
REMARK    2  A    between atoms: C_3  and  C_5 
REMARK    3  A    between atoms: O_11  and  C_3 
REMARK    4  A    between atoms: C_14  and  N_4 
REMARK    5  A    between atoms: C_15  and  N_4 
ROOT
ATOM      1  C   UNL d   1      31.871  17.257 -24.065  0.00  0.00     0.063 A 
ATOM      2  C   UNL d   1      32.424  18.388 -22.999  0.00  0.00     0.086 A 
ATOM      3  C   UNL d   1      32.633  17.192 -23.750  0.00  0.00     0.007 A 
ATOM      4  C   UNL d   1      31.389  17.882 -23.850  0.00  0.00     0.007 A 
ATOM      5  C   UNL d   1      32.906  17.763 -23.214  0.00  0.00     0.019 A 
ATOM      6  C   UNL d   1      31.663  18.448 -23.317  0.00  0.00     0.019 A 
ENDROOT
BRANCH   2   7
ATOM      7  N   UNL d   1      32.695  18.953 -22.469  0.00  0.00    -0.192 NA
ATOM      8  C   UNL d   1      32.824  19.726 -22.733  0.00  0.00     0.354 C 
ATOM      9  N   UNL d   1      33.093  20.296 -22.213  0.00  0.00    -0.256 N 
ATOM     10  O   UNL d   1      32.680  19.925 -23.525  0.00  0.00    -0.244 OA
BRANCH   9  11
ATOM     11  C   UNL d   1      33.235  20.091 -21.423  0.00  0.00     0.085 C 
ATOM     12  C   UNL d   1      32.784  20.432 -20.820  0.00  0.00     0.021 C 
ENDBRANCH   9  11
BRANCH   9  13
ATOM     13  C   UNL d   1      33.221  21.068 -22.482  0.00  0.00     0.085 C 
ATOM     14  C   UNL d   1      33.100  21.702 -21.966  0.00  0.00     0.021 C 
ENDBRANCH   9  13
ENDBRANCH   2   7
BRANCH   1  15
ATOM     15  C   UNL d   1      31.595  16.698 -24.594  0.00  0.00     0.296 C 
ATOM     16  O   UNL d   1      32.116  16.293 -25.078  0.00  0.00    -0.259 OA
BRANCH  15  17
ATOM     17  O   UNL d   1      30.784  16.542 -24.638  0.00  0.00    -0.296 OA
ATOM     18  C   UNL d   1      30.530  15.816 -24.918  0.00  0.00     0.185 C 
ENDBRANCH  15  17
ENDBRANCH   1  15
TORSDOF 5
ENDMDL
