MODEL 1
REMARK VINA RESULT:      -7.4      0.000      0.000
REMARK  3 active torsions:
REMARK  status: ('A' for Active; 'I' for Inactive)
REMARK    1  A    between atoms: C_10  and  C_4 
REMARK    2  A    between atoms: C_13  and  C_10 
REMARK    3  A    between atoms: C_11  and  C_13 
ROOT
ATOM      1  C   UNL d   1     -49.042  11.706  23.355  0.00  0.00     0.752 A 
ATOM      2  N   UNL d   1     -49.057  12.506  23.156  0.00  0.00    -0.056 N 
ATOM      3  N   UNL d   1     -48.323  11.349  23.535  0.00  0.00    -0.059 NA
ATOM      4  C   UNL d   1     -47.642  12.585  23.317  0.00  0.00     0.037 A 
ATOM      5  C   UNL d   1     -48.359  12.951  23.135  0.00  0.00     0.102 A 
ATOM      6  N   UNL d   1     -49.806  11.423  23.327  0.00  0.00    -0.035 NA
ATOM      7  C   UNL d   1     -47.623  11.785  23.516  0.00  0.00     0.101 A 
ATOM      8  N   UNL d   1     -49.839  12.711  23.005  0.00  0.00    -0.127 NA
ATOM      9  C   UNL d   1     -50.312  12.040  23.111  0.00  0.00     0.239 A 
ATOM     10  C   UNL d   1     -48.380  13.743  22.937  0.00  0.00     0.021 C 
ATOM     11  C   UNL d   1     -46.907  11.419  23.698  0.00  0.00     0.021 C 
ENDROOT
BRANCH   4  12
ATOM     12  C   UNL d   1     -46.945  13.013  23.300  0.00  0.00     0.009 C 
BRANCH  12  13
ATOM     13  C   UNL d   1     -46.579  13.184  22.581  0.00  0.00     0.070 C 
BRANCH  13  14
ATOM     14  C   UNL d   1     -45.870  13.605  22.571  0.00  0.00     0.211 C 
ATOM     15  O   UNL d   1     -45.812  14.330  22.958  0.00  0.00    -0.644 OA
ATOM     16  O   UNL d   1     -45.217  13.300  22.172  0.00  0.00    -0.644 OA
ENDBRANCH  13  14
ENDBRANCH  12  13
ENDBRANCH   4  12
TORSDOF 3
ENDMDL
MODEL 2
REMARK VINA RESULT:      -7.4      1.864      2.830
REMARK  3 active torsions:
REMARK  status: ('A' for Active; 'I' for Inactive)
REMARK    1  A    between atoms: C_10  and  C_4 
REMARK    2  A    between atoms: C_13  and  C_10 
REMARK    3  A    between atoms: C_11  and  C_13 
ROOT
ATOM      1  C   UNL d   1     -46.454  12.333  23.414  0.00  0.00     0.752 A 
ATOM      2  N   UNL d   1     -47.234  12.139  23.234  0.00  0.00    -0.056 N 
ATOM      3  N   UNL d   1     -46.192  13.104  23.292  0.00  0.00    -0.059 NA
ATOM      4  C   UNL d   1     -47.484  13.479  22.815  0.00  0.00     0.037 A 
ATOM      5  C   UNL d   1     -47.754  12.709  22.934  0.00  0.00     0.102 A 
ATOM      6  N   UNL d   1     -46.083  11.664  23.696  0.00  0.00    -0.035 NA
ATOM      7  C   UNL d   1     -46.703  13.677  22.994  0.00  0.00     0.101 A 
ATOM      8  N   UNL d   1     -47.339  11.342  23.409  0.00  0.00    -0.127 NA
ATOM      9  C   UNL d   1     -46.625  11.040  23.697  0.00  0.00     0.239 A 
ATOM     10  C   UNL d   1     -48.527  12.510  22.757  0.00  0.00     0.021 C 
ATOM     11  C   UNL d   1     -46.433  14.447  22.875  0.00  0.00     0.021 C 
ENDROOT
BRANCH   4  12
ATOM     12  C   UNL d   1     -47.988  14.052  22.519  0.00  0.00     0.009 C 
BRANCH  12  13
ATOM     13  C   UNL d   1     -48.334  14.603  23.025  0.00  0.00     0.070 C 
BRANCH  13  14
ATOM     14  C   UNL d   1     -48.903  15.125  22.737  0.00  0.00     0.211 C 
ATOM     15  O   UNL d   1     -48.793  15.500  22.011  0.00  0.00    -0.644 OA
ATOM     16  O   UNL d   1     -49.585  15.274  23.175  0.00  0.00    -0.644 OA
ENDBRANCH  13  14
ENDBRANCH  12  13
ENDBRANCH   4  12
TORSDOF 3
ENDMDL
MODEL 3
REMARK VINA RESULT:      -7.1      1.224      1.998
REMARK  3 active torsions:
REMARK  status: ('A' for Active; 'I' for Inactive)
REMARK    1  A    between atoms: C_10  and  C_4 
REMARK    2  A    between atoms: C_13  and  C_10 
REMARK    3  A    between atoms: C_11  and  C_13 
ROOT
ATOM      1  C   UNL d   1     -49.651  13.667  21.879  0.00  0.00     0.752 A 
ATOM      2  N   UNL d   1     -49.319  12.945  22.096  0.00  0.00    -0.056 N 
ATOM      3  N   UNL d   1     -49.234  14.362  22.023  0.00  0.00    -0.059 NA
ATOM      4  C   UNL d   1     -48.163  13.613  22.598  0.00  0.00     0.037 A 
ATOM      5  C   UNL d   1     -48.574  12.912  22.457  0.00  0.00     0.102 A 
ATOM      6  N   UNL d   1     -50.379  13.521  21.541  0.00  0.00    -0.035 NA
ATOM      7  C   UNL d   1     -48.493  14.338  22.382  0.00  0.00     0.101 A 
ATOM      8  N   UNL d   1     -49.851  12.353  21.888  0.00  0.00    -0.127 NA
ATOM      9  C   UNL d   1     -50.514  12.706  21.541  0.00  0.00     0.239 A 
ATOM     10  C   UNL d   1     -48.250  12.193  22.671  0.00  0.00     0.021 C 
ATOM     11  C   UNL d   1     -48.081  15.039  22.523  0.00  0.00     0.021 C 
ENDROOT
BRANCH   4  12
ATOM     12  C   UNL d   1     -47.427  13.595  22.954  0.00  0.00     0.009 C 
BRANCH  12  13
ATOM     13  C   UNL d   1     -46.747  13.489  22.498  0.00  0.00     0.070 C 
BRANCH  13  14
ATOM     14  C   UNL d   1     -46.007  13.487  22.859  0.00  0.00     0.211 C 
ATOM     15  O   UNL d   1     -45.944  13.434  23.679  0.00  0.00    -0.644 OA
ATOM     16  O   UNL d   1     -45.324  13.538  22.399  0.00  0.00    -0.644 OA
ENDBRANCH  13  14
ENDBRANCH  12  13
ENDBRANCH   4  12
TORSDOF 3
ENDMDL
MODEL 4
REMARK VINA RESULT:      -7.0      2.343      3.251
REMARK  3 active torsions:
REMARK  status: ('A' for Active; 'I' for Inactive)
REMARK    1  A    between atoms: C_10  and  C_4 
REMARK    2  A    between atoms: C_13  and  C_10 
REMARK    3  A    between atoms: C_11  and  C_13 
ROOT
ATOM      1  C   UNL d   1     -46.578  12.980  23.129  0.00  0.00     0.752 A 
ATOM      2  N   UNL d   1     -47.115  13.571  22.928  0.00  0.00    -0.056 N 
ATOM      3  N   UNL d   1     -46.859  12.250  23.385  0.00  0.00    -0.059 NA
ATOM      4  C   UNL d   1     -48.204  12.704  23.238  0.00  0.00     0.037 A 
ATOM      5  C   UNL d   1     -47.931  13.439  22.981  0.00  0.00     0.102 A 
ATOM      6  N   UNL d   1     -45.824  13.273  23.021  0.00  0.00    -0.035 NA
ATOM      7  C   UNL d   1     -47.669  12.110  23.440  0.00  0.00     0.101 A 
ATOM      8  N   UNL d   1     -46.684  14.232  22.695  0.00  0.00    -0.127 NA
ATOM      9  C   UNL d   1     -45.878  14.052  22.750  0.00  0.00     0.239 A 
ATOM     10  C   UNL d   1     -48.459  14.029  22.780  0.00  0.00     0.021 C 
ATOM     11  C   UNL d   1     -47.942  11.376  23.698  0.00  0.00     0.021 C 
ENDROOT
BRANCH   4  12
ATOM     12  C   UNL d   1     -49.007  12.560  23.295  0.00  0.00     0.009 C 
BRANCH  12  13
ATOM     13  C   UNL d   1     -49.398  12.144  22.699  0.00  0.00     0.070 C 
BRANCH  13  14
ATOM     14  C   UNL d   1     -50.220  12.082  22.713  0.00  0.00     0.211 C 
ATOM     15  O   UNL d   1     -50.669  12.380  22.089  0.00  0.00    -0.644 OA
ATOM     16  O   UNL d   1     -50.596  11.722  23.352  0.00  0.00    -0.644 OA
ENDBRANCH  13  14
ENDBRANCH  12  13
ENDBRANCH   4  12
TORSDOF 3
ENDMDL
