MODEL 1
REMARK VINA RESULT:      -7.9      0.000      0.000
REMARK  9 active torsions:
REMARK  status: ('A' for Active; 'I' for Inactive)
REMARK    1  A    between atoms: N_7  and  N_1 
REMARK    2  A    between atoms: S_9  and  C_2 
REMARK       I    between atoms: C_8  and  N_7 
REMARK    3  A    between atoms: C_15  and  C_8 
REMARK    4  A    between atoms: C_14  and  S_9 
REMARK    5  A    between atoms: C_11  and  C_14 
REMARK       I    between atoms: N_16  and  C_11 
REMARK    6  A    between atoms: C_18  and  C_15 
REMARK    7  A    between atoms: C_19  and  N_16 
REMARK    8  A    between atoms: C_22  and  C_19 
REMARK    9  A    between atoms: C_21  and  C_22 
ROOT
ATOM      1  N   UNL d   1      53.352  32.352  53.320  0.00  0.00    -0.168 N 
ATOM      2  C   UNL d   1      52.610  32.300  52.983  0.00  0.00     0.199 A 
ATOM      3  C   UNL d   1      53.744  31.664  53.562  0.00  0.00     0.283 A 
ATOM      4  N   UNL d   1      52.232  31.553  52.875  0.00  0.00    -0.221 NA
ATOM      5  C   UNL d   1      53.370  30.912  53.457  0.00  0.00     0.076 A 
ATOM      6  C   UNL d   1      52.621  30.860  53.117  0.00  0.00     0.088 A 
ATOM      7  O   UNL d   1      54.496  31.711  53.904  0.00  0.00    -0.265 OA
ATOM      8  C   UNL d   1      53.775  30.228  53.705  0.00  0.00     0.006 A 
ATOM      9  C   UNL d   1      52.266  30.123  53.020  0.00  0.00     0.019 A 
ATOM     10  C   UNL d   1      53.404  29.491  53.601  0.00  0.00     0.000 A 
ATOM     11  C   UNL d   1      52.654  29.439  53.260  0.00  0.00     0.002 A 
ENDROOT
BRANCH   2  12
ATOM     12  S   UNL d   1      52.219  32.976  52.742  0.00  0.00    -0.043 SA
BRANCH  12  13
ATOM     13  C   UNL d   1      51.409  32.952  52.575  0.00  0.00     0.101 C 
BRANCH  13  14
ATOM     14  C   UNL d   1      51.009  33.648  52.386  0.00  0.00     0.286 C 
ATOM     15  O   UNL d   1      51.275  34.117  51.758  0.00  0.00    -0.265 OA
ATOM     16  N   UNL d   1      50.348  33.879  52.818  0.00  0.00    -0.206 NA
BRANCH  16  17
ATOM     17  C   UNL d   1      49.949  34.574  52.630  0.00  0.00     0.102 C 
BRANCH  17  18
ATOM     18  C   UNL d   1      49.452  34.931  53.180  0.00  0.00     0.021 C 
BRANCH  18  19
ATOM     19  C   UNL d   1      48.811  35.379  52.930  0.00  0.00     0.002 A 
ATOM     20  C   UNL d   1      48.481  35.246  52.182  0.00  0.00     0.000 A 
ATOM     21  C   UNL d   1      47.832  35.702  51.933  0.00  0.00     0.000 A 
ATOM     22  C   UNL d   1      47.517  36.284  52.425  0.00  0.00     0.000 A 
ATOM     23  C   UNL d   1      47.855  36.412  53.176  0.00  0.00     0.000 A 
ATOM     24  C   UNL d   1      48.496  35.961  53.421  0.00  0.00     0.000 A 
ENDBRANCH  18  19
ENDBRANCH  17  18
ENDBRANCH  16  17
ENDBRANCH  13  14
ENDBRANCH  12  13
ENDBRANCH   2  12
BRANCH   1  25
ATOM     25  N   UNL d   1      53.707  33.080  53.418  0.00  0.00    -0.119 NA
ATOM     26  C   UNL d   1      53.801  33.396  54.173  0.00  0.00     0.296 C 
ATOM     27  O   UNL d   1      53.539  32.984  54.838  0.00  0.00    -0.264 OA
BRANCH  26  28
ATOM     28  C   UNL d   1      54.162  34.136  54.266  0.00  0.00     0.064 C 
BRANCH  28  29
ATOM     29  C   UNL d   1      53.713  34.782  54.494  0.00  0.00     0.005 A 
ATOM     30  C   UNL d   1      53.357  34.795  55.232  0.00  0.00     0.000 A 
ATOM     31  C   UNL d   1      52.904  35.444  55.464  0.00  0.00     0.000 A 
ATOM     32  C   UNL d   1      52.811  36.084  54.945  0.00  0.00     0.000 A 
ATOM     33  C   UNL d   1      53.167  36.071  54.207  0.00  0.00     0.000 A 
ATOM     34  C   UNL d   1      53.619  35.424  53.976  0.00  0.00     0.000 A 
ENDBRANCH  28  29
ENDBRANCH  26  28
ENDBRANCH   1  25
TORSDOF 9
ENDMDL
MODEL 2
REMARK VINA RESULT:      -7.7      0.878      3.546
REMARK  9 active torsions:
REMARK  status: ('A' for Active; 'I' for Inactive)
REMARK    1  A    between atoms: N_7  and  N_1 
REMARK    2  A    between atoms: S_9  and  C_2 
REMARK       I    between atoms: C_8  and  N_7 
REMARK    3  A    between atoms: C_15  and  C_8 
REMARK    4  A    between atoms: C_14  and  S_9 
REMARK    5  A    between atoms: C_11  and  C_14 
REMARK       I    between atoms: N_16  and  C_11 
REMARK    6  A    between atoms: C_18  and  C_15 
REMARK    7  A    between atoms: C_19  and  N_16 
REMARK    8  A    between atoms: C_22  and  C_19 
REMARK    9  A    between atoms: C_21  and  C_22 
ROOT
ATOM      1  N   UNL d   1      53.417  32.952  53.587  0.00  0.00    -0.168 N 
ATOM      2  C   UNL d   1      52.804  33.480  53.701  0.00  0.00     0.199 A 
ATOM      3  C   UNL d   1      54.143  33.077  53.963  0.00  0.00     0.283 A 
ATOM      4  N   UNL d   1      52.898  34.155  54.199  0.00  0.00    -0.221 NA
ATOM      5  C   UNL d   1      54.245  33.752  54.464  0.00  0.00     0.076 A 
ATOM      6  C   UNL d   1      53.626  34.285  54.578  0.00  0.00     0.088 A 
ATOM      7  O   UNL d   1      54.768  32.545  53.851  0.00  0.00    -0.265 OA
ATOM      8  C   UNL d   1      54.981  33.865  54.836  0.00  0.00     0.006 A 
ATOM      9  C   UNL d   1      53.735  34.938  55.068  0.00  0.00     0.019 A 
ATOM     10  C   UNL d   1      55.075  34.530  55.327  0.00  0.00     0.000 A 
ATOM     11  C   UNL d   1      54.456  35.063  55.442  0.00  0.00     0.002 A 
ENDROOT
BRANCH   2  12
ATOM     12  S   UNL d   1      52.085  33.362  53.332  0.00  0.00    -0.043 SA
BRANCH  12  13
ATOM     13  C   UNL d   1      51.673  34.002  53.005  0.00  0.00     0.101 C 
BRANCH  13  14
ATOM     14  C   UNL d   1      50.854  33.965  52.929  0.00  0.00     0.286 C 
ATOM     15  O   UNL d   1      50.438  33.332  53.263  0.00  0.00    -0.265 OA
ATOM     16  N   UNL d   1      50.446  34.553  52.523  0.00  0.00    -0.206 NA
BRANCH  16  17
ATOM     17  C   UNL d   1      49.627  34.516  52.447  0.00  0.00     0.102 C 
BRANCH  17  18
ATOM     18  C   UNL d   1      49.253  34.859  51.799  0.00  0.00     0.021 C 
BRANCH  18  19
ATOM     19  C   UNL d   1      48.511  35.202  51.882  0.00  0.00     0.002 A 
ATOM     20  C   UNL d   1      47.932  35.077  51.304  0.00  0.00     0.000 A 
ATOM     21  C   UNL d   1      47.183  35.426  51.391  0.00  0.00     0.000 A 
ATOM     22  C   UNL d   1      47.015  35.894  52.049  0.00  0.00     0.000 A 
ATOM     23  C   UNL d   1      47.603  36.016  52.627  0.00  0.00     0.000 A 
ATOM     24  C   UNL d   1      48.343  35.670  52.539  0.00  0.00     0.000 A 
ENDBRANCH  18  19
ENDBRANCH  17  18
ENDBRANCH  16  17
ENDBRANCH  13  14
ENDBRANCH  12  13
ENDBRANCH   2  12
BRANCH   1  25
ATOM     25  N   UNL d   1      53.314  32.303  53.103  0.00  0.00    -0.119 NA
ATOM     26  C   UNL d   1      53.245  31.551  53.431  0.00  0.00     0.296 C 
ATOM     27  O   UNL d   1      53.279  31.441  54.248  0.00  0.00    -0.264 OA
BRANCH  26  28
ATOM     28  C   UNL d   1      53.139  30.895  52.934  0.00  0.00     0.064 C 
BRANCH  28  29
ATOM     29  C   UNL d   1      53.022  30.153  53.260  0.00  0.00     0.005 A 
ATOM     30  C   UNL d   1      52.299  29.776  53.175  0.00  0.00     0.000 A 
ATOM     31  C   UNL d   1      52.178  29.029  53.502  0.00  0.00     0.000 A 
ATOM     32  C   UNL d   1      52.793  28.660  53.918  0.00  0.00     0.000 A 
ATOM     33  C   UNL d   1      53.517  29.037  54.003  0.00  0.00     0.000 A 
ATOM     34  C   UNL d   1      53.637  29.782  53.677  0.00  0.00     0.000 A 
ENDBRANCH  28  29
ENDBRANCH  26  28
ENDBRANCH   1  25
TORSDOF 9
ENDMDL
MODEL 3
REMARK VINA RESULT:      -5.6      1.313      5.142
REMARK  9 active torsions:
REMARK  status: ('A' for Active; 'I' for Inactive)
REMARK    1  A    between atoms: N_7  and  N_1 
REMARK    2  A    between atoms: S_9  and  C_2 
REMARK       I    between atoms: C_8  and  N_7 
REMARK    3  A    between atoms: C_15  and  C_8 
REMARK    4  A    between atoms: C_14  and  S_9 
REMARK    5  A    between atoms: C_11  and  C_14 
REMARK       I    between atoms: N_16  and  C_11 
REMARK    6  A    between atoms: C_18  and  C_15 
REMARK    7  A    between atoms: C_19  and  N_16 
REMARK    8  A    between atoms: C_22  and  C_19 
REMARK    9  A    between atoms: C_21  and  C_22 
ROOT
ATOM      1  N   UNL d   1      51.381  33.989  53.475  0.00  0.00    -0.168 N 
ATOM      2  C   UNL d   1      51.521  33.451  52.876  0.00  0.00     0.199 A 
ATOM      3  C   UNL d   1      50.770  34.541  53.399  0.00  0.00     0.283 A 
ATOM      4  N   UNL d   1      51.049  33.447  52.177  0.00  0.00    -0.221 NA
ATOM      5  C   UNL d   1      50.293  34.542  52.700  0.00  0.00     0.076 A 
ATOM      6  C   UNL d   1      50.434  33.998  52.095  0.00  0.00     0.088 A 
ATOM      7  O   UNL d   1      50.624  35.088  54.002  0.00  0.00    -0.265 OA
ATOM      8  C   UNL d   1      49.680  35.102  52.636  0.00  0.00     0.006 A 
ATOM      9  C   UNL d   1      49.964  34.008  51.419  0.00  0.00     0.019 A 
ATOM     10  C   UNL d   1      49.214  35.100  51.947  0.00  0.00     0.000 A 
ATOM     11  C   UNL d   1      49.355  34.556  51.342  0.00  0.00     0.002 A 
ENDROOT
BRANCH   2  12
ATOM     12  S   UNL d   1      52.124  32.904  52.947  0.00  0.00    -0.043 SA
BRANCH  12  13
ATOM     13  C   UNL d   1      52.088  32.187  52.534  0.00  0.00     0.101 C 
BRANCH  13  14
ATOM     14  C   UNL d   1      52.642  31.598  52.687  0.00  0.00     0.286 C 
ATOM     15  O   UNL d   1      53.423  31.691  52.429  0.00  0.00    -0.265 OA
ATOM     16  N   UNL d   1      52.425  30.918  53.096  0.00  0.00    -0.206 NA
BRANCH  16  17
ATOM     17  C   UNL d   1      52.980  30.328  53.250  0.00  0.00     0.102 C 
BRANCH  17  18
ATOM     18  C   UNL d   1      52.736  29.574  53.469  0.00  0.00     0.021 C 
BRANCH  18  19
ATOM     19  C   UNL d   1      53.055  29.212  54.134  0.00  0.00     0.002 A 
ATOM     20  C   UNL d   1      53.570  28.570  54.047  0.00  0.00     0.000 A 
ATOM     21  C   UNL d   1      53.891  28.207  54.722  0.00  0.00     0.000 A 
ATOM     22  C   UNL d   1      53.698  28.482  55.475  0.00  0.00     0.000 A 
ATOM     23  C   UNL d   1      53.178  29.128  55.555  0.00  0.00     0.000 A 
ATOM     24  C   UNL d   1      52.862  29.486  54.887  0.00  0.00     0.000 A 
ENDBRANCH  18  19
ENDBRANCH  17  18
ENDBRANCH  16  17
ENDBRANCH  13  14
ENDBRANCH  12  13
ENDBRANCH   2  12
BRANCH   1  25
ATOM     25  N   UNL d   1      51.844  33.983  54.147  0.00  0.00    -0.119 NA
ATOM     26  C   UNL d   1      52.463  34.521  54.227  0.00  0.00     0.296 C 
ATOM     27  O   UNL d   1      52.624  35.071  53.634  0.00  0.00    -0.264 OA
BRANCH  26  28
ATOM     28  C   UNL d   1      52.930  34.509  54.912  0.00  0.00     0.064 C 
BRANCH  28  29
ATOM     29  C   UNL d   1      53.688  34.199  54.883  0.00  0.00     0.005 A 
ATOM     30  C   UNL d   1      54.258  34.552  54.412  0.00  0.00     0.000 A 
ATOM     31  C   UNL d   1      55.022  34.242  54.380  0.00  0.00     0.000 A 
ATOM     32  C   UNL d   1      55.209  33.570  54.828  0.00  0.00     0.000 A 
ATOM     33  C   UNL d   1      54.638  33.216  55.299  0.00  0.00     0.000 A 
ATOM     34  C   UNL d   1      53.877  33.526  55.330  0.00  0.00     0.000 A 
ENDBRANCH  28  29
ENDBRANCH  26  28
ENDBRANCH   1  25
TORSDOF 9
ENDMDL
