MODEL 1
REMARK VINA RESULT:      -3.0      0.000      0.000
REMARK  5 active torsions:
REMARK  status: ('A' for Active; 'I' for Inactive)
REMARK    1  A    between atoms: C_3  and  C_1 
REMARK       I    between atoms: N_5  and  C_1 
REMARK    2  A    between atoms: C_2  and  C_4 
REMARK    3  A    between atoms: C_4  and  C_3 
REMARK    4  A    between atoms: C_7  and  N_5 
REMARK    5  A    between atoms: O_14  and  C_13 
ROOT
ATOM      1  C   UNL d   1      32.980  18.957 -22.775  0.00  0.00     0.279 C 
ATOM      2  N   UNL d   1      32.656  18.726 -23.495  0.00  0.00    -0.208 NA
ATOM      3  O   UNL d   1      33.241  18.391 -22.239  0.00  0.00    -0.265 OA
ENDROOT
BRANCH   1   4
ATOM      4  C   UNL d   1      33.045  19.753 -22.587  0.00  0.00     0.065 C 
BRANCH   4   5
ATOM      5  C   UNL d   1      32.906  20.010 -21.811  0.00  0.00     0.030 C 
BRANCH   5   6
ATOM      6  C   UNL d   1      32.859  20.818 -21.652  0.00  0.00     0.100 A 
ATOM      7  O   UNL d   1      33.156  21.484 -22.066  0.00  0.00    -0.305 OA
ATOM      8  C   UNL d   1      32.934  22.160 -21.634  0.00  0.00     0.123 A 
ATOM      9  C   UNL d   1      32.509  21.918 -20.968  0.00  0.00     0.029 A 
ATOM     10  C   UNL d   1      32.462  21.084 -20.977  0.00  0.00     0.027 A 
ENDBRANCH   5   6
ENDBRANCH   4   5
ENDBRANCH   1   4
BRANCH   2  11
ATOM     11  C   UNL d   1      32.593  17.925 -23.678  0.00  0.00     0.087 A 
ATOM     12  C   UNL d   1      31.890  17.535 -23.547  0.00  0.00     0.043 A 
ATOM     13  C   UNL d   1      31.825  16.737 -23.729  0.00  0.00     0.096 A 
ATOM     14  C   UNL d   1      32.467  16.327 -24.044  0.00  0.00     0.024 A 
ATOM     15  C   UNL d   1      33.182  16.731 -24.175  0.00  0.00     0.004 A 
ATOM     16  C   UNL d   1      33.241  17.532 -23.991  0.00  0.00     0.019 A 
BRANCH  13  17
ATOM     17  O   UNL d   1      31.112  16.338 -23.597  0.00  0.00    -0.328 OA
ATOM     18  C   UNL d   1      30.909  15.688 -24.056  0.00  0.00     0.181 C 
ENDBRANCH  13  17
ENDBRANCH   2  11
TORSDOF 5
ENDMDL
MODEL 2
REMARK VINA RESULT:      -2.9      1.919      5.554
REMARK  5 active torsions:
REMARK  status: ('A' for Active; 'I' for Inactive)
REMARK    1  A    between atoms: C_3  and  C_1 
REMARK       I    between atoms: N_5  and  C_1 
REMARK    2  A    between atoms: C_2  and  C_4 
REMARK    3  A    between atoms: C_4  and  C_3 
REMARK    4  A    between atoms: C_7  and  N_5 
REMARK    5  A    between atoms: O_14  and  C_13 
ROOT
ATOM      1  C   UNL d   1      32.917  21.238 -21.440  0.00  0.00     0.279 C 
ATOM      2  N   UNL d   1      33.199  22.011 -21.460  0.00  0.00    -0.208 NA
ATOM      3  O   UNL d   1      32.322  21.029 -20.913  0.00  0.00    -0.265 OA
ENDROOT
BRANCH   1   4
ATOM      4  C   UNL d   1      33.228  20.672 -21.946  0.00  0.00     0.065 C 
BRANCH   4   5
ATOM      5  C   UNL d   1      32.954  19.890 -21.912  0.00  0.00     0.030 C 
BRANCH   5   6
ATOM      6  C   UNL d   1      33.066  19.391 -22.560  0.00  0.00     0.100 A 
ATOM      7  O   UNL d   1      33.134  19.552 -23.380  0.00  0.00    -0.305 OA
ATOM      8  C   UNL d   1      33.241  18.822 -23.765  0.00  0.00     0.123 A 
ATOM      9  C   UNL d   1      33.239  18.223 -23.196  0.00  0.00     0.029 A 
ATOM     10  C   UNL d   1      33.130  18.574 -22.447  0.00  0.00     0.027 A 
ENDBRANCH   5   6
ENDBRANCH   4   5
ENDBRANCH   1   4
BRANCH   2  11
ATOM     11  C   UNL d   1      32.884  22.576 -20.949  0.00  0.00     0.087 A 
ATOM     12  C   UNL d   1      33.217  22.686 -20.214  0.00  0.00     0.043 A 
ATOM     13  C   UNL d   1      32.904  23.249 -19.704  0.00  0.00     0.096 A 
ATOM     14  C   UNL d   1      32.254  23.702 -19.931  0.00  0.00     0.024 A 
ATOM     15  C   UNL d   1      31.919  23.584 -20.682  0.00  0.00     0.004 A 
ATOM     16  C   UNL d   1      32.237  23.019 -21.190  0.00  0.00     0.019 A 
BRANCH  13  17
ATOM     17  O   UNL d   1      33.240  23.363 -18.957  0.00  0.00    -0.328 OA
ATOM     18  C   UNL d   1      32.772  23.330 -18.282  0.00  0.00     0.181 C 
ENDBRANCH  13  17
ENDBRANCH   2  11
TORSDOF 5
ENDMDL
MODEL 3
REMARK VINA RESULT:      -2.4      1.838      4.772
REMARK  5 active torsions:
REMARK  status: ('A' for Active; 'I' for Inactive)
REMARK    1  A    between atoms: C_3  and  C_1 
REMARK       I    between atoms: N_5  and  C_1 
REMARK    2  A    between atoms: C_2  and  C_4 
REMARK    3  A    between atoms: C_4  and  C_3 
REMARK    4  A    between atoms: C_7  and  N_5 
REMARK    5  A    between atoms: O_14  and  C_13 
ROOT
ATOM      1  C   UNL d   1      30.779  17.377 -24.351  0.00  0.00     0.279 C 
ATOM      2  N   UNL d   1      31.499  17.226 -23.983  0.00  0.00    -0.208 NA
ATOM      3  O   UNL d   1      30.638  18.107 -24.701  0.00  0.00    -0.265 OA
ENDROOT
BRANCH   1   4
ATOM      4  C   UNL d   1      30.196  16.799 -24.371  0.00  0.00     0.065 C 
BRANCH   4   5
ATOM      5  C   UNL d   1      29.397  17.016 -24.386  0.00  0.00     0.030 C 
BRANCH   5   6
ATOM      6  C   UNL d   1      28.826  16.490 -24.106  0.00  0.00     0.100 A 
ATOM      7  O   UNL d   1      28.651  15.698 -24.318  0.00  0.00    -0.305 OA
ATOM      8  C   UNL d   1      28.013  15.453 -23.843  0.00  0.00     0.123 A 
ATOM      9  C   UNL d   1      27.798  16.079 -23.348  0.00  0.00     0.029 A 
ATOM     10  C   UNL d   1      28.303  16.724 -23.511  0.00  0.00     0.027 A 
ENDBRANCH   5   6
ENDBRANCH   4   5
ENDBRANCH   1   4
BRANCH   2  11
ATOM     11  C   UNL d   1      32.081  17.810 -23.966  0.00  0.00     0.087 A 
ATOM     12  C   UNL d   1      32.298  18.143 -23.255  0.00  0.00     0.043 A 
ATOM     13  C   UNL d   1      32.877  18.725 -23.235  0.00  0.00     0.096 A 
ATOM     14  C   UNL d   1      33.241  18.974 -23.932  0.00  0.00     0.024 A 
ATOM     15  C   UNL d   1      33.015  18.630 -24.654  0.00  0.00     0.004 A 
ATOM     16  C   UNL d   1      32.434  18.047 -24.667  0.00  0.00     0.019 A 
BRANCH  13  17
ATOM     17  O   UNL d   1      33.099  19.065 -22.515  0.00  0.00    -0.328 OA
ATOM     18  C   UNL d   1      33.100  19.882 -22.425  0.00  0.00     0.181 C 
ENDBRANCH  13  17
ENDBRANCH   2  11
TORSDOF 5
ENDMDL
MODEL 4
REMARK VINA RESULT:      -2.3      1.061      4.757
REMARK  5 active torsions:
REMARK  status: ('A' for Active; 'I' for Inactive)
REMARK    1  A    between atoms: C_3  and  C_1 
REMARK       I    between atoms: N_5  and  C_1 
REMARK    2  A    between atoms: C_2  and  C_4 
REMARK    3  A    between atoms: C_4  and  C_3 
REMARK    4  A    between atoms: C_7  and  N_5 
REMARK    5  A    between atoms: O_14  and  C_13 
ROOT
ATOM      1  C   UNL d   1      32.845  19.236 -22.745  0.00  0.00     0.279 C 
ATOM      2  N   UNL d   1      33.089  19.599 -22.049  0.00  0.00    -0.208 NA
ATOM      3  O   UNL d   1      32.502  19.680 -23.346  0.00  0.00    -0.265 OA
ENDROOT
BRANCH   1   4
ATOM      4  C   UNL d   1      32.943  18.427 -22.846  0.00  0.00     0.065 C 
BRANCH   4   5
ATOM      5  C   UNL d   1      32.464  18.014 -23.382  0.00  0.00     0.030 C 
BRANCH   5   6
ATOM      6  C   UNL d   1      32.522  17.192 -23.429  0.00  0.00     0.100 A 
ATOM      7  O   UNL d   1      32.995  16.643 -23.008  0.00  0.00    -0.305 OA
ATOM      8  C   UNL d   1      32.810  15.886 -23.299  0.00  0.00     0.123 A 
ATOM      9  C   UNL d   1      32.235  15.965 -23.888  0.00  0.00     0.029 A 
ATOM     10  C   UNL d   1      32.055  16.775 -23.970  0.00  0.00     0.027 A 
ENDBRANCH   5   6
ENDBRANCH   4   5
ENDBRANCH   1   4
BRANCH   2  11
ATOM     11  C   UNL d   1      32.988  20.412 -21.953  0.00  0.00     0.087 A 
ATOM     12  C   UNL d   1      32.640  20.698 -21.276  0.00  0.00     0.043 A 
ATOM     13  C   UNL d   1      32.538  21.507 -21.178  0.00  0.00     0.096 A 
ATOM     14  C   UNL d   1      32.787  22.032 -21.764  0.00  0.00     0.024 A 
ATOM     15  C   UNL d   1      33.142  21.733 -22.453  0.00  0.00     0.004 A 
ATOM     16  C   UNL d   1      33.241  20.921 -22.545  0.00  0.00     0.019 A 
BRANCH  13  17
ATOM     17  O   UNL d   1      32.184  21.801 -20.491  0.00  0.00    -0.328 OA
ATOM     18  C   UNL d   1      32.087  22.611 -20.388  0.00  0.00     0.181 C 
ENDBRANCH  13  17
ENDBRANCH   2  11
TORSDOF 5
ENDMDL
MODEL 5
REMARK VINA RESULT:      -1.6      3.469      5.554
REMARK  5 active torsions:
REMARK  status: ('A' for Active; 'I' for Inactive)
REMARK    1  A    between atoms: C_3  and  C_1 
REMARK       I    between atoms: N_5  and  C_1 
REMARK    2  A    between atoms: C_2  and  C_4 
REMARK    3  A    between atoms: C_4  and  C_3 
REMARK    4  A    between atoms: C_7  and  N_5 
REMARK    5  A    between atoms: O_14  and  C_13 
ROOT
ATOM      1  C   UNL d   1      32.614  23.434 -19.821  0.00  0.00     0.279 C 
ATOM      2  N   UNL d   1      33.241  23.402 -20.353  0.00  0.00    -0.208 NA
ATOM      3  O   UNL d   1      31.862  23.199 -20.055  0.00  0.00    -0.265 OA
ENDROOT
BRANCH   1   4
ATOM      4  C   UNL d   1      32.736  23.701 -19.055  0.00  0.00     0.065 C 
BRANCH   4   5
ATOM      5  C   UNL d   1      32.218  23.474 -18.449  0.00  0.00     0.030 C 
BRANCH   5   6
ATOM      6  C   UNL d   1      32.490  23.440 -17.671  0.00  0.00     0.100 A 
ATOM      7  O   UNL d   1      33.240  23.611 -17.338  0.00  0.00    -0.305 OA
ATOM      8  C   UNL d   1      33.182  23.474 -16.519  0.00  0.00     0.123 A 
ATOM      9  C   UNL d   1      32.413  23.222 -16.350  0.00  0.00     0.029 A 
ATOM     10  C   UNL d   1      31.982  23.200 -17.064  0.00  0.00     0.027 A 
ENDBRANCH   5   6
ENDBRANCH   4   5
ENDBRANCH   1   4
BRANCH   2  11
ATOM     11  C   UNL d   1      33.113  23.134 -21.122  0.00  0.00     0.087 A 
ATOM     12  C   UNL d   1      33.109  22.334 -21.275  0.00  0.00     0.043 A 
ATOM     13  C   UNL d   1      32.982  22.064 -22.040  0.00  0.00     0.096 A 
ATOM     14  C   UNL d   1      32.857  22.599 -22.655  0.00  0.00     0.024 A 
ATOM     15  C   UNL d   1      32.862  23.414 -22.493  0.00  0.00     0.004 A 
ATOM     16  C   UNL d   1      32.991  23.678 -21.724  0.00  0.00     0.019 A 
BRANCH  13  17
ATOM     17  O   UNL d   1      32.977  21.252 -22.198  0.00  0.00    -0.328 OA
ATOM     18  C   UNL d   1      33.132  20.976 -22.956  0.00  0.00     0.181 C 
ENDBRANCH  13  17
ENDBRANCH   2  11
TORSDOF 5
ENDMDL
MODEL 6
REMARK VINA RESULT:      -0.7      1.578      2.759
REMARK  5 active torsions:
REMARK  status: ('A' for Active; 'I' for Inactive)
REMARK    1  A    between atoms: C_3  and  C_1 
REMARK       I    between atoms: N_5  and  C_1 
REMARK    2  A    between atoms: C_2  and  C_4 
REMARK    3  A    between atoms: C_4  and  C_3 
REMARK    4  A    between atoms: C_7  and  N_5 
REMARK    5  A    between atoms: O_14  and  C_13 
ROOT
ATOM      1  C   UNL d   1      32.950  20.976 -21.285  0.00  0.00     0.279 C 
ATOM      2  N   UNL d   1      33.241  20.970 -22.055  0.00  0.00    -0.208 NA
ATOM      3  O   UNL d   1      32.534  20.329 -20.995  0.00  0.00    -0.265 OA
ENDROOT
BRANCH   1   4
ATOM      4  C   UNL d   1      33.072  21.629 -20.803  0.00  0.00     0.065 C 
BRANCH   4   5
ATOM      5  C   UNL d   1      32.496  21.851 -20.250  0.00  0.00     0.030 C 
BRANCH   5   6
ATOM      6  C   UNL d   1      32.656  22.458 -19.716  0.00  0.00     0.100 A 
ATOM      7  O   UNL d   1      33.107  22.471 -19.009  0.00  0.00    -0.305 OA
ATOM      8  C   UNL d   1      33.068  23.246 -18.707  0.00  0.00     0.123 A 
ATOM      9  C   UNL d   1      32.603  23.702 -19.216  0.00  0.00     0.029 A 
ATOM     10  C   UNL d   1      32.347  23.214 -19.843  0.00  0.00     0.027 A 
ENDBRANCH   5   6
ENDBRANCH   4   5
ENDBRANCH   1   4
BRANCH   2  11
ATOM     11  C   UNL d   1      33.115  20.311 -22.535  0.00  0.00     0.087 A 
ATOM     12  C   UNL d   1      33.218  19.564 -22.230  0.00  0.00     0.043 A 
ATOM     13  C   UNL d   1      33.093  18.906 -22.706  0.00  0.00     0.096 A 
ATOM     14  C   UNL d   1      32.863  18.999 -23.493  0.00  0.00     0.024 A 
ATOM     15  C   UNL d   1      32.760  19.765 -23.798  0.00  0.00     0.004 A 
ATOM     16  C   UNL d   1      32.887  20.420 -23.315  0.00  0.00     0.019 A 
BRANCH  13  17
ATOM     17  O   UNL d   1      33.196  18.145 -22.399  0.00  0.00    -0.328 OA
ATOM     18  C   UNL d   1      32.863  17.496 -22.777  0.00  0.00     0.181 C 
ENDBRANCH  13  17
ENDBRANCH   2  11
TORSDOF 5
ENDMDL
