MODEL 1
REMARK VINA RESULT:      52.8      0.000      0.000
REMARK  4 active torsions:
REMARK  status: ('A' for Active; 'I' for Inactive)
REMARK    1  A    between atoms: N_4  and  S_1 
REMARK    2  A    between atoms: C_5  and  S_1 
REMARK    3  A    between atoms: C_3  and  C_9 
REMARK    4  A    between atoms: C_14  and  N_4 
ROOT
ATOM      1  S   UNL d   1     -56.178 -99.011 -43.686  0.00  0.00     0.285 S 
ATOM      2  O   UNL d   1     -55.751 -98.760 -43.029  0.00  0.00    -0.198 OA
ATOM      3  O   UNL d   1     -56.415 -99.309 -44.419  0.00  0.00    -0.198 OA
ENDROOT
BRANCH   1   4
ATOM      4  N   UNL d   1     -55.793 -99.322 -44.343  0.00  0.00    -0.158 NA
BRANCH   4   5
ATOM      5  C   UNL d   1     -55.438-100.067 -44.296  0.00  0.00     0.094 A 
ATOM      6  C   UNL d   1     -55.376-100.453 -43.567  0.00  0.00     0.021 A 
ATOM      7  C   UNL d   1     -55.022-101.192 -43.526  0.00  0.00     0.020 A 
ATOM      8  C   UNL d   1     -54.727-101.554 -44.211  0.00  0.00     0.002 A 
ATOM      9  C   UNL d   1     -54.787-101.174 -44.931  0.00  0.00     0.002 A 
ATOM     10  C   UNL d   1     -55.142-100.429 -44.981  0.00  0.00     0.020 A 
BRANCH   7  11
ATOM     11  C   UNL d   1     -54.960-101.579 -42.797  0.00  0.00     0.088 A 
ATOM     12  N   UNL d   1     -54.985-101.161 -41.431  0.00  0.00    -0.238 NA
ATOM     13  C   UNL d   1     -54.882-101.956 -41.186  0.00  0.00     0.111 A 
ATOM     14  C   UNL d   1     -54.844-102.139 -40.384  0.00  0.00     0.028 C 
ATOM     15  S   UNL d   1     -54.818-102.563 -41.744  0.00  0.00    -0.066 SA
ATOM     16  C   UNL d   1     -54.858-102.369 -42.554  0.00  0.00     0.056 A 
ENDBRANCH   7  11
ENDBRANCH   4   5
ENDBRANCH   1   4
BRANCH   1  17
ATOM     17  C   UNL d   1     -57.001 -98.948 -43.681  0.00  0.00     0.105 A 
ATOM     18  C   UNL d   1     -57.418 -98.996 -44.392  0.00  0.00     0.013 A 
ATOM     19  C   UNL d   1     -58.249 -98.932 -44.384  0.00  0.00     0.001 A 
ATOM     20  C   UNL d   1     -58.663 -98.981 -45.100  0.00  0.00     0.000 A 
ATOM     21  C   UNL d   1     -58.649 -98.821 -43.674  0.00  0.00     0.000 A 
ATOM     22  C   UNL d   1     -59.485 -98.917 -45.090  0.00  0.00     0.000 A 
ATOM     23  C   UNL d   1     -59.889 -98.806 -44.379  0.00  0.00     0.000 A 
ATOM     24  C   UNL d   1     -59.473 -98.758 -43.673  0.00  0.00     0.000 A 
ATOM     25  C   UNL d   1     -58.226 -98.774 -42.971  0.00  0.00     0.001 A 
ATOM     26  C   UNL d   1     -57.405 -98.836 -42.970  0.00  0.00     0.013 A 
ENDBRANCH   1  17
TORSDOF 4
ENDMDL
