MODEL 1
REMARK VINA RESULT:      -9.8      0.000      0.000
REMARK  6 active torsions:
REMARK  status: ('A' for Active; 'I' for Inactive)
REMARK    1  A    between atoms: N_15  and  C_1 
REMARK    2  A    between atoms: C_21  and  N_6 
REMARK    3  A    between atoms: C_16  and  C_8 
REMARK    4  A    between atoms: C_9  and  S_17 
REMARK       I    between atoms: C_20  and  N_15 
REMARK    5  A    between atoms: S_17  and  C_23 
REMARK    6  A    between atoms: C_23  and  C_20 
ROOT
ATOM      1  C   UNL d   1      51.358  34.356  52.793  0.00  0.00     0.099 C 
ENDROOT
BRANCH   1   2
ATOM      2  S   UNL d   1      51.675  33.698  53.294  0.00  0.00    -0.064 SA
BRANCH   2   3
ATOM      3  C   UNL d   1      52.427  33.543  53.679  0.00  0.00     0.096 A 
ATOM      4  N   UNL d   1      52.738  32.780  53.669  0.00  0.00    -0.285 N 
ATOM      5  C   UNL d   1      53.475  32.627  54.046  0.00  0.00     0.150 A 
ATOM      6  C   UNL d   1      52.656  31.388  53.286  0.00  0.00     0.084 A 
ATOM      7  N   UNL d   1      53.796  31.858  54.040  0.00  0.00    -0.227 NA
ATOM      8  C   UNL d   1      53.877  33.241  54.421  0.00  0.00     0.056 A 
ATOM      9  C   UNL d   1      53.393  31.235  53.663  0.00  0.00     0.099 A 
ATOM     10  C   UNL d   1      53.704  30.473  53.653  0.00  0.00     0.021 A 
ATOM     11  C   UNL d   1      53.300  29.858  53.278  0.00  0.00     0.002 A 
ATOM     12  C   UNL d   1      52.575  30.009  52.907  0.00  0.00     0.002 A 
ATOM     13  C   UNL d   1      52.253  30.773  52.911  0.00  0.00     0.019 A 
ATOM     14  C   UNL d   1      53.556  34.015  54.427  0.00  0.00     0.006 A 
ATOM     15  C   UNL d   1      52.831  34.157  54.055  0.00  0.00     0.025 A 
ATOM     16  C   UNL d   1      53.958  34.621  54.800  0.00  0.00     0.000 C 
BRANCH   8  17
ATOM     17  C   UNL d   1      54.603  33.100  54.794  0.00  0.00     0.125 C 
ATOM     18  N   UNL d   1      54.655  33.283  55.600  0.00  0.00    -0.146 N 
ENDBRANCH   8  17
ENDBRANCH   2   3
ENDBRANCH   1   2
BRANCH   1  19
ATOM     19  C   UNL d   1      50.492  34.418  52.659  0.00  0.00     0.286 C 
ATOM     20  N   UNL d   1      50.114  35.215  52.607  0.00  0.00    -0.201 NA
ATOM     21  O   UNL d   1      49.996  33.693  52.576  0.00  0.00    -0.265 OA
BRANCH  20  22
ATOM     22  C   UNL d   1      49.241  35.285  52.472  0.00  0.00     0.160 A 
ATOM     23  C   UNL d   1      48.623  35.591  52.893  0.00  0.00     0.298 A 
ATOM     24  N   UNL d   1      47.874  35.556  52.586  0.00  0.00    -0.209 N 
ATOM     25  O   UNL d   1      48.752  35.927  53.607  0.00  0.00    -0.263 OA
ATOM     26  N   UNL d   1      47.741  35.220  51.870  0.00  0.00    -0.238 N 
ATOM     27  C   UNL d   1      48.363  34.914  51.450  0.00  0.00     0.104 A 
ATOM     28  C   UNL d   1      47.000  35.185  51.567  0.00  0.00     0.120 C 
ATOM     29  C   UNL d   1      48.445  34.513  50.672  0.00  0.00     0.022 C 
BRANCH  24  30
ATOM     30  C   UNL d   1      47.255  35.863  53.007  0.00  0.00     0.085 A 
ATOM     31  C   UNL d   1      47.128  35.615  53.762  0.00  0.00     0.019 A 
ATOM     32  C   UNL d   1      46.510  35.921  54.183  0.00  0.00     0.002 A 
ATOM     33  C   UNL d   1      46.028  36.474  53.839  0.00  0.00     0.000 A 
ATOM     34  C   UNL d   1      46.170  36.709  53.085  0.00  0.00     0.002 A 
ATOM     35  C   UNL d   1      46.784  36.403  52.671  0.00  0.00     0.019 A 
ENDBRANCH  24  30
ENDBRANCH  20  22
ENDBRANCH   1  19
TORSDOF 6
ENDMDL
MODEL 2
REMARK VINA RESULT:      -8.2      0.926      2.549
REMARK  6 active torsions:
REMARK  status: ('A' for Active; 'I' for Inactive)
REMARK    1  A    between atoms: N_15  and  C_1 
REMARK    2  A    between atoms: C_21  and  N_6 
REMARK    3  A    between atoms: C_16  and  C_8 
REMARK    4  A    between atoms: C_9  and  S_17 
REMARK       I    between atoms: C_20  and  N_15 
REMARK    5  A    between atoms: S_17  and  C_23 
REMARK    6  A    between atoms: C_23  and  C_20 
ROOT
ATOM      1  C   UNL d   1      50.922  33.851  52.633  0.00  0.00     0.099 C 
ENDROOT
BRANCH   1   2
ATOM      2  S   UNL d   1      51.360  33.431  53.279  0.00  0.00    -0.064 SA
BRANCH   2   3
ATOM      3  C   UNL d   1      51.974  32.831  53.298  0.00  0.00     0.096 A 
ATOM      4  N   UNL d   1      52.672  32.978  53.709  0.00  0.00    -0.285 N 
ATOM      5  C   UNL d   1      53.274  32.390  53.728  0.00  0.00     0.150 A 
ATOM      6  C   UNL d   1      53.503  33.841  54.519  0.00  0.00     0.084 A 
ATOM      7  N   UNL d   1      53.984  32.531  54.142  0.00  0.00    -0.227 NA
ATOM      8  C   UNL d   1      53.159  31.674  53.337  0.00  0.00     0.056 A 
ATOM      9  C   UNL d   1      54.104  33.253  54.538  0.00  0.00     0.099 A 
ATOM     10  C   UNL d   1      54.803  33.400  54.949  0.00  0.00     0.021 A 
ATOM     11  C   UNL d   1      54.919  34.118  55.341  0.00  0.00     0.002 A 
ATOM     12  C   UNL d   1      54.326  34.696  55.321  0.00  0.00     0.002 A 
ATOM     13  C   UNL d   1      53.619  34.558  54.911  0.00  0.00     0.019 A 
ATOM     14  C   UNL d   1      52.446  31.530  52.921  0.00  0.00     0.006 A 
ATOM     15  C   UNL d   1      51.859  32.113  52.906  0.00  0.00     0.025 A 
ATOM     16  C   UNL d   1      52.335  30.819  52.534  0.00  0.00     0.000 C 
BRANCH   8  17
ATOM     17  C   UNL d   1      53.746  31.090  53.351  0.00  0.00     0.125 C 
ATOM     18  N   UNL d   1      53.544  30.360  53.688  0.00  0.00    -0.146 N 
ENDBRANCH   8  17
ENDBRANCH   2   3
ENDBRANCH   1   2
BRANCH   1  19
ATOM     19  C   UNL d   1      50.161  34.251  52.816  0.00  0.00     0.286 C 
ATOM     20  N   UNL d   1      49.762  34.736  52.195  0.00  0.00    -0.201 NA
ATOM     21  O   UNL d   1      49.793  34.173  53.615  0.00  0.00    -0.265 OA
BRANCH  20  22
ATOM     22  C   UNL d   1      48.994  35.142  52.374  0.00  0.00     0.160 A 
ATOM     23  C   UNL d   1      48.265  35.158  52.026  0.00  0.00     0.298 A 
ATOM     24  N   UNL d   1      47.676  35.606  52.355  0.00  0.00    -0.209 N 
ATOM     25  O   UNL d   1      48.128  34.735  51.362  0.00  0.00    -0.263 OA
ATOM     26  N   UNL d   1      47.809  36.032  53.021  0.00  0.00    -0.238 N 
ATOM     27  C   UNL d   1      48.542  36.013  53.368  0.00  0.00     0.104 A 
ATOM     28  C   UNL d   1      47.226  36.475  53.347  0.00  0.00     0.120 C 
ATOM     29  C   UNL d   1      48.899  36.389  54.078  0.00  0.00     0.022 C 
BRANCH  24  30
ATOM     30  C   UNL d   1      46.946  35.623  52.007  0.00  0.00     0.085 A 
ATOM     31  C   UNL d   1      46.333  35.230  52.350  0.00  0.00     0.019 A 
ATOM     32  C   UNL d   1      45.604  35.247  52.001  0.00  0.00     0.002 A 
ATOM     33  C   UNL d   1      45.501  35.659  51.312  0.00  0.00     0.000 A 
ATOM     34  C   UNL d   1      46.123  36.045  50.984  0.00  0.00     0.002 A 
ATOM     35  C   UNL d   1      46.844  36.026  51.333  0.00  0.00     0.019 A 
ENDBRANCH  24  30
ENDBRANCH  20  22
ENDBRANCH   1  19
TORSDOF 6
ENDMDL
MODEL 3
REMARK VINA RESULT:      -7.6      0.605      2.196
REMARK  6 active torsions:
REMARK  status: ('A' for Active; 'I' for Inactive)
REMARK    1  A    between atoms: N_15  and  C_1 
REMARK    2  A    between atoms: C_21  and  N_6 
REMARK    3  A    between atoms: C_16  and  C_8 
REMARK    4  A    between atoms: C_9  and  S_17 
REMARK       I    between atoms: C_20  and  N_15 
REMARK    5  A    between atoms: S_17  and  C_23 
REMARK    6  A    between atoms: C_23  and  C_20 
ROOT
ATOM      1  C   UNL d   1      51.263  33.825  52.519  0.00  0.00     0.099 C 
ENDROOT
BRANCH   1   2
ATOM      2  S   UNL d   1      51.522  33.281  53.169  0.00  0.00    -0.064 SA
BRANCH   2   3
ATOM      3  C   UNL d   1      52.128  32.677  53.244  0.00  0.00     0.096 A 
ATOM      4  N   UNL d   1      52.804  32.835  53.686  0.00  0.00    -0.285 N 
ATOM      5  C   UNL d   1      53.399  32.243  53.759  0.00  0.00     0.150 A 
ATOM      6  C   UNL d   1      53.598  33.720  54.509  0.00  0.00     0.084 A 
ATOM      7  N   UNL d   1      54.087  32.394  54.206  0.00  0.00    -0.227 NA
ATOM      8  C   UNL d   1      53.298  31.514  53.388  0.00  0.00     0.056 A 
ATOM      9  C   UNL d   1      54.192  33.129  54.582  0.00  0.00     0.099 A 
ATOM     10  C   UNL d   1      54.869  33.286  55.024  0.00  0.00     0.021 A 
ATOM     11  C   UNL d   1      54.970  34.016  55.396  0.00  0.00     0.002 A 
ATOM     12  C   UNL d   1      54.385  34.597  55.323  0.00  0.00     0.002 A 
ATOM     13  C   UNL d   1      53.699  34.450  54.880  0.00  0.00     0.019 A 
ATOM     14  C   UNL d   1      52.608  31.360  52.940  0.00  0.00     0.006 A 
ATOM     15  C   UNL d   1      52.028  31.947  52.872  0.00  0.00     0.025 A 
ATOM     16  C   UNL d   1      52.511  30.636  52.573  0.00  0.00     0.000 C 
BRANCH   8  17
ATOM     17  C   UNL d   1      53.878  30.926  53.455  0.00  0.00     0.125 C 
ATOM     18  N   UNL d   1      53.668  30.233  53.859  0.00  0.00    -0.146 N 
ENDBRANCH   8  17
ENDBRANCH   2   3
ENDBRANCH   1   2
BRANCH   1  19
ATOM     19  C   UNL d   1      50.420  34.067  52.468  0.00  0.00     0.286 C 
ATOM     20  N   UNL d   1      50.204  34.920  52.545  0.00  0.00    -0.201 NA
ATOM     21  O   UNL d   1      49.786  33.465  52.340  0.00  0.00    -0.265 OA
BRANCH  20  22
ATOM     22  C   UNL d   1      49.355  35.170  52.494  0.00  0.00     0.160 A 
ATOM     23  C   UNL d   1      48.833  35.518  53.003  0.00  0.00     0.298 A 
ATOM     24  N   UNL d   1      48.076  35.669  52.758  0.00  0.00    -0.209 N 
ATOM     25  O   UNL d   1      49.064  35.711  53.744  0.00  0.00    -0.263 OA
ATOM     26  N   UNL d   1      47.841  35.476  52.016  0.00  0.00    -0.238 N 
ATOM     27  C   UNL d   1      48.367  35.127  51.508  0.00  0.00     0.104 A 
ATOM     28  C   UNL d   1      47.091  35.626  51.773  0.00  0.00     0.120 C 
ATOM     29  C   UNL d   1      48.326  34.841  50.677  0.00  0.00     0.022 C 
BRANCH  24  30
ATOM     30  C   UNL d   1      47.554  36.017  53.268  0.00  0.00     0.085 A 
ATOM     31  C   UNL d   1      47.704  36.007  54.058  0.00  0.00     0.019 A 
ATOM     32  C   UNL d   1      47.182  36.355  54.567  0.00  0.00     0.002 A 
ATOM     33  C   UNL d   1      46.515  36.709  54.275  0.00  0.00     0.000 A 
ATOM     34  C   UNL d   1      46.381  36.709  53.483  0.00  0.00     0.002 A 
ATOM     35  C   UNL d   1      46.901  36.363  52.982  0.00  0.00     0.019 A 
ENDBRANCH  24  30
ENDBRANCH  20  22
ENDBRANCH   1  19
TORSDOF 6
ENDMDL
MODEL 4
REMARK VINA RESULT:      -6.8      1.263      7.010
REMARK  6 active torsions:
REMARK  status: ('A' for Active; 'I' for Inactive)
REMARK    1  A    between atoms: N_15  and  C_1 
REMARK    2  A    between atoms: C_21  and  N_6 
REMARK    3  A    between atoms: C_16  and  C_8 
REMARK    4  A    between atoms: C_9  and  S_17 
REMARK       I    between atoms: C_20  and  N_15 
REMARK    5  A    between atoms: S_17  and  C_23 
REMARK    6  A    between atoms: C_23  and  C_20 
ROOT
ATOM      1  C   UNL d   1      49.509  34.829  52.298  0.00  0.00     0.099 C 
ENDROOT
BRANCH   1   2
ATOM      2  S   UNL d   1      48.773  35.069  52.728  0.00  0.00    -0.064 SA
BRANCH   2   3
ATOM      3  C   UNL d   1      47.981  35.299  52.486  0.00  0.00     0.096 A 
ATOM      4  N   UNL d   1      47.466  35.621  53.041  0.00  0.00    -0.285 N 
ATOM      5  C   UNL d   1      46.690  35.846  52.803  0.00  0.00     0.150 A 
ATOM      6  C   UNL d   1      47.170  36.057  54.387  0.00  0.00     0.084 A 
ATOM      7  N   UNL d   1      46.161  36.174  53.359  0.00  0.00    -0.227 NA
ATOM      8  C   UNL d   1      46.455  35.741  52.020  0.00  0.00     0.056 A 
ATOM      9  C   UNL d   1      46.395  36.281  54.150  0.00  0.00     0.099 A 
ATOM     10  C   UNL d   1      45.878  36.604  54.705  0.00  0.00     0.021 A 
ATOM     11  C   UNL d   1      46.114  36.709  55.489  0.00  0.00     0.002 A 
ATOM     12  C   UNL d   1      46.877  36.488  55.721  0.00  0.00     0.002 A 
ATOM     13  C   UNL d   1      47.406  36.162  55.172  0.00  0.00     0.019 A 
ATOM     14  C   UNL d   1      46.984  35.413  51.461  0.00  0.00     0.006 A 
ATOM     15  C   UNL d   1      47.746  35.194  51.702  0.00  0.00     0.025 A 
ATOM     16  C   UNL d   1      46.747  35.310  50.686  0.00  0.00     0.000 C 
BRANCH   8  17
ATOM     17  C   UNL d   1      45.693  35.960  51.779  0.00  0.00     0.125 C 
ATOM     18  N   UNL d   1      45.490  35.810  50.990  0.00  0.00    -0.146 N 
ENDBRANCH   8  17
ENDBRANCH   2   3
ENDBRANCH   1   2
BRANCH   1  19
ATOM     19  C   UNL d   1      50.237  34.646  52.755  0.00  0.00     0.286 C 
ATOM     20  N   UNL d   1      50.862  34.136  52.396  0.00  0.00    -0.201 NA
ATOM     21  O   UNL d   1      50.349  34.967  53.570  0.00  0.00    -0.265 OA
BRANCH  20  22
ATOM     22  C   UNL d   1      51.599  33.948  52.852  0.00  0.00     0.160 A 
ATOM     23  C   UNL d   1      51.999  33.269  53.031  0.00  0.00     0.298 A 
ATOM     24  N   UNL d   1      52.675  33.310  53.476  0.00  0.00    -0.209 N 
ATOM     25  O   UNL d   1      51.728  32.563  52.771  0.00  0.00    -0.263 OA
ATOM     26  N   UNL d   1      52.949  34.016  53.739  0.00  0.00    -0.238 N 
ATOM     27  C   UNL d   1      52.545  34.695  53.557  0.00  0.00     0.104 A 
ATOM     28  C   UNL d   1      53.619  34.056  54.179  0.00  0.00     0.120 C 
ATOM     29  C   UNL d   1      52.661  35.549  53.734  0.00  0.00     0.022 C 
BRANCH  24  30
ATOM     30  C   UNL d   1      53.076  32.631  53.655  0.00  0.00     0.085 A 
ATOM     31  C   UNL d   1      53.161  32.411  54.424  0.00  0.00     0.019 A 
ATOM     32  C   UNL d   1      53.561  31.732  54.603  0.00  0.00     0.002 A 
ATOM     33  C   UNL d   1      53.871  31.283  54.005  0.00  0.00     0.000 A 
ATOM     34  C   UNL d   1      53.777  31.517  53.244  0.00  0.00     0.002 A 
ATOM     35  C   UNL d   1      53.379  32.191  53.071  0.00  0.00     0.019 A 
ENDBRANCH  24  30
ENDBRANCH  20  22
ENDBRANCH   1  19
TORSDOF 6
ENDMDL
