MODEL 1
REMARK VINA RESULT:      -6.3      0.000      0.000
REMARK  5 active torsions:
REMARK  status: ('A' for Active; 'I' for Inactive)
REMARK    1  A    between atoms: N_4  and  C_2 
REMARK    2  A    between atoms: S_8  and  C_3 
REMARK    3  A    between atoms: C_11  and  S_8 
REMARK    4  A    between atoms: C_9  and  C_11 
REMARK    5  A    between atoms: C_10  and  C_9 
ROOT
ATOM      1  N   UNL d   1     -48.687  13.543  22.993  0.00  0.00    -0.203 NA
ATOM      2  C   UNL d   1     -49.398  13.825  22.687  0.00  0.00     0.152 A 
ATOM      3  C   UNL d   1     -48.357  12.837  22.699  0.00  0.00     0.196 A 
ATOM      4  C   UNL d   1     -49.778  13.401  22.087  0.00  0.00     0.057 A 
ATOM      5  N   UNL d   1     -48.740  12.420  22.101  0.00  0.00    -0.221 NA
ATOM      6  C   UNL d   1     -49.451  12.702  21.796  0.00  0.00     0.087 A 
ATOM      7  C   UNL d   1     -49.838  12.285  21.195  0.00  0.00     0.021 C 
ENDROOT
BRANCH   3   8
ATOM      8  S   UNL d   1     -47.639  12.555  23.009  0.00  0.00    -0.045 SA
BRANCH   8   9
ATOM      9  C   UNL d   1     -46.924  12.819  22.689  0.00  0.00     0.080 C 
BRANCH   9  10
ATOM     10  C   UNL d   1     -46.211  12.524  22.982  0.00  0.00     0.202 C 
ATOM     11  O   UNL d   1     -46.203  12.109  23.695  0.00  0.00    -0.286 OA
BRANCH  10  12
ATOM     12  C   UNL d   1     -45.515  12.647  22.558  0.00  0.00     0.040 A 
ATOM     13  C   UNL d   1     -45.423  13.345  22.123  0.00  0.00     0.004 A 
ATOM     14  C   UNL d   1     -44.728  13.473  21.698  0.00  0.00     0.011 A 
ATOM     15  C   UNL d   1     -44.132  12.903  21.711  0.00  0.00     0.058 A 
ATOM     16  C   UNL d   1     -44.228  12.208  22.146  0.00  0.00     0.011 A 
ATOM     17 CL   UNL d   1     -43.434  13.028  21.285  0.00  0.00    -0.082 Cl
ATOM     18  C   UNL d   1     -44.923  12.085  22.569  0.00  0.00     0.004 A 
ENDBRANCH  10  12
ENDBRANCH   9  10
ENDBRANCH   8   9
ENDBRANCH   3   8
BRANCH   2  19
ATOM     19  N   UNL d   1     -49.728  14.524  22.977  0.00  0.00    -0.285 N 
ATOM     20  C   UNL d   1     -50.479  14.515  23.304  0.00  0.00     0.108 A 
ATOM     21  C   UNL d   1     -50.805  15.215  23.593  0.00  0.00     0.142 A 
ATOM     22  O   UNL d   1     -50.374  15.920  23.549  0.00  0.00    -0.300 OA
ATOM     23  C   UNL d   1     -49.620  15.922  23.218  0.00  0.00     0.142 A 
ATOM     24  C   UNL d   1     -49.296  15.228  22.933  0.00  0.00     0.108 A 
ENDBRANCH   2  19
TORSDOF 5
ENDMDL
MODEL 2
REMARK VINA RESULT:      -6.0      8.273      9.687
REMARK  5 active torsions:
REMARK  status: ('A' for Active; 'I' for Inactive)
REMARK    1  A    between atoms: N_4  and  C_2 
REMARK    2  A    between atoms: S_8  and  C_3 
REMARK    3  A    between atoms: C_11  and  S_8 
REMARK    4  A    between atoms: C_9  and  C_11 
REMARK    5  A    between atoms: C_10  and  C_9 
ROOT
ATOM      1  N   UNL d   1     -39.766  15.156  18.178  0.00  0.00    -0.203 NA
ATOM      2  C   UNL d   1     -39.768  14.957  17.378  0.00  0.00     0.152 A 
ATOM      3  C   UNL d   1     -40.387  15.610  18.497  0.00  0.00     0.196 A 
ATOM      4  C   UNL d   1     -40.392  15.213  16.899  0.00  0.00     0.057 A 
ATOM      5  N   UNL d   1     -41.005  15.862  18.013  0.00  0.00    -0.221 NA
ATOM      6  C   UNL d   1     -41.007  15.663  17.215  0.00  0.00     0.087 A 
ATOM      7  C   UNL d   1     -41.626  15.915  16.728  0.00  0.00     0.021 C 
ENDROOT
BRANCH   3   8
ATOM      8  S   UNL d   1     -40.381  15.809  19.303  0.00  0.00    -0.045 SA
BRANCH   8   9
ATOM      9  C   UNL d   1     -40.175  15.236  19.864  0.00  0.00     0.080 C 
BRANCH   9  10
ATOM     10  C   UNL d   1     -40.335  15.368  20.662  0.00  0.00     0.202 C 
ATOM     11  O   UNL d   1     -40.908  15.922  20.877  0.00  0.00    -0.286 OA
BRANCH  10  12
ATOM     12  C   UNL d   1     -39.922  14.946  21.236  0.00  0.00     0.040 A 
ATOM     13  C   UNL d   1     -39.441  15.354  21.771  0.00  0.00     0.004 A 
ATOM     14  C   UNL d   1     -39.025  14.935  22.348  0.00  0.00     0.011 A 
ATOM     15  C   UNL d   1     -39.094  14.114  22.383  0.00  0.00     0.058 A 
ATOM     16  C   UNL d   1     -39.575  13.711  21.847  0.00  0.00     0.011 A 
ATOM     17 CL   UNL d   1     -38.678  13.691  22.960  0.00  0.00    -0.082 Cl
ATOM     18  C   UNL d   1     -39.988  14.133  21.274  0.00  0.00     0.004 A 
ENDBRANCH  10  12
ENDBRANCH   9  10
ENDBRANCH   8   9
ENDBRANCH   3   8
BRANCH   2  19
ATOM     19  N   UNL d   1     -39.155  14.506  17.059  0.00  0.00    -0.285 N 
ATOM     20  C   UNL d   1     -38.608  14.859  16.560  0.00  0.00     0.108 A 
ATOM     21  C   UNL d   1     -37.996  14.405  16.243  0.00  0.00     0.142 A 
ATOM     22  O   UNL d   1     -37.940  13.601  16.429  0.00  0.00    -0.300 OA
ATOM     23  C   UNL d   1     -38.493  13.254  16.930  0.00  0.00     0.142 A 
ATOM     24  C   UNL d   1     -39.099  13.703  17.244  0.00  0.00     0.108 A 
ENDBRANCH   2  19
TORSDOF 5
ENDMDL
MODEL 3
REMARK VINA RESULT:      -5.9      1.246      1.957
REMARK  5 active torsions:
REMARK  status: ('A' for Active; 'I' for Inactive)
REMARK    1  A    between atoms: N_4  and  C_2 
REMARK    2  A    between atoms: S_8  and  C_3 
REMARK    3  A    between atoms: C_11  and  S_8 
REMARK    4  A    between atoms: C_9  and  C_11 
REMARK    5  A    between atoms: C_10  and  C_9 
ROOT
ATOM      1  N   UNL d   1     -48.265  13.173  23.111  0.00  0.00    -0.203 NA
ATOM      2  C   UNL d   1     -48.985  13.515  22.900  0.00  0.00     0.152 A 
ATOM      3  C   UNL d   1     -47.564  13.621  23.080  0.00  0.00     0.196 A 
ATOM      4  C   UNL d   1     -49.001  14.306  22.658  0.00  0.00     0.057 A 
ATOM      5  N   UNL d   1     -47.588  14.408  22.837  0.00  0.00    -0.221 NA
ATOM      6  C   UNL d   1     -48.307  14.750  22.627  0.00  0.00     0.087 A 
ATOM      7  C   UNL d   1     -48.333  15.540  22.383  0.00  0.00     0.021 C 
ENDROOT
BRANCH   3   8
ATOM      8  S   UNL d   1     -46.841  13.273  23.293  0.00  0.00    -0.045 SA
BRANCH   8   9
ATOM      9  C   UNL d   1     -46.294  13.073  22.706  0.00  0.00     0.080 C 
BRANCH   9  10
ATOM     10  C   UNL d   1     -45.661  12.577  22.887  0.00  0.00     0.202 C 
ATOM     11  O   UNL d   1     -45.726  12.045  23.515  0.00  0.00    -0.286 OA
BRANCH  10  12
ATOM     12  C   UNL d   1     -44.970  12.617  22.440  0.00  0.00     0.040 A 
ATOM     13  C   UNL d   1     -44.370  12.063  22.570  0.00  0.00     0.004 A 
ATOM     14  C   UNL d   1     -43.676  12.100  22.124  0.00  0.00     0.011 A 
ATOM     15  C   UNL d   1     -43.590  12.690  21.554  0.00  0.00     0.058 A 
ATOM     16  C   UNL d   1     -44.191  13.240  21.427  0.00  0.00     0.011 A 
ATOM     17 CL   UNL d   1     -42.896  12.729  21.105  0.00  0.00    -0.082 Cl
ATOM     18  C   UNL d   1     -44.882  13.199  21.875  0.00  0.00     0.004 A 
ENDBRANCH  10  12
ENDBRANCH   9  10
ENDBRANCH   8   9
ENDBRANCH   3   8
BRANCH   2  19
ATOM     19  N   UNL d   1     -49.681  13.074  22.930  0.00  0.00    -0.285 N 
ATOM     20  C   UNL d   1     -50.146  13.091  23.605  0.00  0.00     0.108 A 
ATOM     21  C   UNL d   1     -50.842  12.649  23.631  0.00  0.00     0.142 A 
ATOM     22  O   UNL d   1     -51.064  12.192  22.979  0.00  0.00    -0.300 OA
ATOM     23  C   UNL d   1     -50.593  12.179  22.304  0.00  0.00     0.142 A 
ATOM     24  C   UNL d   1     -49.904  12.617  22.278  0.00  0.00     0.108 A 
ENDBRANCH   2  19
TORSDOF 5
ENDMDL
MODEL 4
REMARK VINA RESULT:      -4.0      3.219      4.749
REMARK  5 active torsions:
REMARK  status: ('A' for Active; 'I' for Inactive)
REMARK    1  A    between atoms: N_4  and  C_2 
REMARK    2  A    between atoms: S_8  and  C_3 
REMARK    3  A    between atoms: C_11  and  S_8 
REMARK    4  A    between atoms: C_9  and  C_11 
REMARK    5  A    between atoms: C_10  and  C_9 
ROOT
ATOM      1  N   UNL d   1     -44.502  13.159  21.711  0.00  0.00    -0.203 NA
ATOM      2  C   UNL d   1     -45.029  12.861  22.269  0.00  0.00     0.152 A 
ATOM      3  C   UNL d   1     -43.768  12.785  21.587  0.00  0.00     0.196 A 
ATOM      4  C   UNL d   1     -44.822  12.188  22.703  0.00  0.00     0.057 A 
ATOM      5  N   UNL d   1     -43.568  12.115  22.023  0.00  0.00    -0.221 NA
ATOM      6  C   UNL d   1     -44.095  11.817  22.581  0.00  0.00     0.087 A 
ATOM      7  C   UNL d   1     -43.896  11.144  23.020  0.00  0.00     0.021 C 
ENDROOT
BRANCH   3   8
ATOM      8  S   UNL d   1     -43.239  13.088  21.023  0.00  0.00    -0.045 SA
BRANCH   8   9
ATOM      9  C   UNL d   1     -42.537  13.447  21.273  0.00  0.00     0.080 C 
BRANCH   9  10
ATOM     10  C   UNL d   1     -41.973  13.675  20.715  0.00  0.00     0.202 C 
ATOM     11  O   UNL d   1     -41.986  13.341  19.961  0.00  0.00    -0.286 OA
BRANCH  10  12
ATOM     12  C   UNL d   1     -41.404  14.235  20.918  0.00  0.00     0.040 A 
ATOM     13  C   UNL d   1     -41.569  15.038  20.812  0.00  0.00     0.004 A 
ATOM     14  C   UNL d   1     -41.002  15.603  21.014  0.00  0.00     0.011 A 
ATOM     15  C   UNL d   1     -40.276  15.358  21.319  0.00  0.00     0.058 A 
ATOM     16  C   UNL d   1     -40.115  14.556  21.424  0.00  0.00     0.011 A 
ATOM     17 CL   UNL d   1     -39.705  15.921  21.523  0.00  0.00    -0.082 Cl
ATOM     18  C   UNL d   1     -40.684  13.996  21.221  0.00  0.00     0.004 A 
ENDBRANCH  10  12
ENDBRANCH   9  10
ENDBRANCH   8   9
ENDBRANCH   3   8
BRANCH   2  19
ATOM     19  N   UNL d   1     -45.757  13.229  22.395  0.00  0.00    -0.285 N 
ATOM     20  C   UNL d   1     -45.793  13.921  22.832  0.00  0.00     0.108 A 
ATOM     21  C   UNL d   1     -46.522  14.287  22.955  0.00  0.00     0.142 A 
ATOM     22  O   UNL d   1     -47.209  13.954  22.638  0.00  0.00    -0.300 OA
ATOM     23  C   UNL d   1     -47.166  13.258  22.199  0.00  0.00     0.142 A 
ATOM     24  C   UNL d   1     -46.444  12.896  22.077  0.00  0.00     0.108 A 
ENDBRANCH   2  19
TORSDOF 5
ENDMDL
MODEL 5
REMARK VINA RESULT:      -3.6      7.335      9.612
REMARK  5 active torsions:
REMARK  status: ('A' for Active; 'I' for Inactive)
REMARK    1  A    between atoms: N_4  and  C_2 
REMARK    2  A    between atoms: S_8  and  C_3 
REMARK    3  A    between atoms: C_11  and  S_8 
REMARK    4  A    between atoms: C_9  and  C_11 
REMARK    5  A    between atoms: C_10  and  C_9 
ROOT
ATOM      1  N   UNL d   1     -39.509  14.470  20.237  0.00  0.00    -0.203 NA
ATOM      2  C   UNL d   1     -39.804  14.968  20.823  0.00  0.00     0.152 A 
ATOM      3  C   UNL d   1     -38.687  14.363  20.156  0.00  0.00     0.196 A 
ATOM      4  C   UNL d   1     -39.277  15.358  21.327  0.00  0.00     0.057 A 
ATOM      5  N   UNL d   1     -38.167  14.755  20.662  0.00  0.00    -0.221 NA
ATOM      6  C   UNL d   1     -38.463  15.252  21.247  0.00  0.00     0.087 A 
ATOM      7  C   UNL d   1     -37.943  15.645  21.756  0.00  0.00     0.021 C 
ENDROOT
BRANCH   3   8
ATOM      8  S   UNL d   1     -38.392  13.861  19.563  0.00  0.00    -0.045 SA
BRANCH   8   9
ATOM      9  C   UNL d   1     -38.224  14.167  18.814  0.00  0.00     0.080 C 
BRANCH   9  10
ATOM     10  C   UNL d   1     -38.158  13.658  18.168  0.00  0.00     0.202 C 
ATOM     11  O   UNL d   1     -38.149  12.842  18.291  0.00  0.00    -0.286 OA
BRANCH  10  12
ATOM     12  C   UNL d   1     -38.104  13.970  17.407  0.00  0.00     0.040 A 
ATOM     13  C   UNL d   1     -38.077  13.455  16.760  0.00  0.00     0.004 A 
ATOM     14  C   UNL d   1     -38.023  13.762  15.996  0.00  0.00     0.011 A 
ATOM     15  C   UNL d   1     -37.995  14.580  15.887  0.00  0.00     0.058 A 
ATOM     16  C   UNL d   1     -38.021  15.089  16.536  0.00  0.00     0.011 A 
ATOM     17 CL   UNL d   1     -37.940  14.891  15.123  0.00  0.00    -0.082 Cl
ATOM     18  C   UNL d   1     -38.076  14.777  17.296  0.00  0.00     0.004 A 
ENDBRANCH  10  12
ENDBRANCH   9  10
ENDBRANCH   8   9
ENDBRANCH   3   8
BRANCH   2  19
ATOM     19  N   UNL d   1     -40.618  15.077  20.906  0.00  0.00    -0.285 N 
ATOM     20  C   UNL d   1     -40.945  15.817  20.779  0.00  0.00     0.108 A 
ATOM     21  C   UNL d   1     -41.759  15.922  20.863  0.00  0.00     0.142 A 
ATOM     22  O   UNL d   1     -42.237  15.281  21.075  0.00  0.00    -0.300 OA
ATOM     23  C   UNL d   1     -41.902  14.540  21.202  0.00  0.00     0.142 A 
ATOM     24  C   UNL d   1     -41.096  14.436  21.118  0.00  0.00     0.108 A 
ENDBRANCH   2  19
TORSDOF 5
ENDMDL
