MODEL 1
REMARK VINA RESULT:      -8.7      0.000      0.000
REMARK  3 active torsions:
REMARK  status: ('A' for Active; 'I' for Inactive)
REMARK    1  A    between atoms: N_5  and  C_1 
REMARK    2  A    between atoms: C_8  and  C_2 
REMARK       I    between atoms: C_7  and  N_5 
REMARK    3  A    between atoms: C_9  and  C_7 
ROOT
ATOM      1  C   UNL d   1      52.951  33.070  53.656  0.00  0.00     0.119 A 
ATOM      2  C   UNL d   1      53.292  33.700  54.082  0.00  0.00     0.084 A 
ATOM      3  S   UNL d   1      52.421  33.391  53.120  0.00  0.00    -0.068 SA
ATOM      4  C   UNL d   1      52.965  34.403  53.803  0.00  0.00     0.013 A 
ATOM      5  C   UNL d   1      52.423  34.211  53.203  0.00  0.00     0.031 A 
ATOM      6  C   UNL d   1      53.141  35.161  54.065  0.00  0.00     0.001 C 
ATOM      7  C   UNL d   1      51.973  34.747  52.775  0.00  0.00     0.007 C 
ENDROOT
BRANCH   1   8
ATOM      8  N   UNL d   1      53.120  32.273  53.759  0.00  0.00    -0.200 NA
ATOM      9  C   UNL d   1      52.908  31.733  53.173  0.00  0.00     0.302 C 
ATOM     10  O   UNL d   1      52.527  31.983  52.485  0.00  0.00    -0.263 OA
BRANCH   9  11
ATOM     11  C   UNL d   1      53.082  30.928  53.284  0.00  0.00     0.158 A 
ATOM     12  O   UNL d   1      53.790  30.627  53.585  0.00  0.00    -0.300 OA
ATOM     13  C   UNL d   1      53.726  29.790  53.601  0.00  0.00     0.123 A 
ATOM     14  C   UNL d   1      52.985  29.593  53.312  0.00  0.00     0.029 A 
ATOM     15  C   UNL d   1      52.576  30.285  53.112  0.00  0.00     0.032 A 
ENDBRANCH   9  11
ENDBRANCH   1   8
BRANCH   2  16
ATOM     16  C   UNL d   1      53.854  33.628  54.678  0.00  0.00     0.299 C 
ATOM     17  O   UNL d   1      53.614  33.472  55.460  0.00  0.00    -0.264 OA
ATOM     18  N   UNL d   1      54.662  33.709  54.509  0.00  0.00    -0.102 N 
ENDBRANCH   2  16
TORSDOF 3
ENDMDL
MODEL 2
REMARK VINA RESULT:      -8.3      1.545      3.576
REMARK  3 active torsions:
REMARK  status: ('A' for Active; 'I' for Inactive)
REMARK    1  A    between atoms: N_5  and  C_1 
REMARK    2  A    between atoms: C_8  and  C_2 
REMARK       I    between atoms: C_7  and  N_5 
REMARK    3  A    between atoms: C_9  and  C_7 
ROOT
ATOM      1  C   UNL d   1      52.727  32.826  53.338  0.00  0.00     0.119 A 
ATOM      2  C   UNL d   1      53.041  32.054  53.318  0.00  0.00     0.084 A 
ATOM      3  S   UNL d   1      53.246  33.295  53.764  0.00  0.00    -0.068 SA
ATOM      4  C   UNL d   1      53.752  32.058  53.735  0.00  0.00     0.013 A 
ATOM      5  C   UNL d   1      53.880  32.831  54.013  0.00  0.00     0.031 A 
ATOM      6  C   UNL d   1      54.250  31.417  53.857  0.00  0.00     0.001 C 
ATOM      7  C   UNL d   1      54.525  33.079  54.455  0.00  0.00     0.007 C 
ENDROOT
BRANCH   1   8
ATOM      8  N   UNL d   1      52.023  33.067  52.989  0.00  0.00    -0.200 NA
ATOM      9  C   UNL d   1      51.806  33.862  53.018  0.00  0.00     0.302 C 
ATOM     10  O   UNL d   1      52.287  34.419  53.392  0.00  0.00    -0.263 OA
BRANCH   9  11
ATOM     11  C   UNL d   1      51.093  34.099  52.664  0.00  0.00     0.158 A 
ATOM     12  O   UNL d   1      50.965  34.186  51.852  0.00  0.00    -0.300 OA
ATOM     13  C   UNL d   1      50.170  34.433  51.743  0.00  0.00     0.123 A 
ATOM     14  C   UNL d   1      49.826  34.492  52.484  0.00  0.00     0.029 A 
ATOM     15  C   UNL d   1      50.383  34.289  53.063  0.00  0.00     0.032 A 
ENDBRANCH   9  11
ENDBRANCH   1   8
BRANCH   2  16
ATOM     16  C   UNL d   1      52.699  31.405  52.947  0.00  0.00     0.299 C 
ATOM     17  O   UNL d   1      52.871  31.246  52.148  0.00  0.00    -0.264 OA
ATOM     18  N   UNL d   1      52.181  30.905  53.359  0.00  0.00    -0.102 N 
ENDBRANCH   2  16
TORSDOF 3
ENDMDL
MODEL 3
REMARK VINA RESULT:      -8.2      1.766      3.121
REMARK  3 active torsions:
REMARK  status: ('A' for Active; 'I' for Inactive)
REMARK    1  A    between atoms: N_5  and  C_1 
REMARK    2  A    between atoms: C_8  and  C_2 
REMARK       I    between atoms: C_7  and  N_5 
REMARK    3  A    between atoms: C_9  and  C_7 
ROOT
ATOM      1  C   UNL d   1      52.964  33.541  53.806  0.00  0.00     0.119 A 
ATOM      2  C   UNL d   1      53.509  33.879  54.338  0.00  0.00     0.084 A 
ATOM      3  S   UNL d   1      53.271  32.824  53.557  0.00  0.00    -0.068 SA
ATOM      4  C   UNL d   1      54.147  33.363  54.410  0.00  0.00     0.013 A 
ATOM      5  C   UNL d   1      53.999  32.706  53.924  0.00  0.00     0.031 A 
ATOM      6  C   UNL d   1      54.814  33.472  54.878  0.00  0.00     0.001 C 
ATOM      7  C   UNL d   1      54.495  32.058  53.831  0.00  0.00     0.007 C 
ENDROOT
BRANCH   1   8
ATOM      8  N   UNL d   1      52.248  33.873  53.575  0.00  0.00    -0.200 NA
ATOM      9  C   UNL d   1      51.851  33.569  52.920  0.00  0.00     0.302 C 
ATOM     10  O   UNL d   1      52.163  32.936  52.492  0.00  0.00    -0.263 OA
BRANCH   9  11
ATOM     11  C   UNL d   1      51.128  33.910  52.693  0.00  0.00     0.158 A 
ATOM     12  O   UNL d   1      50.478  34.031  53.187  0.00  0.00    -0.300 OA
ATOM     13  C   UNL d   1      49.870  34.388  52.730  0.00  0.00     0.123 A 
ATOM     14  C   UNL d   1      50.157  34.480  51.968  0.00  0.00     0.029 A 
ATOM     15  C   UNL d   1      50.932  34.190  51.929  0.00  0.00     0.032 A 
ENDBRANCH   9  11
ENDBRANCH   1   8
BRANCH   2  16
ATOM     16  C   UNL d   1      53.422  34.601  54.722  0.00  0.00     0.299 C 
ATOM     17  O   UNL d   1      53.667  35.303  54.346  0.00  0.00    -0.264 OA
ATOM     18  N   UNL d   1      53.091  34.641  55.481  0.00  0.00    -0.102 N 
ENDBRANCH   2  16
TORSDOF 3
ENDMDL
MODEL 4
REMARK VINA RESULT:      -7.1      1.579      3.810
REMARK  3 active torsions:
REMARK  status: ('A' for Active; 'I' for Inactive)
REMARK    1  A    between atoms: N_5  and  C_1 
REMARK    2  A    between atoms: C_8  and  C_2 
REMARK       I    between atoms: C_7  and  N_5 
REMARK    3  A    between atoms: C_9  and  C_7 
ROOT
ATOM      1  C   UNL d   1      53.476  31.537  53.827  0.00  0.00     0.119 A 
ATOM      2  C   UNL d   1      52.880  31.322  53.286  0.00  0.00     0.084 A 
ATOM      3  S   UNL d   1      53.784  30.849  54.146  0.00  0.00    -0.068 SA
ATOM      4  C   UNL d   1      52.828  30.499  53.279  0.00  0.00     0.013 A 
ATOM      5  C   UNL d   1      53.391  30.204  53.815  0.00  0.00     0.031 A 
ATOM      6  C   UNL d   1      52.315  30.045  52.826  0.00  0.00     0.001 C 
ATOM      7  C   UNL d   1      53.526  29.412  53.979  0.00  0.00     0.007 C 
ENDROOT
BRANCH   1   8
ATOM      8  N   UNL d   1      53.709  32.305  54.005  0.00  0.00    -0.200 NA
ATOM      9  C   UNL d   1      53.954  32.489  54.770  0.00  0.00     0.302 C 
ATOM     10  O   UNL d   1      53.969  31.913  55.360  0.00  0.00    -0.263 OA
BRANCH   9  11
ATOM     11  C   UNL d   1      54.188  33.268  54.942  0.00  0.00     0.158 A 
ATOM     12  O   UNL d   1      53.682  33.915  55.022  0.00  0.00    -0.300 OA
ATOM     13  C   UNL d   1      54.152  34.589  55.195  0.00  0.00     0.123 A 
ATOM     14  C   UNL d   1      54.933  34.345  55.217  0.00  0.00     0.029 A 
ATOM     15  C   UNL d   1      54.972  33.532  55.063  0.00  0.00     0.032 A 
ENDBRANCH   9  11
ENDBRANCH   1   8
BRANCH   2  16
ATOM     16  C   UNL d   1      52.425  31.841  52.839  0.00  0.00     0.299 C 
ATOM     17  O   UNL d   1      52.757  32.215  52.173  0.00  0.00    -0.264 OA
ATOM     18  N   UNL d   1      51.637  31.998  53.044  0.00  0.00    -0.102 N 
ENDBRANCH   2  16
TORSDOF 3
ENDMDL
MODEL 5
REMARK VINA RESULT:      -6.5      1.541      3.109
REMARK  3 active torsions:
REMARK  status: ('A' for Active; 'I' for Inactive)
REMARK    1  A    between atoms: N_5  and  C_1 
REMARK    2  A    between atoms: C_8  and  C_2 
REMARK       I    between atoms: C_7  and  N_5 
REMARK    3  A    between atoms: C_9  and  C_7 
ROOT
ATOM      1  C   UNL d   1      52.288  33.605  53.617  0.00  0.00     0.119 A 
ATOM      2  C   UNL d   1      51.906  33.087  53.088  0.00  0.00     0.084 A 
ATOM      3  S   UNL d   1      51.851  34.296  53.648  0.00  0.00    -0.068 SA
ATOM      4  C   UNL d   1      51.235  33.468  52.799  0.00  0.00     0.013 A 
ATOM      5  C   UNL d   1      51.201  34.222  53.147  0.00  0.00     0.031 A 
ATOM      6  C   UNL d   1      50.694  33.164  52.262  0.00  0.00     0.001 C 
ATOM      7  C   UNL d   1      50.620  34.785  53.012  0.00  0.00     0.007 C 
ENDROOT
BRANCH   1   8
ATOM      8  N   UNL d   1      52.980  33.444  54.031  0.00  0.00    -0.200 NA
ATOM      9  C   UNL d   1      53.370  34.055  54.424  0.00  0.00     0.302 C 
ATOM     10  O   UNL d   1      53.075  34.826  54.407  0.00  0.00    -0.263 OA
BRANCH   9  11
ATOM     11  C   UNL d   1      54.069  33.886  54.841  0.00  0.00     0.158 A 
ATOM     12  O   UNL d   1      54.116  33.467  55.551  0.00  0.00    -0.300 OA
ATOM     13  C   UNL d   1      54.924  33.426  55.772  0.00  0.00     0.123 A 
ATOM     14  C   UNL d   1      55.357  33.818  55.198  0.00  0.00     0.029 A 
ATOM     15  C   UNL d   1      54.844  34.107  54.616  0.00  0.00     0.032 A 
ENDBRANCH   9  11
ENDBRANCH   1   8
BRANCH   2  16
ATOM     16  C   UNL d   1      52.157  32.329  52.892  0.00  0.00     0.299 C 
ATOM     17  O   UNL d   1      52.699  32.220  52.269  0.00  0.00    -0.264 OA
ATOM     18  N   UNL d   1      51.877  31.668  53.307  0.00  0.00    -0.102 N 
ENDBRANCH   2  16
TORSDOF 3
ENDMDL
