MODEL 1
REMARK VINA RESULT:      53.6      0.000      0.000
REMARK  4 active torsions:
REMARK  status: ('A' for Active; 'I' for Inactive)
REMARK    1  A    between atoms: C_5  and  C_1 
REMARK       I    between atoms: N_7  and  C_5 
REMARK    2  A    between atoms: C_9  and  N_7 
REMARK    3  A    between atoms: C_8  and  C_9 
REMARK    4  A    between atoms: O_13  and  C_11 
ROOT
ATOM      1  C   UNL d   1     -49.621  27.910  33.711  0.00  0.00     0.299 C 
ATOM      2  N   UNL d   1     -49.042  28.151  34.255  0.00  0.00    -0.205 NA
ATOM      3  O   UNL d   1     -50.068  28.472  33.308  0.00  0.00    -0.263 OA
ENDROOT
BRANCH   1   4
ATOM      4  C   UNL d   1     -49.749  27.101  33.575  0.00  0.00     0.162 A 
ATOM      5  N   UNL d   1     -49.163  26.534  33.468  0.00  0.00    -0.143 NA
ATOM      6  N   UNL d   1     -49.531  25.794  33.348  0.00  0.00    -0.148 NA
ATOM      7  C   UNL d   1     -50.358  25.923  33.384  0.00  0.00     0.105 A 
ATOM      8  C   UNL d   1     -50.489  26.730  33.524  0.00  0.00     0.044 A 
ATOM      9  C   UNL d   1     -50.989  25.408  33.306  0.00  0.00     0.021 A 
ATOM     10  C   UNL d   1     -51.263  27.010  33.585  0.00  0.00     0.003 A 
ATOM     11  C   UNL d   1     -51.892  26.497  33.507  0.00  0.00     0.000 A 
ATOM     12  C   UNL d   1     -51.758  25.699  33.369  0.00  0.00     0.002 A 
ENDBRANCH   1   4
BRANCH   2  13
ATOM     13  C   UNL d   1     -48.916  28.957  34.389  0.00  0.00     0.104 C 
BRANCH  13  14
ATOM     14  C   UNL d   1     -48.343  29.214  34.920  0.00  0.00     0.042 A 
ATOM     15  C   UNL d   1     -48.143  30.019  34.963  0.00  0.00     0.096 A 
ATOM     16  C   UNL d   1     -47.573  30.263  35.492  0.00  0.00     0.024 A 
ATOM     17  C   UNL d   1     -47.196  29.718  35.984  0.00  0.00     0.002 A 
ATOM     18  C   UNL d   1     -47.385  28.924  35.952  0.00  0.00     0.000 A 
ATOM     19  C   UNL d   1     -47.964  28.663  35.416  0.00  0.00     0.004 A 
BRANCH  15  20
ATOM     20  O   UNL d   1     -48.515  30.574  34.473  0.00  0.00    -0.328 OA
ATOM     21  C   UNL d   1     -48.192  31.317  34.349  0.00  0.00     0.181 C 
ENDBRANCH  15  20
ENDBRANCH  13  14
ENDBRANCH   2  13
TORSDOF 4
ENDMDL
MODEL 2
REMARK VINA RESULT:      55.8      1.279      4.743
REMARK  4 active torsions:
REMARK  status: ('A' for Active; 'I' for Inactive)
REMARK    1  A    between atoms: C_5  and  C_1 
REMARK       I    between atoms: N_7  and  C_5 
REMARK    2  A    between atoms: C_9  and  N_7 
REMARK    3  A    between atoms: C_8  and  C_9 
REMARK    4  A    between atoms: O_13  and  C_11 
ROOT
ATOM      1  C   UNL d   1     -48.964  27.356  34.510  0.00  0.00     0.299 C 
ATOM      2  N   UNL d   1     -49.755  27.192  34.317  0.00  0.00    -0.205 NA
ATOM      3  O   UNL d   1     -48.354  27.002  34.087  0.00  0.00    -0.263 OA
ENDROOT
BRANCH   1   4
ATOM      4  C   UNL d   1     -48.790  27.879  35.131  0.00  0.00     0.162 A 
ATOM      5  N   UNL d   1     -49.077  27.822  35.901  0.00  0.00    -0.143 NA
ATOM      6  N   UNL d   1     -48.766  28.458  36.345  0.00  0.00    -0.148 NA
ATOM      7  C   UNL d   1     -48.282  28.904  35.828  0.00  0.00     0.105 A 
ATOM      8  C   UNL d   1     -48.299  28.544  35.080  0.00  0.00     0.044 A 
ATOM      9  C   UNL d   1     -47.839  29.581  35.952  0.00  0.00     0.021 A 
ATOM     10  C   UNL d   1     -47.864  28.876  34.462  0.00  0.00     0.003 A 
ATOM     11  C   UNL d   1     -47.423  29.550  34.586  0.00  0.00     0.000 A 
ATOM     12  C   UNL d   1     -47.409  29.903  35.327  0.00  0.00     0.002 A 
ENDBRANCH   1   4
BRANCH   2  13
ATOM     13  C   UNL d   1     -49.926  26.671  33.698  0.00  0.00     0.104 C 
BRANCH  13  14
ATOM     14  C   UNL d   1     -50.693  26.403  33.569  0.00  0.00     0.042 A 
ATOM     15  C   UNL d   1     -50.839  25.595  33.445  0.00  0.00     0.096 A 
ATOM     16  C   UNL d   1     -51.602  25.341  33.318  0.00  0.00     0.024 A 
ATOM     17  C   UNL d   1     -52.228  25.878  33.311  0.00  0.00     0.002 A 
ATOM     18  C   UNL d   1     -52.097  26.676  33.431  0.00  0.00     0.000 A 
ATOM     19  C   UNL d   1     -51.322  26.948  33.562  0.00  0.00     0.004 A 
BRANCH  15  20
ATOM     20  O   UNL d   1     -50.218  25.048  33.451  0.00  0.00    -0.328 OA
ATOM     21  C   UNL d   1     -50.349  24.251  33.306  0.00  0.00     0.181 C 
ENDBRANCH  15  20
ENDBRANCH  13  14
ENDBRANCH   2  13
TORSDOF 4
ENDMDL
