MODEL 1
REMARK VINA RESULT:      -0.6      0.000      0.000
REMARK  6 active torsions:
REMARK  status: ('A' for Active; 'I' for Inactive)
REMARK    1  A    between atoms: C_7  and  C_1 
REMARK    2  A    between atoms: C_9  and  N_10 
REMARK       I    between atoms: N_10  and  C_11 
REMARK    3  A    between atoms: C_11  and  C_19 
REMARK    4  A    between atoms: S_15  and  C_12 
REMARK    5  A    between atoms: O_24  and  C_13 
REMARK    6  A    between atoms: C_19  and  S_15 
ROOT
ATOM      1  S   UNL d   1     -41.123-123.083 -51.982  0.00  0.00    -0.061 SA
ENDROOT
BRANCH   1   2
ATOM      2  C   UNL d   1     -41.278-123.108 -51.156  0.00  0.00     0.133 A 
ATOM      3  C   UNL d   1     -41.580-122.440 -50.779  0.00  0.00     0.029 A 
ATOM      4  C   UNL d   1     -41.733-122.461 -49.971  0.00  0.00     0.024 A 
ATOM      5  C   UNL d   1     -41.586-123.148 -49.539  0.00  0.00     0.111 A 
ATOM      6  N   UNL d   1     -41.285-123.815 -49.916  0.00  0.00    -0.147 NA
ATOM      7  N   UNL d   1     -41.131-123.795 -50.725  0.00  0.00    -0.141 NA
BRANCH   5   8
ATOM      8  C   UNL d   1     -41.740-123.168 -48.731  0.00  0.00     0.068 A 
ATOM      9  C   UNL d   1     -42.456-123.332 -48.341  0.00  0.00     0.089 A 
ATOM     10  N   UNL d   1     -42.324-123.282 -47.526  0.00  0.00    -0.238 NA
ATOM     11  C   UNL d   1     -43.177-123.514 -48.703  0.00  0.00     0.021 C 
ATOM     12  C   UNL d   1     -41.531-123.089 -47.415  0.00  0.00     0.111 A 
ATOM     13  S   UNL d   1     -41.168-123.017 -48.153  0.00  0.00    -0.065 SA
ATOM     14  C   UNL d   1     -41.148-122.980 -46.676  0.00  0.00     0.028 C 
ENDBRANCH   5   8
ENDBRANCH   1   2
BRANCH   1  15
ATOM     15  C   UNL d   1     -41.586-123.528 -52.500  0.00  0.00     0.099 C 
BRANCH  15  16
ATOM     16  C   UNL d   1     -41.656-123.291 -53.286  0.00  0.00     0.286 C 
ATOM     17  N   UNL d   1     -42.186-122.683 -53.493  0.00  0.00    -0.206 NA
ATOM     18  O   UNL d   1     -41.199-123.659 -53.874  0.00  0.00    -0.265 OA
BRANCH  17  19
ATOM     19  C   UNL d   1     -42.256-122.446 -54.278  0.00  0.00     0.107 A 
ATOM     20  C   UNL d   1     -42.140-121.650 -54.485  0.00  0.00     0.112 A 
ATOM     21  C   UNL d   1     -42.211-121.412 -55.271  0.00  0.00     0.026 A 
ATOM     22  C   UNL d   1     -42.398-121.967 -55.857  0.00  0.00     0.002 A 
ATOM     23  C   UNL d   1     -42.514-122.763 -55.650  0.00  0.00     0.002 A 
ATOM     24  C   UNL d   1     -42.444-123.001 -54.865  0.00  0.00     0.021 A 
ATOM     25  C   UNL d   1     -42.700-123.318 -56.231  0.00  0.00     0.000 C 
BRANCH  20  26
ATOM     26  O   UNL d   1     -41.954-121.097 -53.901  0.00  0.00    -0.327 OA
ATOM     27  C   UNL d   1     -41.917-120.296 -54.089  0.00  0.00     0.181 C 
ENDBRANCH  20  26
ENDBRANCH  17  19
ENDBRANCH  15  16
ENDBRANCH   1  15
TORSDOF 6
ENDMDL
MODEL 2
REMARK VINA RESULT:      -0.5      1.749      6.033
REMARK  6 active torsions:
REMARK  status: ('A' for Active; 'I' for Inactive)
REMARK    1  A    between atoms: C_7  and  C_1 
REMARK    2  A    between atoms: C_9  and  N_10 
REMARK       I    between atoms: N_10  and  C_11 
REMARK    3  A    between atoms: C_11  and  C_19 
REMARK    4  A    between atoms: S_15  and  C_12 
REMARK    5  A    between atoms: O_24  and  C_13 
REMARK    6  A    between atoms: C_19  and  S_15 
ROOT
ATOM      1  S   UNL d   1     -41.545-121.776 -51.116  0.00  0.00    -0.061 SA
ENDROOT
BRANCH   1   2
ATOM      2  C   UNL d   1     -41.643-121.920 -51.939  0.00  0.00     0.133 A 
ATOM      3  C   UNL d   1     -41.123-122.427 -52.327  0.00  0.00     0.029 A 
ATOM      4  C   UNL d   1     -41.216-122.570 -53.132  0.00  0.00     0.024 A 
ATOM      5  C   UNL d   1     -41.828-122.207 -53.549  0.00  0.00     0.111 A 
ATOM      6  N   UNL d   1     -42.348-121.701 -53.161  0.00  0.00    -0.147 NA
ATOM      7  N   UNL d   1     -42.256-121.557 -52.355  0.00  0.00    -0.141 NA
BRANCH   5   8
ATOM      8  C   UNL d   1     -41.920-122.351 -54.355  0.00  0.00     0.068 A 
ATOM      9  C   UNL d   1     -41.662-123.003 -54.800  0.00  0.00     0.089 A 
ATOM     10  N   UNL d   1     -41.890-122.888 -55.586  0.00  0.00    -0.238 NA
ATOM     11  C   UNL d   1     -41.247-123.658 -54.509  0.00  0.00     0.021 C 
ATOM     12  C   UNL d   1     -42.288-122.166 -55.624  0.00  0.00     0.111 A 
ATOM     13  S   UNL d   1     -42.309-121.834 -54.869  0.00  0.00    -0.065 SA
ATOM     14  C   UNL d   1     -42.620-121.822 -56.315  0.00  0.00     0.028 C 
ENDBRANCH   5   8
ENDBRANCH   1   2
BRANCH   1  15
ATOM     15  C   UNL d   1     -41.158-122.332 -50.647  0.00  0.00     0.099 C 
BRANCH  15  16
ATOM     16  C   UNL d   1     -41.392-122.436 -49.864  0.00  0.00     0.286 C 
ATOM     17  N   UNL d   1     -41.780-123.136 -49.633  0.00  0.00    -0.206 NA
ATOM     18  O   UNL d   1     -41.243-121.842 -49.302  0.00  0.00    -0.265 OA
BRANCH  17  19
ATOM     19  C   UNL d   1     -42.014-123.239 -48.851  0.00  0.00     0.107 A 
ATOM     20  C   UNL d   1     -42.817-123.352 -48.668  0.00  0.00     0.112 A 
ATOM     21  C   UNL d   1     -43.052-123.456 -47.885  0.00  0.00     0.026 A 
ATOM     22  C   UNL d   1     -42.488-123.448 -47.277  0.00  0.00     0.002 A 
ATOM     23  C   UNL d   1     -41.686-123.335 -47.461  0.00  0.00     0.002 A 
ATOM     24  C   UNL d   1     -41.451-123.232 -48.243  0.00  0.00     0.021 A 
ATOM     25  C   UNL d   1     -41.122-123.327 -46.859  0.00  0.00     0.000 C 
BRANCH  20  26
ATOM     26  O   UNL d   1     -43.378-123.360 -49.273  0.00  0.00    -0.327 OA
ATOM     27  C   UNL d   1     -44.060-123.815 -49.196  0.00  0.00     0.181 C 
ENDBRANCH  20  26
ENDBRANCH  17  19
ENDBRANCH  15  16
ENDBRANCH   1  15
TORSDOF 6
ENDMDL
MODEL 3
REMARK VINA RESULT:       0.0      1.029      1.555
REMARK  6 active torsions:
REMARK  status: ('A' for Active; 'I' for Inactive)
REMARK    1  A    between atoms: C_7  and  C_1 
REMARK    2  A    between atoms: C_9  and  N_10 
REMARK       I    between atoms: N_10  and  C_11 
REMARK    3  A    between atoms: C_11  and  C_19 
REMARK    4  A    between atoms: S_15  and  C_12 
REMARK    5  A    between atoms: O_24  and  C_13 
REMARK    6  A    between atoms: C_19  and  S_15 
ROOT
ATOM      1  S   UNL d   1     -41.294-121.793 -52.090  0.00  0.00    -0.061 SA
ENDROOT
BRANCH   1   2
ATOM      2  C   UNL d   1     -41.444-122.145 -51.341  0.00  0.00     0.133 A 
ATOM      3  C   UNL d   1     -41.453-122.966 -51.273  0.00  0.00     0.029 A 
ATOM      4  C   UNL d   1     -41.600-123.314 -50.541  0.00  0.00     0.024 A 
ATOM      5  C   UNL d   1     -41.738-122.842 -49.879  0.00  0.00     0.111 A 
ATOM      6  N   UNL d   1     -41.728-122.023 -49.947  0.00  0.00    -0.147 NA
ATOM      7  N   UNL d   1     -41.581-121.673 -50.679  0.00  0.00    -0.141 NA
BRANCH   5   8
ATOM      8  C   UNL d   1     -41.885-123.192 -49.148  0.00  0.00     0.068 A 
ATOM      9  C   UNL d   1     -42.583-123.546 -48.871  0.00  0.00     0.089 A 
ATOM     10  N   UNL d   1     -42.450-123.815 -48.101  0.00  0.00    -0.238 NA
ATOM     11  C   UNL d   1     -43.292-123.619 -49.292  0.00  0.00     0.021 C 
ATOM     12  C   UNL d   1     -41.672-123.626 -47.904  0.00  0.00     0.111 A 
ATOM     13  S   UNL d   1     -41.321-123.243 -48.545  0.00  0.00    -0.065 SA
ATOM     14  C   UNL d   1     -41.294-123.793 -47.173  0.00  0.00     0.028 C 
ENDBRANCH   5   8
ENDBRANCH   1   2
BRANCH   1  15
ATOM     15  C   UNL d   1     -41.165-122.273 -52.749  0.00  0.00     0.099 C 
BRANCH  15  16
ATOM     16  C   UNL d   1     -41.414-122.016 -53.491  0.00  0.00     0.286 C 
ATOM     17  N   UNL d   1     -41.681-122.567 -54.056  0.00  0.00    -0.206 NA
ATOM     18  O   UNL d   1     -41.399-121.207 -53.679  0.00  0.00    -0.265 OA
BRANCH  17  19
ATOM     19  C   UNL d   1     -41.930-122.311 -54.797  0.00  0.00     0.107 A 
ATOM     20  C   UNL d   1     -42.601-122.649 -55.151  0.00  0.00     0.112 A 
ATOM     21  C   UNL d   1     -42.851-122.393 -55.893  0.00  0.00     0.026 A 
ATOM     22  C   UNL d   1     -42.432-121.798 -56.290  0.00  0.00     0.002 A 
ATOM     23  C   UNL d   1     -41.760-121.461 -55.936  0.00  0.00     0.002 A 
ATOM     24  C   UNL d   1     -41.511-121.716 -55.194  0.00  0.00     0.021 A 
ATOM     25  C   UNL d   1     -41.341-120.868 -56.328  0.00  0.00     0.000 C 
BRANCH  20  26
ATOM     26  O   UNL d   1     -43.018-123.241 -54.756  0.00  0.00    -0.327 OA
ATOM     27  C   UNL d   1     -43.423-123.816 -55.185  0.00  0.00     0.181 C 
ENDBRANCH  20  26
ENDBRANCH  17  19
ENDBRANCH  15  16
ENDBRANCH   1  15
TORSDOF 6
ENDMDL
