MODEL 1
REMARK VINA RESULT:      73.3      0.000      0.000
REMARK  4 active torsions:
REMARK  status: ('A' for Active; 'I' for Inactive)
REMARK    1  A    between atoms: C_6  and  S_1 
REMARK    2  A    between atoms: N_9  and  S_1 
REMARK    3  A    between atoms: C_17  and  N_9 
REMARK       I    between atoms: C_13  and  N_15 
REMARK    4  A    between atoms: N_15  and  C_18 
ROOT
ATOM      1  C   UNL d   1      13.828  14.604  -4.036  0.00  0.00     0.054 A 
ATOM      2  C   UNL d   1      13.438  14.109  -4.548  0.00  0.00     0.196 A 
ATOM      3  C   UNL d   1      14.081  14.373  -3.319  0.00  0.00     0.043 A 
ATOM      4  C   UNL d   1      13.956  13.618  -3.063  0.00  0.00     0.196 A 
ATOM      5  C   UNL d   1      13.987  15.414  -4.252  0.00  0.00     0.108 A 
ATOM      6  C   UNL d   1      13.295  13.330  -4.316  0.00  0.00     0.042 A 
ATOM      7  C   UNL d   1      13.554  13.094  -3.580  0.00  0.00     0.042 A 
ATOM      8  O   UNL d   1      13.195  14.423  -5.301  0.00  0.00    -0.286 OA
ATOM      9  O   UNL d   1      14.228  13.378  -2.297  0.00  0.00    -0.287 OA
ATOM     10  C   UNL d   1      14.484  14.896  -2.797  0.00  0.00     0.003 A 
ATOM     11  C   UNL d   1      14.374  15.899  -3.741  0.00  0.00     0.013 A 
ATOM     12  C   UNL d   1      12.901  12.798  -4.810  0.00  0.00     0.003 A 
ATOM     13  C   UNL d   1      13.414  12.274  -3.315  0.00  0.00     0.003 A 
ATOM     14  C   UNL d   1      14.627  15.675  -3.028  0.00  0.00     0.001 A 
ATOM     15  C   UNL d   1      12.769  12.044  -4.574  0.00  0.00     0.000 A 
ATOM     16  C   UNL d   1      13.024  11.779  -3.827  0.00  0.00     0.000 A 
ENDROOT
BRANCH   5  17
ATOM     17  S   UNL d   1      13.736  15.715  -5.017  0.00  0.00     0.285 S 
ATOM     18  O   UNL d   1      14.499  15.656  -5.288  0.00  0.00    -0.198 OA
ATOM     19  O   UNL d   1      12.938  15.771  -4.716  0.00  0.00    -0.198 OA
BRANCH  17  20
ATOM     20  N   UNL d   1      13.498  15.999  -5.735  0.00  0.00    -0.158 NA
BRANCH  20  21
ATOM     21  C   UNL d   1      13.545  16.825  -5.899  0.00  0.00     0.094 A 
ATOM     22  C   UNL d   1      12.870  17.261  -6.050  0.00  0.00     0.021 A 
ATOM     23  C   UNL d   1      12.922  18.079  -6.211  0.00  0.00     0.021 A 
ATOM     24  C   UNL d   1      13.679  18.466  -6.220  0.00  0.00     0.085 A 
ATOM     25  C   UNL d   1      14.364  18.005  -6.063  0.00  0.00     0.021 A 
ATOM     26  C   UNL d   1      14.306  17.215  -5.908  0.00  0.00     0.021 A 
BRANCH  24  27
ATOM     27  N   UNL d   1      13.709  19.271  -6.381  0.00  0.00    -0.208 NA
ATOM     28  C   UNL d   1      14.121  19.810  -5.902  0.00  0.00     0.279 C 
ATOM     29  O   UNL d   1      14.525  19.489  -5.215  0.00  0.00    -0.265 OA
ATOM     30  C   UNL d   1      14.170  20.626  -6.037  0.00  0.00     0.068 C 
ENDBRANCH  24  27
ENDBRANCH  20  21
ENDBRANCH  17  20
ENDBRANCH   5  17
TORSDOF 4
ENDMDL
MODEL 2
REMARK VINA RESULT:      75.1      1.340      2.182
REMARK  4 active torsions:
REMARK  status: ('A' for Active; 'I' for Inactive)
REMARK    1  A    between atoms: C_6  and  S_1 
REMARK    2  A    between atoms: N_9  and  S_1 
REMARK    3  A    between atoms: C_17  and  N_9 
REMARK       I    between atoms: C_13  and  N_15 
REMARK    4  A    between atoms: N_15  and  C_18 
ROOT
ATOM      1  C   UNL d   1      13.817  13.783  -3.315  0.00  0.00     0.054 A 
ATOM      2  C   UNL d   1      14.277  13.821  -2.648  0.00  0.00     0.196 A 
ATOM      3  C   UNL d   1      13.408  13.133  -3.522  0.00  0.00     0.043 A 
ATOM      4  C   UNL d   1      13.434  12.469  -3.065  0.00  0.00     0.196 A 
ATOM      5  C   UNL d   1      13.751  14.454  -3.836  0.00  0.00     0.108 A 
ATOM      6  C   UNL d   1      14.325  13.157  -2.158  0.00  0.00     0.042 A 
ATOM      7  C   UNL d   1      13.905  12.492  -2.372  0.00  0.00     0.042 A 
ATOM      8  O   UNL d   1      14.688  14.549  -2.486  0.00  0.00    -0.286 OA
ATOM      9  O   UNL d   1      12.995  11.779  -3.292  0.00  0.00    -0.287 OA
ATOM     10  C   UNL d   1      12.934  13.106  -4.217  0.00  0.00     0.003 A 
ATOM     11  C   UNL d   1      13.294  14.411  -4.496  0.00  0.00     0.013 A 
ATOM     12  C   UNL d   1      14.783  13.160  -1.472  0.00  0.00     0.003 A 
ATOM     13  C   UNL d   1      13.942  11.779  -1.869  0.00  0.00     0.003 A 
ATOM     14  C   UNL d   1      12.886  13.769  -4.706  0.00  0.00     0.001 A 
ATOM     15  C   UNL d   1      14.821  12.510  -1.005  0.00  0.00     0.000 A 
ATOM     16  C   UNL d   1      14.402  11.818  -1.202  0.00  0.00     0.000 A 
ENDROOT
BRANCH   5  17
ATOM     17  S   UNL d   1      14.173  15.183  -3.659  0.00  0.00     0.285 S 
ATOM     18  O   UNL d   1      13.543  15.435  -3.212  0.00  0.00    -0.198 OA
ATOM     19  O   UNL d   1      14.826  14.902  -4.133  0.00  0.00    -0.198 OA
BRANCH  17  20
ATOM     20  N   UNL d   1      14.570  15.866  -3.493  0.00  0.00    -0.158 NA
BRANCH  20  21
ATOM     21  C   UNL d   1      14.619  16.477  -4.074  0.00  0.00     0.094 A 
ATOM     22  C   UNL d   1      14.027  16.574  -4.630  0.00  0.00     0.021 A 
ATOM     23  C   UNL d   1      14.081  17.180  -5.202  0.00  0.00     0.021 A 
ATOM     24  C   UNL d   1      14.752  17.702  -5.212  0.00  0.00     0.085 A 
ATOM     25  C   UNL d   1      15.352  17.590  -4.634  0.00  0.00     0.021 A 
ATOM     26  C   UNL d   1      15.294  17.002  -4.084  0.00  0.00     0.021 A 
BRANCH  24  27
ATOM     27  N   UNL d   1      14.786  18.292  -5.783  0.00  0.00    -0.208 NA
ATOM     28  C   UNL d   1      14.404  19.024  -5.695  0.00  0.00     0.279 C 
ATOM     29  O   UNL d   1      13.961  19.147  -4.969  0.00  0.00    -0.265 OA
ATOM     30  C   UNL d   1      14.419  19.638  -6.252  0.00  0.00     0.068 C 
ENDBRANCH  24  27
ENDBRANCH  20  21
ENDBRANCH  17  20
ENDBRANCH   5  17
TORSDOF 4
ENDMDL
MODEL 3
REMARK VINA RESULT:      76.0      2.540      4.461
REMARK  4 active torsions:
REMARK  status: ('A' for Active; 'I' for Inactive)
REMARK    1  A    between atoms: C_6  and  S_1 
REMARK    2  A    between atoms: N_9  and  S_1 
REMARK    3  A    between atoms: C_17  and  N_9 
REMARK       I    between atoms: C_13  and  N_15 
REMARK    4  A    between atoms: N_15  and  C_18 
ROOT
ATOM      1  C   UNL d   1      14.735  13.233  -1.349  0.00  0.00     0.054 A 
ATOM      2  C   UNL d   1      14.366  13.905  -1.614  0.00  0.00     0.196 A 
ATOM      3  C   UNL d   1      15.346  13.247  -0.840  0.00  0.00     0.043 A 
ATOM      4  C   UNL d   1      15.630  13.948  -0.559  0.00  0.00     0.196 A 
ATOM      5  C   UNL d   1      14.478  12.464  -1.612  0.00  0.00     0.108 A 
ATOM      6  C   UNL d   1      14.633  14.639  -1.345  0.00  0.00     0.042 A 
ATOM      7  C   UNL d   1      15.259  14.651  -0.823  0.00  0.00     0.042 A 
ATOM      8  O   UNL d   1      13.717  13.817  -2.159  0.00  0.00    -0.286 OA
ATOM      9  O   UNL d   1      16.282  13.955  -0.017  0.00  0.00    -0.287 OA
ATOM     10  C   UNL d   1      15.721  12.543  -0.573  0.00  0.00     0.003 A 
ATOM     11  C   UNL d   1      14.848  11.802  -1.347  0.00  0.00     0.013 A 
ATOM     12  C   UNL d   1      14.281  15.343  -1.592  0.00  0.00     0.003 A 
ATOM     13  C   UNL d   1      15.558  15.416  -0.526  0.00  0.00     0.003 A 
ATOM     14  C   UNL d   1      15.454  11.809  -0.842  0.00  0.00     0.001 A 
ATOM     15  C   UNL d   1      14.549  16.049  -1.324  0.00  0.00     0.000 A 
ATOM     16  C   UNL d   1      15.187  16.088  -0.791  0.00  0.00     0.000 A 
ENDROOT
BRANCH   5  17
ATOM     17  S   UNL d   1      13.821  12.392  -2.163  0.00  0.00     0.285 S 
ATOM     18  O   UNL d   1      13.375  12.044  -1.580  0.00  0.00    -0.198 OA
ATOM     19  O   UNL d   1      14.305  12.759  -2.764  0.00  0.00    -0.198 OA
BRANCH  17  20
ATOM     20  N   UNL d   1      13.205  12.325  -2.681  0.00  0.00    -0.158 NA
BRANCH  20  21
ATOM     21  C   UNL d   1      13.232  12.727  -3.422  0.00  0.00     0.094 A 
ATOM     22  C   UNL d   1      12.769  13.387  -3.557  0.00  0.00     0.021 A 
ATOM     23  C   UNL d   1      12.799  13.782  -4.292  0.00  0.00     0.021 A 
ATOM     24  C   UNL d   1      13.312  13.500  -4.909  0.00  0.00     0.085 A 
ATOM     25  C   UNL d   1      13.782  12.821  -4.756  0.00  0.00     0.021 A 
ATOM     26  C   UNL d   1      13.748  12.444  -4.042  0.00  0.00     0.021 A 
BRANCH  24  27
ATOM     27  N   UNL d   1      13.327  13.902  -5.625  0.00  0.00    -0.208 NA
ATOM     28  C   UNL d   1      13.469  14.719  -5.679  0.00  0.00     0.279 C 
ATOM     29  O   UNL d   1      13.603  15.139  -4.942  0.00  0.00    -0.265 OA
ATOM     30  C   UNL d   1      13.491  15.153  -6.385  0.00  0.00     0.068 C 
ENDBRANCH  24  27
ENDBRANCH  20  21
ENDBRANCH  17  20
ENDBRANCH   5  17
TORSDOF 4
ENDMDL
