MODEL 1
REMARK VINA RESULT:      -5.5      0.000      0.000
REMARK  4 active torsions:
REMARK  status: ('A' for Active; 'I' for Inactive)
REMARK    1  A    between atoms: N_11  and  C_4 
REMARK    2  A    between atoms: C_13  and  C_17 
REMARK    3  A    between atoms: C_17  and  N_16 
REMARK    4  A    between atoms: O_29  and  C_18 
ROOT
ATOM      1  N   UNL d   1     -48.327  13.382  22.895  0.00  0.00    -0.195 N 
ATOM      2  C   UNL d   1     -49.124  13.505  22.975  0.00  0.00     0.168 A 
ATOM      3  C   UNL d   1     -49.613  12.900  23.156  0.00  0.00     0.073 A 
ATOM      4  C   UNL d   1     -47.854  13.997  22.715  0.00  0.00     0.153 A 
ATOM      5  N   UNL d   1     -48.505  12.047  23.175  0.00  0.00    -0.143 NA
ATOM      6  C   UNL d   1     -49.302  12.170  23.255  0.00  0.00     0.185 A 
ATOM      7  N   UNL d   1     -49.426  14.240  22.873  0.00  0.00    -0.227 NA
ATOM      8  C   UNL d   1     -50.402  13.022  23.235  0.00  0.00     0.007 A 
ATOM      9  N   UNL d   1     -49.785  11.548  23.438  0.00  0.00    -0.225 NA
ATOM     10  C   UNL d   1     -48.148  14.728  22.613  0.00  0.00     0.057 A 
ATOM     11  C   UNL d   1     -50.891  12.416  23.416  0.00  0.00     0.019 A 
ATOM     12  C   UNL d   1     -48.945  14.851  22.693  0.00  0.00     0.086 A 
ATOM     13  C   UNL d   1     -50.582  11.671  23.519  0.00  0.00     0.083 A 
ATOM     14  C   UNL d   1     -50.704  13.761  23.132  0.00  0.00     0.000 C 
ATOM     15  C   UNL d   1     -49.256  15.617  22.586  0.00  0.00     0.021 C 
ATOM     16  C   UNL d   1     -51.063  11.065  23.698  0.00  0.00     0.021 C 
ENDROOT
BRANCH   4  17
ATOM     17  N   UNL d   1     -47.033  13.862  22.634  0.00  0.00    -0.286 N 
ATOM     18  C   UNL d   1     -46.367  14.032  23.083  0.00  0.00     0.101 A 
ATOM     19  C   UNL d   1     -45.612  13.801  22.811  0.00  0.00     0.100 A 
ATOM     20  N   UNL d   1     -45.522  13.401  22.090  0.00  0.00    -0.300 N 
ATOM     21  C   UNL d   1     -46.212  13.229  21.631  0.00  0.00     0.100 A 
ATOM     22  C   UNL d   1     -46.963  13.463  21.910  0.00  0.00     0.101 A 
BRANCH  20  23
ATOM     23  C   UNL d   1     -44.772  13.171  21.818  0.00  0.00     0.082 C 
BRANCH  23  24
ATOM     24  C   UNL d   1     -44.392  12.515  22.143  0.00  0.00     0.042 A 
ATOM     25  C   UNL d   1     -43.579  12.390  22.001  0.00  0.00     0.096 A 
ATOM     26  C   UNL d   1     -43.211  11.727  22.332  0.00  0.00     0.027 A 
ATOM     27  C   UNL d   1     -43.634  11.191  22.800  0.00  0.00     0.032 A 
ATOM     28  C   UNL d   1     -44.449  11.315  22.943  0.00  0.00     0.140 A 
ATOM     29  C   UNL d   1     -44.824  11.982  22.611  0.00  0.00     0.033 A 
ATOM     30  F   UNL d   1     -44.884  10.783  23.411  0.00  0.00    -0.204 F 
BRANCH  25  31
ATOM     31  O   UNL d   1     -43.155  12.916  21.540  0.00  0.00    -0.328 OA
ATOM     32  C   UNL d   1     -42.339  12.802  21.411  0.00  0.00     0.181 C 
ENDBRANCH  25  31
ENDBRANCH  23  24
ENDBRANCH  20  23
ENDBRANCH   4  17
TORSDOF 4
ENDMDL
MODEL 2
REMARK VINA RESULT:      -3.9      1.896      5.898
REMARK  4 active torsions:
REMARK  status: ('A' for Active; 'I' for Inactive)
REMARK    1  A    between atoms: N_11  and  C_4 
REMARK    2  A    between atoms: C_13  and  C_17 
REMARK    3  A    between atoms: C_17  and  N_16 
REMARK    4  A    between atoms: O_29  and  C_18 
ROOT
ATOM      1  N   UNL d   1     -45.215  12.323  22.416  0.00  0.00    -0.195 N 
ATOM      2  C   UNL d   1     -44.471  12.006  22.456  0.00  0.00     0.168 A 
ATOM      3  C   UNL d   1     -43.859  12.355  22.080  0.00  0.00     0.073 A 
ATOM      4  C   UNL d   1     -45.814  11.961  22.798  0.00  0.00     0.153 A 
ATOM      5  N   UNL d   1     -44.740  13.341  21.623  0.00  0.00    -0.143 NA
ATOM      6  C   UNL d   1     -43.995  13.024  21.663  0.00  0.00     0.185 A 
ATOM      7  N   UNL d   1     -44.345  11.335  22.876  0.00  0.00    -0.227 NA
ATOM      8  C   UNL d   1     -43.122  12.042  22.119  0.00  0.00     0.007 A 
ATOM      9  N   UNL d   1     -43.385  13.389  21.277  0.00  0.00    -0.225 NA
ATOM     10  C   UNL d   1     -45.695  11.296  23.216  0.00  0.00     0.057 A 
ATOM     11  C   UNL d   1     -42.510  12.392  21.742  0.00  0.00     0.019 A 
ATOM     12  C   UNL d   1     -44.951  10.979  23.255  0.00  0.00     0.086 A 
ATOM     13  C   UNL d   1     -42.641  13.072  21.317  0.00  0.00     0.083 A 
ATOM     14  C   UNL d   1     -42.997  11.368  22.541  0.00  0.00     0.000 C 
ATOM     15  C   UNL d   1     -44.823  10.281  23.693  0.00  0.00     0.021 C 
ATOM     16  C   UNL d   1     -42.037  13.425  20.940  0.00  0.00     0.021 C 
ENDROOT
BRANCH   4  17
ATOM     17  N   UNL d   1     -46.580  12.294  22.752  0.00  0.00    -0.286 N 
ATOM     18  C   UNL d   1     -47.212  12.233  22.232  0.00  0.00     0.101 A 
ATOM     19  C   UNL d   1     -47.911  12.666  22.375  0.00  0.00     0.100 A 
ATOM     20  N   UNL d   1     -47.980  13.160  23.038  0.00  0.00    -0.300 N 
ATOM     21  C   UNL d   1     -47.325  13.219  23.571  0.00  0.00     0.100 A 
ATOM     22  C   UNL d   1     -46.629  12.782  23.420  0.00  0.00     0.101 A 
BRANCH  20  23
ATOM     23  C   UNL d   1     -48.675  13.591  23.182  0.00  0.00     0.082 C 
BRANCH  23  24
ATOM     24  C   UNL d   1     -49.407  13.210  23.198  0.00  0.00     0.042 A 
ATOM     25  C   UNL d   1     -50.098  13.626  22.984  0.00  0.00     0.096 A 
ATOM     26  C   UNL d   1     -50.826  13.233  23.005  0.00  0.00     0.027 A 
ATOM     27  C   UNL d   1     -50.878  12.439  23.234  0.00  0.00     0.032 A 
ATOM     28  C   UNL d   1     -50.185  12.021  23.449  0.00  0.00     0.140 A 
ATOM     29  C   UNL d   1     -49.450  12.414  23.429  0.00  0.00     0.033 A 
ATOM     30  F   UNL d   1     -50.225  11.224  23.680  0.00  0.00    -0.204 F 
BRANCH  25  31
ATOM     31  O   UNL d   1     -50.054  14.411  22.757  0.00  0.00    -0.328 OA
ATOM     32  C   UNL d   1     -50.748  14.840  22.587  0.00  0.00     0.181 C 
ENDBRANCH  25  31
ENDBRANCH  23  24
ENDBRANCH  20  23
ENDBRANCH   4  17
TORSDOF 4
ENDMDL
MODEL 3
REMARK VINA RESULT:      -3.7      1.284      2.424
REMARK  4 active torsions:
REMARK  status: ('A' for Active; 'I' for Inactive)
REMARK    1  A    between atoms: N_11  and  C_4 
REMARK    2  A    between atoms: C_13  and  C_17 
REMARK    3  A    between atoms: C_17  and  N_16 
REMARK    4  A    between atoms: O_29  and  C_18 
ROOT
ATOM      1  N   UNL d   1     -48.653  13.018  23.311  0.00  0.00    -0.195 N 
ATOM      2  C   UNL d   1     -49.461  13.083  23.309  0.00  0.00     0.168 A 
ATOM      3  C   UNL d   1     -49.812  13.789  23.182  0.00  0.00     0.073 A 
ATOM      4  C   UNL d   1     -48.320  12.306  23.440  0.00  0.00     0.153 A 
ATOM      5  N   UNL d   1     -48.544  14.365  23.058  0.00  0.00    -0.143 NA
ATOM      6  C   UNL d   1     -49.352  14.430  23.056  0.00  0.00     0.185 A 
ATOM      7  N   UNL d   1     -49.914  12.434  23.437  0.00  0.00    -0.227 NA
ATOM      8  C   UNL d   1     -50.611  13.853  23.180  0.00  0.00     0.007 A 
ATOM      9  N   UNL d   1     -49.693  15.152  22.925  0.00  0.00    -0.225 NA
ATOM     10  C   UNL d   1     -48.763  11.659  23.567  0.00  0.00     0.057 A 
ATOM     11  C   UNL d   1     -50.962  14.560  23.053  0.00  0.00     0.019 A 
ATOM     12  C   UNL d   1     -49.571  11.724  23.565  0.00  0.00     0.086 A 
ATOM     13  C   UNL d   1     -50.501  15.217  22.924  0.00  0.00     0.083 A 
ATOM     14  C   UNL d   1     -51.064  13.200  23.308  0.00  0.00     0.000 C 
ATOM     15  C   UNL d   1     -50.039  11.047  23.698  0.00  0.00     0.021 C 
ATOM     16  C   UNL d   1     -50.844  15.922  22.796  0.00  0.00     0.021 C 
ENDROOT
BRANCH   4  17
ATOM     17  N   UNL d   1     -47.486  12.246  23.440  0.00  0.00    -0.286 N 
ATOM     18  C   UNL d   1     -46.863  12.773  23.537  0.00  0.00     0.101 A 
ATOM     19  C   UNL d   1     -46.077  12.498  23.500  0.00  0.00     0.100 A 
ATOM     20  N   UNL d   1     -45.910  11.697  23.367  0.00  0.00    -0.300 N 
ATOM     21  C   UNL d   1     -46.555  11.157  23.268  0.00  0.00     0.100 A 
ATOM     22  C   UNL d   1     -47.340  11.441  23.306  0.00  0.00     0.101 A 
BRANCH  20  23
ATOM     23  C   UNL d   1     -45.127  11.422  23.330  0.00  0.00     0.082 C 
BRANCH  23  24
ATOM     24  C   UNL d   1     -44.592  11.755  22.798  0.00  0.00     0.042 A 
ATOM     25  C   UNL d   1     -43.829  11.425  22.711  0.00  0.00     0.096 A 
ATOM     26  C   UNL d   1     -43.302  11.769  22.174  0.00  0.00     0.027 A 
ATOM     27  C   UNL d   1     -43.518  12.430  21.725  0.00  0.00     0.032 A 
ATOM     28  C   UNL d   1     -44.281  12.762  21.812  0.00  0.00     0.140 A 
ATOM     29  C   UNL d   1     -44.816  12.418  22.352  0.00  0.00     0.033 A 
ATOM     30  F   UNL d   1     -44.508  13.425  21.366  0.00  0.00    -0.204 F 
BRANCH  25  31
ATOM     31  O   UNL d   1     -43.610  10.772  23.152  0.00  0.00    -0.328 OA
ATOM     32  C   UNL d   1     -42.808  10.550  23.206  0.00  0.00     0.181 C 
ENDBRANCH  25  31
ENDBRANCH  23  24
ENDBRANCH  20  23
ENDBRANCH   4  17
TORSDOF 4
ENDMDL
