MODEL 1
REMARK VINA RESULT:      34.6      0.000      0.000
REMARK  2 active torsions:
REMARK  status: ('A' for Active; 'I' for Inactive)
REMARK    1  A    between atoms: N_2  and  S_1 
REMARK    2  A    between atoms: C_3  and  S_1 
ROOT
ATOM      1  C   UNL d   1      13.772  12.735  -2.973  0.00  0.00     0.104 A 
ATOM      2  O   UNL d   1      12.929  13.431  -5.188  0.00  0.00    -0.273 OA
ATOM      3  C   UNL d   1      13.053  14.211  -5.458  0.00  0.00     0.300 A 
ATOM      4  C   UNL d   1      13.617  13.738  -3.971  0.00  0.00     0.024 A 
ATOM      5  C   UNL d   1      13.210  13.198  -4.450  0.00  0.00     0.103 A 
ATOM      6  C   UNL d   1      13.746  14.520  -4.234  0.00  0.00     0.007 A 
ATOM      7  C   UNL d   1      13.898  13.505  -3.233  0.00  0.00     0.015 A 
ATOM      8  C   UNL d   1      13.461  14.750  -4.980  0.00  0.00     0.069 A 
ATOM      9  C   UNL d   1      13.364  12.195  -3.451  0.00  0.00     0.015 A 
ATOM     10  O   UNL d   1      12.769  14.438  -6.200  0.00  0.00    -0.259 OA
ATOM     11  C   UNL d   1      13.084  12.428  -4.189  0.00  0.00     0.025 A 
ENDROOT
BRANCH   1  12
ATOM     12  S   UNL d   1      14.050  12.499  -2.237  0.00  0.00     0.272 S 
ATOM     13  O   UNL d   1      14.453  13.213  -2.152  0.00  0.00    -0.200 OA
ATOM     14  O   UNL d   1      13.650  11.781  -2.314  0.00  0.00    -0.200 OA
BRANCH  12  15
ATOM     15  N   UNL d   1      14.330  12.259  -1.496  0.00  0.00    -0.225 N 
ATOM     16  C   UNL d   1      15.145  12.237  -1.349  0.00  0.00     0.118 A 
ATOM     17  C   UNL d   1      15.425  12.000  -0.613  0.00  0.00     0.142 A 
ATOM     18  O   UNL d   1      14.900  11.781  -0.014  0.00  0.00    -0.300 OA
ATOM     19  C   UNL d   1      14.081  11.803  -0.162  0.00  0.00     0.142 A 
ATOM     20  C   UNL d   1      13.796  12.041  -0.899  0.00  0.00     0.118 A 
ENDBRANCH  12  15
ENDBRANCH   1  12
TORSDOF 2
ENDMDL
