MODEL 1
REMARK VINA RESULT:      -3.7      0.000      0.000
REMARK  3 active torsions:
REMARK  status: ('A' for Active; 'I' for Inactive)
REMARK    1  A    between atoms: C_9  and  C_4 
REMARK    2  A    between atoms: C_10  and  C_7 
REMARK    3  A    between atoms: C_17  and  C_10 
ROOT
ATOM      1  C   UNL d   1      33.145  20.060 -22.822  0.00  0.00     0.179 A 
ATOM      2  N   UNL d   1      32.971  19.559 -22.182  0.00  0.00    -0.282 N 
ATOM      3  N   UNL d   1      33.157  20.838 -22.543  0.00  0.00    -0.221 NA
ATOM      4  C   UNL d   1      32.989  20.820 -21.728  0.00  0.00     0.101 A 
ATOM      5  S   UNL d   1      33.241  19.592 -23.494  0.00  0.00    -0.048 SA
ATOM      6  C   UNL d   1      32.877  20.035 -21.515  0.00  0.00     0.101 A 
ATOM      7  C   UNL d   1      33.125  18.804 -23.266  0.00  0.00     0.050 A 
ATOM      8  C   UNL d   1      32.962  18.790 -22.470  0.00  0.00     0.089 A 
ENDROOT
BRANCH   4   9
ATOM      9  C   UNL d   1      32.947  21.472 -21.240  0.00  0.00     0.019 A 
ATOM     10  C   UNL d   1      32.607  22.170 -21.521  0.00  0.00     0.004 A 
ATOM     11  C   UNL d   1      32.558  22.837 -21.037  0.00  0.00     0.030 A 
ATOM     12  C   UNL d   1      32.854  22.798 -20.265  0.00  0.00     0.140 A 
ATOM     13  C   UNL d   1      33.193  22.107 -19.982  0.00  0.00     0.030 A 
ATOM     14  F   UNL d   1      32.885  23.363 -19.658  0.00  0.00    -0.204 F 
ATOM     15  C   UNL d   1      33.241  21.443 -20.465  0.00  0.00     0.004 A 
ENDBRANCH   4   9
BRANCH   7  16
ATOM     16  C   UNL d   1      33.172  18.155 -23.773  0.00  0.00     0.008 C 
BRANCH  16  17
ATOM     17  C   UNL d   1      32.492  17.759 -24.016  0.00  0.00     0.001 A 
ATOM     18  C   UNL d   1      32.233  17.087 -23.620  0.00  0.00     0.000 A 
ATOM     19  C   UNL d   1      31.547  16.690 -23.866  0.00  0.00     0.000 A 
ATOM     20  C   UNL d   1      31.122  16.974 -24.515  0.00  0.00     0.000 A 
ATOM     21  C   UNL d   1      31.377  17.647 -24.915  0.00  0.00     0.000 A 
ATOM     22  C   UNL d   1      32.062  18.044 -24.669  0.00  0.00     0.000 A 
ENDBRANCH  16  17
ENDBRANCH   7  16
TORSDOF 3
ENDMDL
MODEL 2
REMARK VINA RESULT:      -3.0      2.091      5.142
REMARK  3 active torsions:
REMARK  status: ('A' for Active; 'I' for Inactive)
REMARK    1  A    between atoms: C_9  and  C_4 
REMARK    2  A    between atoms: C_10  and  C_7 
REMARK    3  A    between atoms: C_17  and  C_10 
ROOT
ATOM      1  C   UNL d   1      32.782  19.770 -22.167  0.00  0.00     0.179 A 
ATOM      2  N   UNL d   1      33.041  20.191 -22.835  0.00  0.00    -0.282 N 
ATOM      3  N   UNL d   1      32.577  19.006 -22.407  0.00  0.00    -0.221 NA
ATOM      4  C   UNL d   1      32.709  18.953 -23.227  0.00  0.00     0.101 A 
ATOM      5  S   UNL d   1      32.826  20.272 -21.515  0.00  0.00    -0.048 SA
ATOM      6  C   UNL d   1      32.992  19.681 -23.481  0.00  0.00     0.101 A 
ATOM      7  C   UNL d   1      33.113  21.001 -21.783  0.00  0.00     0.050 A 
ATOM      8  C   UNL d   1      33.241  20.947 -22.584  0.00  0.00     0.089 A 
ENDROOT
BRANCH   4   9
ATOM      9  C   UNL d   1      32.577  18.290 -23.685  0.00  0.00     0.019 A 
ATOM     10  C   UNL d   1      33.219  17.851 -23.959  0.00  0.00     0.004 A 
ATOM     11  C   UNL d   1      33.099  17.178 -24.423  0.00  0.00     0.030 A 
ATOM     12  C   UNL d   1      32.326  16.950 -24.611  0.00  0.00     0.140 A 
ATOM     13  C   UNL d   1      31.685  17.384 -24.342  0.00  0.00     0.030 A 
ATOM     14  F   UNL d   1      32.032  16.315 -25.058  0.00  0.00    -0.204 F 
ATOM     15  C   UNL d   1      31.806  18.054 -23.879  0.00  0.00     0.004 A 
ENDBRANCH   4   9
BRANCH   7  16
ATOM     16  C   UNL d   1      33.241  21.663 -21.306  0.00  0.00     0.008 C 
BRANCH  16  17
ATOM     17  C   UNL d   1      32.777  22.337 -21.387  0.00  0.00     0.001 A 
ATOM     18  C   UNL d   1      32.107  22.444 -20.924  0.00  0.00     0.000 A 
ATOM     19  C   UNL d   1      31.640  23.126 -21.006  0.00  0.00     0.000 A 
ATOM     20  C   UNL d   1      31.852  23.701 -21.560  0.00  0.00     0.000 A 
ATOM     21  C   UNL d   1      32.523  23.599 -22.027  0.00  0.00     0.000 A 
ATOM     22  C   UNL d   1      32.990  22.918 -21.944  0.00  0.00     0.000 A 
ENDBRANCH  16  17
ENDBRANCH   7  16
TORSDOF 3
ENDMDL
MODEL 3
REMARK VINA RESULT:      -1.4      2.379      5.838
REMARK  3 active torsions:
REMARK  status: ('A' for Active; 'I' for Inactive)
REMARK    1  A    between atoms: C_9  and  C_4 
REMARK    2  A    between atoms: C_10  and  C_7 
REMARK    3  A    between atoms: C_17  and  C_10 
ROOT
ATOM      1  C   UNL d   1      32.733  21.887 -20.238  0.00  0.00     0.179 A 
ATOM      2  N   UNL d   1      32.890  22.447 -20.832  0.00  0.00    -0.282 N 
ATOM      3  N   UNL d   1      32.754  21.136 -20.581  0.00  0.00    -0.221 NA
ATOM      4  C   UNL d   1      32.925  21.229 -21.390  0.00  0.00     0.101 A 
ATOM      5  S   UNL d   1      32.615  22.292 -19.530  0.00  0.00    -0.048 SA
ATOM      6  C   UNL d   1      33.006  22.034 -21.536  0.00  0.00     0.101 A 
ATOM      7  C   UNL d   1      32.699  23.100 -19.689  0.00  0.00     0.050 A 
ATOM      8  C   UNL d   1      32.866  23.189 -20.480  0.00  0.00     0.089 A 
ENDROOT
BRANCH   4   9
ATOM      9  C   UNL d   1      32.996  20.623 -21.932  0.00  0.00     0.019 A 
ATOM     10  C   UNL d   1      33.153  20.800 -22.722  0.00  0.00     0.004 A 
ATOM     11  C   UNL d   1      33.228  20.195 -23.280  0.00  0.00     0.030 A 
ATOM     12  C   UNL d   1      33.142  19.409 -23.037  0.00  0.00     0.140 A 
ATOM     13  C   UNL d   1      32.986  19.229 -22.253  0.00  0.00     0.030 A 
ATOM     14  F   UNL d   1      33.185  18.695 -23.458  0.00  0.00    -0.204 F 
ATOM     15  C   UNL d   1      32.912  19.831 -21.697  0.00  0.00     0.004 A 
ENDBRANCH   4   9
BRANCH   7  16
ATOM     16  C   UNL d   1      32.624  23.702 -19.129  0.00  0.00     0.008 C 
BRANCH  16  17
ATOM     17  C   UNL d   1      32.587  23.529 -18.325  0.00  0.00     0.001 A 
ATOM     18  C   UNL d   1      33.240  23.224 -17.930  0.00  0.00     0.000 A 
ATOM     19  C   UNL d   1      33.200  23.050 -17.119  0.00  0.00     0.000 A 
ATOM     20  C   UNL d   1      32.497  23.185 -16.707  0.00  0.00     0.000 A 
ATOM     21  C   UNL d   1      31.839  23.490 -17.099  0.00  0.00     0.000 A 
ATOM     22  C   UNL d   1      31.879  23.664 -17.909  0.00  0.00     0.000 A 
ENDBRANCH  16  17
ENDBRANCH   7  16
TORSDOF 3
ENDMDL
