MODEL 1
REMARK VINA RESULT:      -7.9      0.000      0.000
REMARK  5 active torsions:
REMARK  status: ('A' for Active; 'I' for Inactive)
REMARK    1  A    between atoms: N_2  and  C_1 
REMARK    2  A    between atoms: C_5  and  C_1 
REMARK    3  A    between atoms: O_4  and  N_2 
REMARK    4  A    between atoms: C_3  and  O_4 
REMARK    5  A    between atoms: C_6  and  C_3 
ROOT
ATOM      1  O   UNL d   1      52.237  31.835  53.234  0.00  0.00    -0.168 OA
ENDROOT
BRANCH   1   2
ATOM      2  C   UNL d   1      52.719  31.151  52.872  0.00  0.00     0.319 C 
ATOM      3  O   UNL d   1      52.988  31.186  52.016  0.00  0.00    -0.257 OA
BRANCH   2   4
ATOM      4  C   UNL d   1      52.910  30.490  53.335  0.00  0.00     0.065 A 
ATOM      5  C   UNL d   1      53.613  30.502  53.781  0.00  0.00     0.005 A 
ATOM      6  C   UNL d   1      53.796  29.835  54.242  0.00  0.00     0.000 A 
ATOM      7  C   UNL d   1      53.301  29.178  54.260  0.00  0.00     0.000 A 
ATOM      8  C   UNL d   1      52.612  29.197  53.807  0.00  0.00     0.000 A 
ATOM      9  C   UNL d   1      53.498  28.524  54.723  0.00  0.00     0.000 C 
ATOM     10  C   UNL d   1      52.416  29.835  53.353  0.00  0.00     0.005 A 
ENDBRANCH   2   4
ENDBRANCH   1   2
BRANCH   1  11
ATOM     11  N   UNL d   1      52.337  32.603  52.980  0.00  0.00    -0.100 NA
BRANCH  11  12
ATOM     12  C   UNL d   1      51.937  33.227  53.331  0.00  0.00     0.228 C 
ATOM     13  N   UNL d   1      51.120  33.179  53.422  0.00  0.00    -0.123 N 
BRANCH  12  14
ATOM     14  C   UNL d   1      52.330  33.894  53.593  0.00  0.00     0.121 A 
ATOM     15  N   UNL d   1      52.606  33.935  54.359  0.00  0.00    -0.241 NA
ATOM     16  C   UNL d   1      53.006  34.619  54.621  0.00  0.00     0.099 A 
ATOM     17  C   UNL d   1      53.120  35.251  54.100  0.00  0.00     0.021 A 
ATOM     18  C   UNL d   1      52.838  35.208  53.320  0.00  0.00     0.003 A 
ATOM     19  C   UNL d   1      52.443  34.526  53.072  0.00  0.00     0.022 A 
ENDBRANCH  12  14
ENDBRANCH  11  12
ENDBRANCH   1  11
TORSDOF 5
ENDMDL
MODEL 2
REMARK VINA RESULT:      -7.4      1.566      4.438
REMARK  5 active torsions:
REMARK  status: ('A' for Active; 'I' for Inactive)
REMARK    1  A    between atoms: N_2  and  C_1 
REMARK    2  A    between atoms: C_5  and  C_1 
REMARK    3  A    between atoms: O_4  and  N_2 
REMARK    4  A    between atoms: C_3  and  O_4 
REMARK    5  A    between atoms: C_6  and  C_3 
ROOT
ATOM      1  O   UNL d   1      53.033  33.052  53.378  0.00  0.00    -0.168 OA
ENDROOT
BRANCH   1   2
ATOM      2  C   UNL d   1      52.468  33.707  53.669  0.00  0.00     0.319 C 
ATOM      3  O   UNL d   1      52.632  34.142  54.437  0.00  0.00    -0.257 OA
BRANCH   2   4
ATOM      4  C   UNL d   1      51.799  33.903  53.222  0.00  0.00     0.065 A 
ATOM      5  C   UNL d   1      51.045  33.753  53.540  0.00  0.00     0.005 A 
ATOM      6  C   UNL d   1      50.379  33.953  53.084  0.00  0.00     0.000 A 
ATOM      7  C   UNL d   1      50.458  34.291  52.337  0.00  0.00     0.000 A 
ATOM      8  C   UNL d   1      51.218  34.428  52.050  0.00  0.00     0.000 A 
ATOM      9  C   UNL d   1      49.786  34.484  51.898  0.00  0.00     0.000 C 
ATOM     10  C   UNL d   1      51.877  34.240  52.478  0.00  0.00     0.005 A 
ENDBRANCH   2   4
ENDBRANCH   1   2
BRANCH   1  11
ATOM     11  N   UNL d   1      53.219  32.414  53.850  0.00  0.00    -0.100 NA
BRANCH  11  12
ATOM     12  C   UNL d   1      53.709  31.812  53.585  0.00  0.00     0.228 C 
ATOM     13  N   UNL d   1      54.453  32.002  53.289  0.00  0.00    -0.123 N 
BRANCH  12  14
ATOM     14  C   UNL d   1      53.476  31.029  53.608  0.00  0.00     0.121 A 
ATOM     15  N   UNL d   1      53.560  30.594  54.292  0.00  0.00    -0.241 NA
ATOM     16  C   UNL d   1      53.321  29.795  54.309  0.00  0.00     0.099 A 
ATOM     17  C   UNL d   1      52.999  29.450  53.630  0.00  0.00     0.021 A 
ATOM     18  C   UNL d   1      52.914  29.894  52.934  0.00  0.00     0.003 A 
ATOM     19  C   UNL d   1      53.154  30.684  52.929  0.00  0.00     0.022 A 
ENDBRANCH  12  14
ENDBRANCH  11  12
ENDBRANCH   1  11
TORSDOF 5
ENDMDL
MODEL 3
REMARK VINA RESULT:      -7.2      1.442      4.521
REMARK  5 active torsions:
REMARK  status: ('A' for Active; 'I' for Inactive)
REMARK    1  A    between atoms: N_2  and  C_1 
REMARK    2  A    between atoms: C_5  and  C_1 
REMARK    3  A    between atoms: O_4  and  N_2 
REMARK    4  A    between atoms: C_3  and  O_4 
REMARK    5  A    between atoms: C_6  and  C_3 
ROOT
ATOM      1  O   UNL d   1      53.414  32.030  53.458  0.00  0.00    -0.168 OA
ENDROOT
BRANCH   1   2
ATOM      2  C   UNL d   1      53.971  32.745  53.560  0.00  0.00     0.319 C 
ATOM      3  O   UNL d   1      54.848  32.669  53.382  0.00  0.00    -0.257 OA
BRANCH   2   4
ATOM      4  C   UNL d   1      53.667  33.471  53.819  0.00  0.00     0.065 A 
ATOM      5  C   UNL d   1      53.826  33.719  54.597  0.00  0.00     0.005 A 
ATOM      6  C   UNL d   1      53.517  34.449  54.847  0.00  0.00     0.000 A 
ATOM      7  C   UNL d   1      53.066  34.919  54.344  0.00  0.00     0.000 A 
ATOM      8  C   UNL d   1      52.926  34.646  53.579  0.00  0.00     0.000 A 
ATOM      9  C   UNL d   1      52.767  35.641  54.609  0.00  0.00     0.000 C 
ATOM     10  C   UNL d   1      53.218  33.940  53.317  0.00  0.00     0.005 A 
ENDBRANCH   2   4
ENDBRANCH   1   2
BRANCH   1  11
ATOM     11  N   UNL d   1      53.677  31.269  53.583  0.00  0.00    -0.100 NA
BRANCH  11  12
ATOM     12  C   UNL d   1      53.176  30.624  53.509  0.00  0.00     0.228 C 
ATOM     13  N   UNL d   1      52.583  30.640  52.937  0.00  0.00    -0.123 N 
BRANCH  12  14
ATOM     14  C   UNL d   1      53.250  29.967  53.989  0.00  0.00     0.121 A 
ATOM     15  N   UNL d   1      52.984  29.988  54.760  0.00  0.00    -0.241 NA
ATOM     16  C   UNL d   1      53.062  29.314  55.245  0.00  0.00     0.099 A 
ATOM     17  C   UNL d   1      53.409  28.628  54.940  0.00  0.00     0.021 A 
ATOM     18  C   UNL d   1      53.680  28.609  54.156  0.00  0.00     0.003 A 
ATOM     19  C   UNL d   1      53.597  29.281  53.685  0.00  0.00     0.022 A 
ENDBRANCH  12  14
ENDBRANCH  11  12
ENDBRANCH   1  11
TORSDOF 5
ENDMDL
MODEL 4
REMARK VINA RESULT:      -7.2      2.249      3.760
REMARK  5 active torsions:
REMARK  status: ('A' for Active; 'I' for Inactive)
REMARK    1  A    between atoms: N_2  and  C_1 
REMARK    2  A    between atoms: C_5  and  C_1 
REMARK    3  A    between atoms: O_4  and  N_2 
REMARK    4  A    between atoms: C_3  and  O_4 
REMARK    5  A    between atoms: C_6  and  C_3 
ROOT
ATOM      1  O   UNL d   1      52.656  32.553  53.652  0.00  0.00    -0.168 OA
ENDROOT
BRANCH   1   2
ATOM      2  C   UNL d   1      52.202  32.669  52.869  0.00  0.00     0.319 C 
ATOM      3  O   UNL d   1      52.421  32.192  52.140  0.00  0.00    -0.257 OA
BRANCH   2   4
ATOM      4  C   UNL d   1      51.583  33.218  52.829  0.00  0.00     0.065 A 
ATOM      5  C   UNL d   1      51.657  33.870  52.317  0.00  0.00     0.005 A 
ATOM      6  C   UNL d   1      51.030  34.416  52.284  0.00  0.00     0.000 A 
ATOM      7  C   UNL d   1      50.353  34.319  52.741  0.00  0.00     0.000 A 
ATOM      8  C   UNL d   1      50.310  33.662  53.238  0.00  0.00     0.000 A 
ATOM      9  C   UNL d   1      49.740  34.870  52.696  0.00  0.00     0.000 C 
ATOM     10  C   UNL d   1      50.908  33.122  53.285  0.00  0.00     0.005 A 
ENDBRANCH   2   4
ENDBRANCH   1   2
BRANCH   1  11
ATOM     11  N   UNL d   1      53.464  32.443  53.659  0.00  0.00    -0.100 NA
BRANCH  11  12
ATOM     12  C   UNL d   1      53.875  32.333  54.360  0.00  0.00     0.228 C 
ATOM     13  N   UNL d   1      53.743  31.649  54.800  0.00  0.00    -0.123 N 
BRANCH  12  14
ATOM     14  C   UNL d   1      54.413  32.885  54.632  0.00  0.00     0.121 A 
ATOM     15  N   UNL d   1      55.015  33.147  54.148  0.00  0.00    -0.241 NA
ATOM     16  C   UNL d   1      55.561  33.711  54.431  0.00  0.00     0.099 A 
ATOM     17  C   UNL d   1      55.487  34.000  55.202  0.00  0.00     0.021 A 
ATOM     18  C   UNL d   1      54.874  33.732  55.694  0.00  0.00     0.003 A 
ATOM     19  C   UNL d   1      54.339  33.175  55.403  0.00  0.00     0.022 A 
ENDBRANCH  12  14
ENDBRANCH  11  12
ENDBRANCH   1  11
TORSDOF 5
ENDMDL
MODEL 5
REMARK VINA RESULT:      -7.1      2.618      4.529
REMARK  5 active torsions:
REMARK  status: ('A' for Active; 'I' for Inactive)
REMARK    1  A    between atoms: N_2  and  C_1 
REMARK    2  A    between atoms: C_5  and  C_1 
REMARK    3  A    between atoms: O_4  and  N_2 
REMARK    4  A    between atoms: C_3  and  O_4 
REMARK    5  A    between atoms: C_6  and  C_3 
ROOT
ATOM      1  O   UNL d   1      51.575  34.235  53.138  0.00  0.00    -0.168 OA
ENDROOT
BRANCH   1   2
ATOM      2  C   UNL d   1      50.785  33.801  53.003  0.00  0.00     0.319 C 
ATOM      3  O   UNL d   1      50.671  32.960  53.296  0.00  0.00    -0.257 OA
BRANCH   2   4
ATOM      4  C   UNL d   1      50.166  34.183  52.607  0.00  0.00     0.065 A 
ATOM      5  C   UNL d   1      50.083  34.071  51.787  0.00  0.00     0.005 A 
ATOM      6  C   UNL d   1      49.459  34.460  51.398  0.00  0.00     0.000 A 
ATOM      7  C   UNL d   1      48.933  34.943  51.808  0.00  0.00     0.000 A 
ATOM      8  C   UNL d   1      49.042  35.033  52.621  0.00  0.00     0.000 A 
ATOM      9  C   UNL d   1      48.319  35.320  51.407  0.00  0.00     0.000 C 
ATOM     10  C   UNL d   1      49.642  34.665  53.016  0.00  0.00     0.005 A 
ENDBRANCH   2   4
ENDBRANCH   1   2
BRANCH   1  11
ATOM     11  N   UNL d   1      52.207  33.863  53.495  0.00  0.00    -0.100 NA
BRANCH  11  12
ATOM     12  C   UNL d   1      52.901  34.263  53.664  0.00  0.00     0.228 C 
ATOM     13  N   UNL d   1      52.961  35.062  53.472  0.00  0.00    -0.123 N 
BRANCH  12  14
ATOM     14  C   UNL d   1      53.536  33.890  54.018  0.00  0.00     0.121 A 
ATOM     15  N   UNL d   1      53.972  33.338  53.604  0.00  0.00    -0.241 NA
ATOM     16  C   UNL d   1      54.619  32.960  53.971  0.00  0.00     0.099 A 
ATOM     17  C   UNL d   1      54.814  33.148  54.752  0.00  0.00     0.021 A 
ATOM     18  C   UNL d   1      54.369  33.710  55.171  0.00  0.00     0.003 A 
ATOM     19  C   UNL d   1      53.731  34.078  54.799  0.00  0.00     0.022 A 
ENDBRANCH  12  14
ENDBRANCH  11  12
ENDBRANCH   1  11
TORSDOF 5
ENDMDL
MODEL 6
REMARK VINA RESULT:      -7.0      2.726      3.810
REMARK  5 active torsions:
REMARK  status: ('A' for Active; 'I' for Inactive)
REMARK    1  A    between atoms: N_2  and  C_1 
REMARK    2  A    between atoms: C_5  and  C_1 
REMARK    3  A    between atoms: O_4  and  N_2 
REMARK    4  A    between atoms: C_3  and  O_4 
REMARK    5  A    between atoms: C_6  and  C_3 
ROOT
ATOM      1  O   UNL d   1      51.786  34.070  53.263  0.00  0.00    -0.168 OA
ENDROOT
BRANCH   1   2
ATOM      2  C   UNL d   1      52.619  34.442  53.273  0.00  0.00     0.319 C 
ATOM      3  O   UNL d   1      52.834  35.095  52.695  0.00  0.00    -0.257 OA
BRANCH   2   4
ATOM      4  C   UNL d   1      53.184  34.175  53.818  0.00  0.00     0.065 A 
ATOM      5  C   UNL d   1      53.635  33.501  53.632  0.00  0.00     0.005 A 
ATOM      6  C   UNL d   1      54.199  33.242  54.186  0.00  0.00     0.000 A 
ATOM      7  C   UNL d   1      54.312  33.637  54.899  0.00  0.00     0.000 A 
ATOM      8  C   UNL d   1      53.849  34.302  55.054  0.00  0.00     0.000 A 
ATOM      9  C   UNL d   1      54.876  33.366  55.438  0.00  0.00     0.000 C 
ATOM     10  C   UNL d   1      53.297  34.569  54.529  0.00  0.00     0.005 A 
ENDBRANCH   2   4
ENDBRANCH   1   2
BRANCH   1  11
ATOM     11  N   UNL d   1      51.173  34.420  52.855  0.00  0.00    -0.100 NA
BRANCH  11  12
ATOM     12  C   UNL d   1      50.421  34.094  52.849  0.00  0.00     0.228 C 
ATOM     13  N   UNL d   1      50.311  33.333  53.147  0.00  0.00    -0.123 N 
BRANCH  12  14
ATOM     14  C   UNL d   1      49.778  34.503  52.554  0.00  0.00     0.121 A 
ATOM     15  N   UNL d   1      49.375  35.032  53.027  0.00  0.00    -0.241 NA
ATOM     16  C   UNL d   1      48.720  35.447  52.720  0.00  0.00     0.099 A 
ATOM     17  C   UNL d   1      48.484  35.320  51.938  0.00  0.00     0.021 A 
ATOM     18  C   UNL d   1      48.895  34.782  51.458  0.00  0.00     0.003 A 
ATOM     19  C   UNL d   1      49.542  34.376  51.772  0.00  0.00     0.022 A 
ENDBRANCH  12  14
ENDBRANCH  11  12
ENDBRANCH   1  11
TORSDOF 5
ENDMDL
MODEL 7
REMARK VINA RESULT:      -7.0      2.385      3.311
REMARK  5 active torsions:
REMARK  status: ('A' for Active; 'I' for Inactive)
REMARK    1  A    between atoms: N_2  and  C_1 
REMARK    2  A    between atoms: C_5  and  C_1 
REMARK    3  A    between atoms: O_4  and  N_2 
REMARK    4  A    between atoms: C_3  and  O_4 
REMARK    5  A    between atoms: C_6  and  C_3 
ROOT
ATOM      1  O   UNL d   1      52.447  33.529  52.866  0.00  0.00    -0.168 OA
ENDROOT
BRANCH   1   2
ATOM      2  C   UNL d   1      52.815  32.901  53.415  0.00  0.00     0.319 C 
ATOM      3  O   UNL d   1      52.474  32.071  53.452  0.00  0.00    -0.257 OA
BRANCH   2   4
ATOM      4  C   UNL d   1      53.470  33.095  53.885  0.00  0.00     0.065 A 
ATOM      5  C   UNL d   1      53.343  33.478  54.612  0.00  0.00     0.005 A 
ATOM      6  C   UNL d   1      54.007  33.669  55.076  0.00  0.00     0.000 A 
ATOM      7  C   UNL d   1      54.770  33.487  54.827  0.00  0.00     0.000 A 
ATOM      8  C   UNL d   1      54.862  33.107  54.101  0.00  0.00     0.000 A 
ATOM      9  C   UNL d   1      55.417  33.684  55.300  0.00  0.00     0.000 C 
ATOM     10  C   UNL d   1      54.231  32.913  53.637  0.00  0.00     0.005 A 
ENDBRANCH   2   4
ENDBRANCH   1   2
BRANCH   1  11
ATOM     11  N   UNL d   1      51.643  33.553  52.732  0.00  0.00    -0.100 NA
BRANCH  11  12
ATOM     12  C   UNL d   1      51.312  34.090  52.208  0.00  0.00     0.228 C 
ATOM     13  N   UNL d   1      51.771  34.384  51.591  0.00  0.00    -0.123 N 
BRANCH  12  14
ATOM     14  C   UNL d   1      50.538  34.341  52.284  0.00  0.00     0.121 A 
ATOM     15  N   UNL d   1      50.283  34.688  52.976  0.00  0.00    -0.241 NA
ATOM     16  C   UNL d   1      49.492  34.942  53.048  0.00  0.00     0.099 A 
ATOM     17  C   UNL d   1      48.970  34.839  52.414  0.00  0.00     0.021 A 
ATOM     18  C   UNL d   1      49.231  34.485  51.710  0.00  0.00     0.003 A 
ATOM     19  C   UNL d   1      50.016  34.238  51.650  0.00  0.00     0.022 A 
ENDBRANCH  12  14
ENDBRANCH  11  12
ENDBRANCH   1  11
TORSDOF 5
ENDMDL
