MODEL 1
REMARK VINA RESULT:     132.0      0.000      0.000
REMARK  7 active torsions:
REMARK  status: ('A' for Active; 'I' for Inactive)
REMARK    1  A    between atoms: C_4  and  C_1 
REMARK    2  A    between atoms: N_5  and  C_2 
REMARK    3  A    between atoms: C_15  and  C_4 
REMARK    4  A    between atoms: C_9  and  C_13 
REMARK    5  A    between atoms: O_21  and  C_9 
REMARK    6  A    between atoms: C_25  and  C_20 
REMARK    7  A    between atoms: C_26  and  O_21 
ROOT
ATOM      1  C   UNL d   1     -55.911-100.928 -43.267  0.00  0.00     0.074 A 
ATOM      2  C   UNL d   1     -56.242-100.357 -43.772  0.00  0.00     0.070 A 
ATOM      3  C   UNL d   1     -55.842-100.127 -44.454  0.00  0.00     0.034 A 
ATOM      4  C   UNL d   1     -55.180-101.264 -43.451  0.00  0.00     0.103 A 
ATOM      5  N   UNL d   1     -54.780-101.028 -44.140  0.00  0.00    -0.244 NA
ATOM      6  C   UNL d   1     -55.111-100.463 -44.637  0.00  0.00     0.083 A 
ATOM      7  C   UNL d   1     -56.174 -99.561 -44.952  0.00  0.00     0.003 A 
ATOM      8  C   UNL d   1     -54.711-100.232 -45.319  0.00  0.00     0.019 A 
ATOM      9  C   UNL d   1     -55.773 -99.328 -45.637  0.00  0.00     0.000 A 
ATOM     10  C   UNL d   1     -55.042 -99.664 -45.821  0.00  0.00     0.002 A 
ENDROOT
BRANCH   2  11
ATOM     11  N   UNL d   1     -56.984-100.017 -43.586  0.00  0.00    -0.304 N 
ATOM     12  C   UNL d   1     -57.027 -99.235 -43.329  0.00  0.00     0.080 A 
ATOM     13  C   UNL d   1     -57.758 -98.900 -43.145  0.00  0.00     0.024 A 
ATOM     14  C   UNL d   1     -58.446 -99.346 -43.218  0.00  0.00     0.067 A 
ATOM     15  C   UNL d   1     -58.406-100.131 -43.476  0.00  0.00     0.024 A 
ATOM     16  C   UNL d   1     -57.675-100.467 -43.660  0.00  0.00     0.080 A 
BRANCH  14  17
ATOM     17  C   UNL d   1     -59.173 -99.003 -43.033  0.00  0.00     0.300 C 
ATOM     18  O   UNL d   1     -59.754 -98.907 -43.613  0.00  0.00    -0.259 OA
BRANCH  17  19
ATOM     19  O   UNL d   1     -59.319 -98.756 -42.260  0.00  0.00    -0.271 OA
BRANCH  19  20
ATOM     20  C   UNL d   1     -59.134 -99.239 -41.619  0.00  0.00     0.126 C 
ATOM     21  C   UNL d   1     -59.671 -99.351 -41.000  0.00  0.00     0.029 C 
ENDBRANCH  19  20
ENDBRANCH  17  19
ENDBRANCH  14  17
ENDBRANCH   2  11
BRANCH   1  22
ATOM     22  C   UNL d   1     -56.312-101.161 -42.582  0.00  0.00     0.198 C 
ATOM     23  O   UNL d   1     -57.104-100.958 -42.470  0.00  0.00    -0.286 OA
BRANCH  22  24
ATOM     24  C   UNL d   1     -55.920-101.599 -42.005  0.00  0.00     0.039 A 
ATOM     25  C   UNL d   1     -55.158-101.383 -41.773  0.00  0.00     0.003 A 
ATOM     26  C   UNL d   1     -54.767-101.822 -41.196  0.00  0.00     0.000 A 
ATOM     27  C   UNL d   1     -55.137-102.476 -40.853  0.00  0.00     0.000 A 
ATOM     28  C   UNL d   1     -55.898-102.696 -41.082  0.00  0.00     0.000 A 
ATOM     29  C   UNL d   1     -56.290-102.251 -41.664  0.00  0.00     0.003 A 
ENDBRANCH  22  24
ENDBRANCH   1  22
BRANCH   9  30
ATOM     30  C   UNL d   1     -56.108 -98.756 -46.141  0.00  0.00     0.000 C 
ATOM     31  C   UNL d   1     -56.054 -98.853 -46.958  0.00  0.00     0.000 C 
ENDBRANCH   9  30
TORSDOF 7
ENDMDL
