MODEL 1
REMARK VINA RESULT:      16.8      0.000      0.000
REMARK  5 active torsions:
REMARK  status: ('A' for Active; 'I' for Inactive)
REMARK       I    between atoms: N_3  and  C_1 
REMARK    1  A    between atoms: C_6  and  C_1 
REMARK    2  A    between atoms: C_2  and  S_4 
REMARK    3  A    between atoms: C_7  and  N_3 
REMARK    4  A    between atoms: S_4  and  C_8 
REMARK    5  A    between atoms: C_15  and  C_6 
ROOT
ATOM      1  C   UNL d   1      44.999 -16.261  44.407  0.00  0.00     0.085 A 
ATOM      2  C   UNL d   1      46.069 -17.364  43.875  0.00  0.00     0.034 A 
ATOM      3  C   UNL d   1      45.487 -16.648  44.947  0.00  0.00     0.020 A 
ATOM      4  C   UNL d   1      45.041 -16.420  43.608  0.00  0.00     0.020 A 
ATOM      5  C   UNL d   1      45.574 -16.971  43.335  0.00  0.00     0.008 A 
ATOM      6  C   UNL d   1      46.026 -17.204  44.677  0.00  0.00     0.008 A 
ENDROOT
BRANCH   1   7
ATOM      7  N   UNL d   1      44.457 -15.702  44.679  0.00  0.00    -0.208 NA
ATOM      8  C   UNL d   1      44.664 -14.900  44.689  0.00  0.00     0.279 C 
ATOM      9  O   UNL d   1      44.136 -14.347  44.955  0.00  0.00    -0.265 OA
BRANCH   8  10
ATOM     10  C   UNL d   1      45.405 -14.673  44.429  0.00  0.00     0.062 C 
BRANCH  10  11
ATOM     11  C   UNL d   1      45.576 -13.895  44.330  0.00  0.00     0.005 A 
ATOM     12  C   UNL d   1      45.902 -13.452  44.952  0.00  0.00     0.000 A 
ATOM     13  C   UNL d   1      46.081 -12.637  44.852  0.00  0.00     0.000 A 
ATOM     14  C   UNL d   1      45.927 -12.272  44.111  0.00  0.00     0.000 A 
ATOM     15  C   UNL d   1      45.598 -12.715  43.482  0.00  0.00     0.000 A 
ATOM     16  C   UNL d   1      45.426 -13.525  43.598  0.00  0.00     0.000 A 
ENDBRANCH  10  11
ENDBRANCH   8  10
ENDBRANCH   1   7
BRANCH   2  17
ATOM     17  S   UNL d   1      46.603 -17.918  43.600  0.00  0.00    -0.028 SA
BRANCH  17  18
ATOM     18  C   UNL d   1      46.361 -18.676  43.412  0.00  0.00     0.309 C 
ATOM     19  F   UNL d   1      46.058 -18.830  42.671  0.00  0.00    -0.165 F 
ATOM     20  F   UNL d   1      46.417 -19.275  43.953  0.00  0.00    -0.165 F 
ENDBRANCH  17  18
ENDBRANCH   2  17
TORSDOF 5
ENDMDL
MODEL 2
REMARK VINA RESULT:      18.3      1.049      1.453
REMARK  5 active torsions:
REMARK  status: ('A' for Active; 'I' for Inactive)
REMARK       I    between atoms: N_3  and  C_1 
REMARK    1  A    between atoms: C_6  and  C_1 
REMARK    2  A    between atoms: C_2  and  S_4 
REMARK    3  A    between atoms: C_7  and  N_3 
REMARK    4  A    between atoms: S_4  and  C_8 
REMARK    5  A    between atoms: C_15  and  C_6 
ROOT
ATOM      1  C   UNL d   1      45.877 -15.497  44.575  0.00  0.00     0.085 A 
ATOM      2  C   UNL d   1      45.715 -16.930  43.824  0.00  0.00     0.034 A 
ATOM      3  C   UNL d   1      46.360 -15.676  43.931  0.00  0.00     0.020 A 
ATOM      4  C   UNL d   1      45.317 -16.025  44.845  0.00  0.00     0.020 A 
ATOM      5  C   UNL d   1      45.231 -16.745  44.474  0.00  0.00     0.008 A 
ATOM      6  C   UNL d   1      46.276 -16.399  43.554  0.00  0.00     0.008 A 
ENDROOT
BRANCH   1   7
ATOM      7  N   UNL d   1      45.960 -14.769  44.955  0.00  0.00    -0.208 NA
ATOM      8  C   UNL d   1      45.688 -14.080  44.587  0.00  0.00     0.279 C 
ATOM      9  O   UNL d   1      45.767 -13.364  44.955  0.00  0.00    -0.265 OA
BRANCH   8  10
ATOM     10  C   UNL d   1      45.338 -14.130  43.849  0.00  0.00     0.062 C 
BRANCH  10  11
ATOM     11  C   UNL d   1      45.076 -13.465  43.483  0.00  0.00     0.005 A 
ATOM     12  C   UNL d   1      45.612 -12.885  43.228  0.00  0.00     0.000 A 
ATOM     13  C   UNL d   1      45.341 -12.188  42.844  0.00  0.00     0.000 A 
ATOM     14  C   UNL d   1      44.517 -12.083  42.720  0.00  0.00     0.000 A 
ATOM     15  C   UNL d   1      43.973 -12.666  42.976  0.00  0.00     0.000 A 
ATOM     16  C   UNL d   1      44.259 -13.353  43.356  0.00  0.00     0.000 A 
ENDBRANCH  10  11
ENDBRANCH   8  10
ENDBRANCH   1   7
BRANCH   2  17
ATOM     17  S   UNL d   1      45.628 -17.652  43.452  0.00  0.00    -0.028 SA
BRANCH  17  18
ATOM     18  C   UNL d   1      46.200 -18.233  43.527  0.00  0.00     0.309 C 
ATOM     19  F   UNL d   1      46.330 -18.578  44.254  0.00  0.00    -0.165 F 
ATOM     20  F   UNL d   1      46.636 -18.469  42.889  0.00  0.00    -0.165 F 
ENDBRANCH  17  18
ENDBRANCH   2  17
TORSDOF 5
ENDMDL
