MODEL 1
REMARK VINA RESULT:      59.1      0.000      0.000
REMARK  2 active torsions:
REMARK  status: ('A' for Active; 'I' for Inactive)
REMARK    1  A    between atoms: C_13  and  C_5 
REMARK    2  A    between atoms: C_16  and  C_13 
ROOT
ATOM      1  C   UNL d   1     -57.915 -98.806 -44.117  0.00  0.00     0.111 A 
ATOM      2  C   UNL d   1     -58.202 -98.785 -45.513  0.00  0.00     0.062 A 
ATOM      3  C   UNL d   1     -58.713 -98.819 -43.952  0.00  0.00     0.213 A 
ATOM      4  C   UNL d   1     -59.001 -98.798 -45.349  0.00  0.00     0.101 A 
ATOM      5  C   UNL d   1     -57.660 -98.790 -44.891  0.00  0.00     0.018 A 
ATOM      6  O   UNL d   1     -59.252 -98.815 -44.563  0.00  0.00    -0.288 OA
ATOM      7  C   UNL d   1     -57.948 -98.769 -46.288  0.00  0.00     0.194 A 
ATOM      8  C   UNL d   1     -57.379 -98.811 -43.450  0.00  0.00     0.105 C 
ATOM      9  N   UNL d   1     -56.832 -98.816 -42.806  0.00  0.00    -0.191 NA
ATOM     10  C   UNL d   1     -59.540 -98.794 -45.960  0.00  0.00     0.002 A 
ATOM     11  C   UNL d   1     -59.289 -98.777 -46.748  0.00  0.00     0.042 A 
ATOM     12  C   UNL d   1     -58.491 -98.764 -46.913  0.00  0.00     0.019 A 
ATOM     13  O   UNL d   1     -57.131 -98.756 -46.456  0.00  0.00    -0.287 OA
ATOM     14  N   UNL d   1     -58.941 -98.836 -43.129  0.00  0.00    -0.120 N 
ATOM     15  C   UNL d   1     -59.232 -98.762 -47.560  0.00  0.00     0.009 C 
ATOM     16  C   UNL d   1     -59.953 -98.777 -47.215  0.00  0.00     0.009 C 
ENDROOT
BRANCH   5  17
ATOM     17  C   UNL d   1     -56.843 -98.777 -45.059  0.00  0.00     0.001 C 
BRANCH  17  18
ATOM     18  C   UNL d   1     -56.371 -99.417 -44.865  0.00  0.00     0.000 A 
ATOM     19  C   UNL d   1     -55.560 -99.305 -44.702  0.00  0.00     0.000 A 
ATOM     20  C   UNL d   1     -55.081 -99.965 -44.503  0.00  0.00     0.000 A 
ATOM     21  C   UNL d   1     -55.392-100.697 -44.469  0.00  0.00     0.000 A 
ATOM     22  C   UNL d   1     -56.205-100.825 -44.630  0.00  0.00     0.000 A 
ATOM     23  C   UNL d   1     -56.697-100.185 -44.829  0.00  0.00     0.000 A 
ENDBRANCH  17  18
ENDBRANCH   5  17
TORSDOF 2
ENDMDL
