MODEL 1
REMARK VINA RESULT:      -6.8      0.000      0.000
REMARK  5 active torsions:
REMARK  status: ('A' for Active; 'I' for Inactive)
REMARK    1  A    between atoms: N_6  and  C_1 
REMARK    2  A    between atoms: S_10  and  C_4 
REMARK       I    between atoms: C_7  and  N_6 
REMARK       I    between atoms: N_8  and  C_7 
REMARK    3  A    between atoms: C_11  and  N_8 
REMARK    4  A    between atoms: C_17  and  S_10 
REMARK    5  A    between atoms: C_19  and  C_17 
ROOT
ATOM      1  N   UNL d   1     -47.689  12.889  22.953  0.00  0.00    -0.321 NA
ATOM      2  C   UNL d   1     -48.234  13.195  22.618  0.00  0.00     0.422 C 
ATOM      3  N   UNL d   1     -48.901  13.559  22.185  0.00  0.00    -0.180 NA
ATOM      4  O   UNL d   1     -48.385  13.582  23.181  0.00  0.00    -0.228 OA
ENDROOT
BRANCH   1   5
ATOM      5  C   UNL d   1     -46.999  12.426  23.212  0.00  0.00     0.271 A 
ATOM      6  S   UNL d   1     -46.846  11.744  23.315  0.00  0.00    -0.006 SA
ATOM      7  C   UNL d   1     -46.193  11.567  23.540  0.00  0.00     0.166 A 
ATOM      8  N   UNL d   1     -45.706  12.069  23.658  0.00  0.00    -0.132 NA
ATOM      9  N   UNL d   1     -46.513  12.927  23.330  0.00  0.00    -0.107 NA
BRANCH   7  10
ATOM     10  S   UNL d   1     -45.910  10.916  23.683  0.00  0.00    -0.059 SA
BRANCH  10  11
ATOM     11  C   UNL d   1     -45.097  10.801  23.630  0.00  0.00     0.037 C 
BRANCH  11  12
ATOM     12  C   UNL d   1     -44.791  10.039  23.645  0.00  0.00     0.007 C 
ATOM     13  C   UNL d   1     -43.981   9.917  23.662  0.00  0.00     0.001 C 
ENDBRANCH  11  12
ENDBRANCH  10  11
ENDBRANCH   7  10
ENDBRANCH   1   5
BRANCH   3  14
ATOM     14  C   UNL d   1     -49.371  14.130  22.563  0.00  0.00     0.087 A 
ATOM     15  C   UNL d   1     -49.259  14.930  22.389  0.00  0.00     0.019 A 
ATOM     16  C   UNL d   1     -49.724  15.499  22.762  0.00  0.00     0.002 A 
ATOM     17  C   UNL d   1     -50.300  15.259  23.311  0.00  0.00     0.000 A 
ATOM     18  C   UNL d   1     -50.408  14.458  23.482  0.00  0.00     0.002 A 
ATOM     19  C   UNL d   1     -50.765  15.829  23.684  0.00  0.00     0.000 C 
ATOM     20  C   UNL d   1     -49.937  13.886  23.103  0.00  0.00     0.019 A 
ENDBRANCH   3  14
TORSDOF 5
ENDMDL
MODEL 2
REMARK VINA RESULT:      -5.7      3.048      3.569
REMARK  5 active torsions:
REMARK  status: ('A' for Active; 'I' for Inactive)
REMARK    1  A    between atoms: N_6  and  C_1 
REMARK    2  A    between atoms: S_10  and  C_4 
REMARK       I    between atoms: C_7  and  N_6 
REMARK       I    between atoms: N_8  and  C_7 
REMARK    3  A    between atoms: C_11  and  N_8 
REMARK    4  A    between atoms: C_17  and  S_10 
REMARK    5  A    between atoms: C_19  and  C_17 
ROOT
ATOM      1  N   UNL d   1     -45.048  12.972  22.267  0.00  0.00    -0.321 NA
ATOM      2  C   UNL d   1     -45.636  13.009  22.660  0.00  0.00     0.422 C 
ATOM      3  N   UNL d   1     -46.350  13.044  23.165  0.00  0.00    -0.180 NA
ATOM      4  O   UNL d   1     -45.986  13.318  22.139  0.00  0.00    -0.228 OA
ENDROOT
BRANCH   1   5
ATOM      5  C   UNL d   1     -44.256  12.850  21.926  0.00  0.00     0.271 A 
ATOM      6  S   UNL d   1     -43.830  13.192  21.478  0.00  0.00    -0.006 SA
ATOM      7  C   UNL d   1     -43.193  12.909  21.324  0.00  0.00     0.166 A 
ATOM      8  N   UNL d   1     -42.992  12.297  21.617  0.00  0.00    -0.132 NA
ATOM      9  N   UNL d   1     -44.055  12.237  22.220  0.00  0.00    -0.107 NA
BRANCH   7  10
ATOM     10  S   UNL d   1     -42.669  13.153  20.888  0.00  0.00    -0.059 SA
BRANCH  10  11
ATOM     11  C   UNL d   1     -42.044  13.587  21.199  0.00  0.00     0.037 C 
BRANCH  11  12
ATOM     12  C   UNL d   1     -41.492  13.926  20.695  0.00  0.00     0.007 C 
ATOM     13  C   UNL d   1     -40.872  14.371  20.995  0.00  0.00     0.001 C 
ENDBRANCH  11  12
ENDBRANCH  10  11
ENDBRANCH   7  10
ENDBRANCH   1   5
BRANCH   3  14
ATOM     14  C   UNL d   1     -47.047  13.379  22.863  0.00  0.00     0.087 A 
ATOM     15  C   UNL d   1     -47.598  12.897  22.479  0.00  0.00     0.019 A 
ATOM     16  C   UNL d   1     -48.291  13.227  22.179  0.00  0.00     0.002 A 
ATOM     17  C   UNL d   1     -48.426  14.042  22.267  0.00  0.00     0.000 A 
ATOM     18  C   UNL d   1     -47.872  14.519  22.652  0.00  0.00     0.002 A 
ATOM     19  C   UNL d   1     -49.120  14.372  21.967  0.00  0.00     0.000 C 
ATOM     20  C   UNL d   1     -47.174  14.183  22.954  0.00  0.00     0.019 A 
ENDBRANCH   3  14
TORSDOF 5
ENDMDL
MODEL 3
REMARK VINA RESULT:      -5.7      1.557      1.668
REMARK  5 active torsions:
REMARK  status: ('A' for Active; 'I' for Inactive)
REMARK    1  A    between atoms: N_6  and  C_1 
REMARK    2  A    between atoms: S_10  and  C_4 
REMARK       I    between atoms: C_7  and  N_6 
REMARK       I    between atoms: N_8  and  C_7 
REMARK    3  A    between atoms: C_11  and  N_8 
REMARK    4  A    between atoms: C_17  and  S_10 
REMARK    5  A    between atoms: C_19  and  C_17 
ROOT
ATOM      1  N   UNL d   1     -47.653  13.139  22.737  0.00  0.00    -0.321 NA
ATOM      2  C   UNL d   1     -48.360  13.112  22.705  0.00  0.00     0.422 C 
ATOM      3  N   UNL d   1     -49.232  13.055  22.661  0.00  0.00    -0.180 NA
ATOM      4  O   UNL d   1     -48.410  13.795  22.851  0.00  0.00    -0.228 OA
ENDROOT
BRANCH   1   5
ATOM      5  C   UNL d   1     -46.793  12.999  22.738  0.00  0.00     0.271 A 
ATOM      6  S   UNL d   1     -46.222  13.298  22.448  0.00  0.00    -0.006 SA
ATOM      7  C   UNL d   1     -45.581  13.017  22.581  0.00  0.00     0.166 A 
ATOM      8  N   UNL d   1     -45.518  12.448  22.997  0.00  0.00    -0.132 NA
ATOM      9  N   UNL d   1     -46.731  12.430  23.155  0.00  0.00    -0.107 NA
BRANCH   7  10
ATOM     10  S   UNL d   1     -44.926  13.222  22.350  0.00  0.00    -0.059 SA
BRANCH  10  11
ATOM     11  C   UNL d   1     -44.510  12.750  21.821  0.00  0.00     0.037 C 
BRANCH  11  12
ATOM     12  C   UNL d   1     -43.823  13.034  21.472  0.00  0.00     0.007 C 
ATOM     13  C   UNL d   1     -43.159  12.557  21.411  0.00  0.00     0.001 C 
ENDBRANCH  11  12
ENDBRANCH  10  11
ENDBRANCH   7  10
ENDBRANCH   1   5
BRANCH   3  14
ATOM     14  C   UNL d   1     -49.693  13.734  22.791  0.00  0.00     0.087 A 
ATOM     15  C   UNL d   1     -49.963  14.172  22.145  0.00  0.00     0.019 A 
ATOM     16  C   UNL d   1     -50.421  14.847  22.271  0.00  0.00     0.002 A 
ATOM     17  C   UNL d   1     -50.604  15.075  23.048  0.00  0.00     0.000 A 
ATOM     18  C   UNL d   1     -50.331  14.633  23.690  0.00  0.00     0.002 A 
ATOM     19  C   UNL d   1     -51.062  15.750  23.174  0.00  0.00     0.000 C 
ATOM     20  C   UNL d   1     -49.870  13.954  23.559  0.00  0.00     0.019 A 
ENDBRANCH   3  14
TORSDOF 5
ENDMDL
MODEL 4
REMARK VINA RESULT:      -5.5      8.727      9.853
REMARK  5 active torsions:
REMARK  status: ('A' for Active; 'I' for Inactive)
REMARK    1  A    between atoms: N_6  and  C_1 
REMARK    2  A    between atoms: S_10  and  C_4 
REMARK       I    between atoms: C_7  and  N_6 
REMARK       I    between atoms: N_8  and  C_7 
REMARK    3  A    between atoms: C_11  and  N_8 
REMARK    4  A    between atoms: C_17  and  S_10 
REMARK    5  A    between atoms: C_19  and  C_17 
ROOT
ATOM      1  N   UNL d   1     -40.089  14.498  19.490  0.00  0.00    -0.321 NA
ATOM      2  C   UNL d   1     -40.241  14.510  20.182  0.00  0.00     0.422 C 
ATOM      3  N   UNL d   1     -40.450  14.515  21.031  0.00  0.00    -0.180 NA
ATOM      4  O   UNL d   1     -39.619  14.795  20.331  0.00  0.00    -0.228 OA
ENDROOT
BRANCH   1   5
ATOM      5  C   UNL d   1     -40.064  14.412  18.624  0.00  0.00     0.271 A 
ATOM      6  S   UNL d   1     -39.634  14.610  18.099  0.00  0.00    -0.006 SA
ATOM      7  C   UNL d   1     -39.801  14.430  17.429  0.00  0.00     0.166 A 
ATOM      8  N   UNL d   1     -40.389  14.059  17.295  0.00  0.00    -0.132 NA
ATOM      9  N   UNL d   1     -40.651  14.040  18.489  0.00  0.00    -0.107 NA
BRANCH   7  10
ATOM     10  S   UNL d   1     -39.453  14.568  16.810  0.00  0.00    -0.059 SA
BRANCH  10  11
ATOM     11  C   UNL d   1     -38.885  14.043  16.532  0.00  0.00     0.037 C 
BRANCH  11  12
ATOM     12  C   UNL d   1     -38.467  14.218  15.847  0.00  0.00     0.007 C 
ATOM     13  C   UNL d   1     -37.940  13.675  15.531  0.00  0.00     0.001 C 
ENDBRANCH  11  12
ENDBRANCH  10  11
ENDBRANCH   7  10
ENDBRANCH   1   5
BRANCH   3  14
ATOM     14  C   UNL d   1     -39.906  14.812  21.585  0.00  0.00     0.087 A 
ATOM     15  C   UNL d   1     -39.876  15.624  21.730  0.00  0.00     0.019 A 
ATOM     16  C   UNL d   1     -39.337  15.922  22.279  0.00  0.00     0.002 A 
ATOM     17  C   UNL d   1     -38.831  15.398  22.678  0.00  0.00     0.000 A 
ATOM     18  C   UNL d   1     -38.866  14.586  22.529  0.00  0.00     0.002 A 
ATOM     19  C   UNL d   1     -38.293  15.696  23.227  0.00  0.00     0.000 C 
ATOM     20  C   UNL d   1     -39.411  14.290  21.975  0.00  0.00     0.019 A 
ENDBRANCH   3  14
TORSDOF 5
ENDMDL
MODEL 5
REMARK VINA RESULT:      -5.4      8.905     10.105
REMARK  5 active torsions:
REMARK  status: ('A' for Active; 'I' for Inactive)
REMARK    1  A    between atoms: N_6  and  C_1 
REMARK    2  A    between atoms: S_10  and  C_4 
REMARK       I    between atoms: C_7  and  N_6 
REMARK       I    between atoms: N_8  and  C_7 
REMARK    3  A    between atoms: C_11  and  N_8 
REMARK    4  A    between atoms: C_17  and  S_10 
REMARK    5  A    between atoms: C_19  and  C_17 
ROOT
ATOM      1  N   UNL d   1     -40.000  14.802  19.482  0.00  0.00    -0.321 NA
ATOM      2  C   UNL d   1     -40.085  14.431  18.885  0.00  0.00     0.422 C 
ATOM      3  N   UNL d   1     -40.212  13.964  18.156  0.00  0.00    -0.180 NA
ATOM      4  O   UNL d   1     -39.473  14.661  18.634  0.00  0.00    -0.228 OA
ENDROOT
BRANCH   1   5
ATOM      5  C   UNL d   1     -40.051  15.188  20.261  0.00  0.00     0.271 A 
ATOM      6  S   UNL d   1     -39.603  15.365  20.779  0.00  0.00    -0.006 SA
ATOM      7  C   UNL d   1     -39.859  15.689  21.360  0.00  0.00     0.166 A 
ATOM      8  N   UNL d   1     -40.551  15.832  21.415  0.00  0.00    -0.132 NA
ATOM      9  N   UNL d   1     -40.742  15.331  20.316  0.00  0.00    -0.107 NA
BRANCH   7  10
ATOM     10  S   UNL d   1     -39.515  15.920  21.954  0.00  0.00    -0.059 SA
BRANCH  10  11
ATOM     11  C   UNL d   1     -39.237  15.377  22.504  0.00  0.00     0.037 C 
BRANCH  11  12
ATOM     12  C   UNL d   1     -38.911  15.641  23.210  0.00  0.00     0.007 C 
ATOM     13  C   UNL d   1     -38.450  15.142  23.668  0.00  0.00     0.001 C 
ENDBRANCH  11  12
ENDBRANCH  10  11
ENDBRANCH   7  10
ENDBRANCH   1   5
BRANCH   3  14
ATOM     14  C   UNL d   1     -39.640  13.983  17.554  0.00  0.00     0.087 A 
ATOM     15  C   UNL d   1     -39.666  14.582  16.985  0.00  0.00     0.019 A 
ATOM     16  C   UNL d   1     -39.099  14.603  16.386  0.00  0.00     0.002 A 
ATOM     17  C   UNL d   1     -38.508  14.019  16.364  0.00  0.00     0.000 A 
ATOM     18  C   UNL d   1     -38.487  13.422  16.935  0.00  0.00     0.002 A 
ATOM     19  C   UNL d   1     -37.942  14.040  15.765  0.00  0.00     0.000 C 
ATOM     20  C   UNL d   1     -39.060  13.404  17.537  0.00  0.00     0.019 A 
ENDBRANCH   3  14
TORSDOF 5
ENDMDL
MODEL 6
REMARK VINA RESULT:      -5.2      2.047      4.968
REMARK  5 active torsions:
REMARK  status: ('A' for Active; 'I' for Inactive)
REMARK    1  A    between atoms: N_6  and  C_1 
REMARK    2  A    between atoms: S_10  and  C_4 
REMARK       I    between atoms: C_7  and  N_6 
REMARK       I    between atoms: N_8  and  C_7 
REMARK    3  A    between atoms: C_11  and  N_8 
REMARK    4  A    between atoms: C_17  and  S_10 
REMARK    5  A    between atoms: C_19  and  C_17 
ROOT
ATOM      1  N   UNL d   1     -47.532  12.160  23.118  0.00  0.00    -0.321 NA
ATOM      2  C   UNL d   1     -46.852  12.241  23.298  0.00  0.00     0.422 C 
ATOM      3  N   UNL d   1     -46.018  12.337  23.545  0.00  0.00    -0.180 NA
ATOM      4  O   UNL d   1     -46.669  12.344  22.631  0.00  0.00    -0.228 OA
ENDROOT
BRANCH   1   5
ATOM      5  C   UNL d   1     -48.393  12.037  23.069  0.00  0.00     0.271 A 
ATOM      6  S   UNL d   1     -48.951  12.392  22.820  0.00  0.00    -0.006 SA
ATOM      7  C   UNL d   1     -49.600  12.103  22.882  0.00  0.00     0.166 A 
ATOM      8  N   UNL d   1     -49.682  11.470  23.188  0.00  0.00    -0.132 NA
ATOM      9  N   UNL d   1     -48.475  11.404  23.376  0.00  0.00    -0.107 NA
BRANCH   7  10
ATOM     10  S   UNL d   1     -50.244  12.357  22.672  0.00  0.00    -0.059 SA
BRANCH  10  11
ATOM     11  C   UNL d   1     -50.286  12.961  22.116  0.00  0.00     0.037 C 
BRANCH  11  12
ATOM     12  C   UNL d   1     -51.017  13.273  21.907  0.00  0.00     0.007 C 
ATOM     13  C   UNL d   1     -51.064  13.943  21.437  0.00  0.00     0.001 C 
ENDBRANCH  11  12
ENDBRANCH  10  11
ENDBRANCH   7  10
ENDBRANCH   1   5
BRANCH   3  14
ATOM     14  C   UNL d   1     -45.437  12.489  22.971  0.00  0.00     0.087 A 
ATOM     15  C   UNL d   1     -44.864  11.916  22.810  0.00  0.00     0.019 A 
ATOM     16  C   UNL d   1     -44.286  12.064  22.241  0.00  0.00     0.002 A 
ATOM     17  C   UNL d   1     -44.289  12.790  21.837  0.00  0.00     0.000 A 
ATOM     18  C   UNL d   1     -44.864  13.359  22.002  0.00  0.00     0.002 A 
ATOM     19  C   UNL d   1     -43.710  12.938  21.268  0.00  0.00     0.000 C 
ATOM     20  C   UNL d   1     -45.445  13.207  22.577  0.00  0.00     0.019 A 
ENDBRANCH   3  14
TORSDOF 5
ENDMDL
