MODEL 1
REMARK VINA RESULT:      48.6      0.000      0.000
REMARK  5 active torsions:
REMARK  status: ('A' for Active; 'I' for Inactive)
REMARK    1  A    between atoms: C_7  and  N_1 
REMARK    2  A    between atoms: C_12  and  C_3 
REMARK    3  A    between atoms: C_8  and  S_15 
REMARK    4  A    between atoms: C_16  and  C_12 
REMARK    5  A    between atoms: S_15  and  C_16 
ROOT
ATOM      1  N   UNL d   1     -55.011-101.297 -42.587  0.00  0.00    -0.304 N 
ATOM      2  C   UNL d   1     -54.847-101.016 -41.831  0.00  0.00     0.067 A 
ATOM      3  C   UNL d   1     -54.844-101.660 -41.313  0.00  0.00     0.057 A 
ATOM      4  C   UNL d   1     -55.109-102.107 -42.542  0.00  0.00     0.064 A 
ATOM      5  C   UNL d   1     -55.008-102.341 -41.760  0.00  0.00     0.022 A 
ATOM      6  C   UNL d   1     -54.711-100.228 -41.634  0.00  0.00     0.019 C 
ATOM      7  C   UNL d   1     -55.255-102.868 -42.821  0.00  0.00     0.019 C 
ENDROOT
BRANCH   3   8
ATOM      8  C   UNL d   1     -54.771-102.047 -40.576  0.00  0.00     0.204 C 
ATOM      9  O   UNL d   1     -54.714-102.879 -40.549  0.00  0.00    -0.286 OA
BRANCH   8  10
ATOM     10  C   UNL d   1     -54.721-102.007 -39.753  0.00  0.00     0.080 C 
BRANCH  10  11
ATOM     11  S   UNL d   1     -55.203-102.494 -39.287  0.00  0.00    -0.043 SA
BRANCH  11  12
ATOM     12  C   UNL d   1     -55.261-102.366 -38.475  0.00  0.00     0.233 A 
ATOM     13  N   UNL d   1     -55.632-102.865 -37.934  0.00  0.00    -0.029 NA
ATOM     14  C   UNL d   1     -55.557-102.525 -37.189  0.00  0.00     0.788 A 
ATOM     15  N   UNL d   1     -55.848-102.836 -36.481  0.00  0.00     0.064 N 
ATOM     16  N   UNL d   1     -55.142-101.819 -37.274  0.00  0.00     0.050 NA
ATOM     17  N   UNL d   1     -54.954-101.715 -38.077  0.00  0.00    -0.105 NA
ENDBRANCH  11  12
ENDBRANCH  10  11
ENDBRANCH   8  10
ENDBRANCH   3   8
BRANCH   1  18
ATOM     18  C   UNL d   1     -55.066-100.837 -43.276  0.00  0.00     0.094 A 
ATOM     19  C   UNL d   1     -55.166-100.054 -43.208  0.00  0.00     0.050 A 
ATOM     20  C   UNL d   1     -55.221 -99.595 -43.904  0.00  0.00     0.142 A 
ATOM     21  F   UNL d   1     -55.325 -98.773 -43.847  0.00  0.00    -0.204 F 
ATOM     22  C   UNL d   1     -55.172 -99.955 -44.641  0.00  0.00     0.032 A 
ATOM     23  C   UNL d   1     -55.070-100.763 -44.702  0.00  0.00     0.034 A 
ATOM     24  C   UNL d   1     -55.015-101.214 -44.012  0.00  0.00     0.156 A 
ATOM     25  F   UNL d   1     -54.925-101.911 -44.472  0.00  0.00    -0.203 F 
ENDBRANCH   1  18
TORSDOF 5
ENDMDL
