MODEL 1
REMARK VINA RESULT:      67.2      0.000      0.000
REMARK  7 active torsions:
REMARK  status: ('A' for Active; 'I' for Inactive)
REMARK    1  A    between atoms: N_2  and  S_1 
REMARK    2  A    between atoms: C_3  and  S_1 
REMARK       I    between atoms: C_4  and  N_9 
REMARK    3  A    between atoms: C_10  and  C_4 
REMARK    4  A    between atoms: C_12  and  C_6 
REMARK    5  A    between atoms: N_9  and  C_12 
REMARK    6  A    between atoms: O_22  and  C_19 
REMARK    7  A    between atoms: C_25  and  O_22 
ROOT
ATOM      1  N   UNL d   1     -55.207-100.318 -44.117  0.00  0.00    -0.229 N 
ATOM      2  C   UNL d   1     -54.927-100.420 -43.347  0.00  0.00     0.094 A 
ATOM      3  C   UNL d   1     -55.316 -99.502 -44.247  0.00  0.00     0.092 A 
ATOM      4  C   UNL d   1     -54.864 -99.668 -43.008  0.00  0.00     0.021 A 
ATOM      5  C   UNL d   1     -55.104 -99.109 -43.563  0.00  0.00     0.021 A 
ENDROOT
BRANCH   2   6
ATOM      6  C   UNL d   1     -54.767-101.177 -43.061  0.00  0.00     0.120 C 
BRANCH   6   7
ATOM      7  N   UNL d   1     -54.718-101.306 -42.253  0.00  0.00    -0.205 NA
ATOM      8  C   UNL d   1     -55.142-101.915 -41.919  0.00  0.00     0.279 C 
ATOM      9  O   UNL d   1     -55.622-102.408 -42.378  0.00  0.00    -0.265 OA
BRANCH   8  10
ATOM     10  C   UNL d   1     -55.094-102.051 -41.092  0.00  0.00     0.058 A 
ATOM     11  C   UNL d   1     -55.385-101.486 -40.565  0.00  0.00     0.007 A 
ATOM     12  C   UNL d   1     -55.342-101.612 -39.759  0.00  0.00     0.025 A 
ATOM     13  C   UNL d   1     -55.003-102.312 -39.469  0.00  0.00     0.100 A 
ATOM     14  C   UNL d   1     -54.711-102.876 -39.995  0.00  0.00     0.025 A 
ATOM     15  C   UNL d   1     -54.761-102.737 -40.808  0.00  0.00     0.007 A 
BRANCH  13  16
ATOM     16  O   UNL d   1     -54.961-102.435 -38.651  0.00  0.00    -0.305 OA
BRANCH  16  17
ATOM     17  C   UNL d   1     -55.274-101.882 -38.125  0.00  0.00     0.123 C 
ATOM     18  C   UNL d   1     -54.791-101.535 -37.555  0.00  0.00     0.029 C 
ENDBRANCH  16  17
ENDBRANCH  13  16
ENDBRANCH   8  10
ENDBRANCH   6   7
ENDBRANCH   2   6
BRANCH   1  19
ATOM     19  S   UNL d   1     -55.354-100.923 -44.660  0.00  0.00     0.277 S 
ATOM     20  O   UNL d   1     -55.916-101.247 -44.148  0.00  0.00    -0.199 OA
ATOM     21  O   UNL d   1     -54.789-100.595 -45.171  0.00  0.00    -0.199 OA
BRANCH  19  22
ATOM     22  C   UNL d   1     -55.503-101.533 -45.206  0.00  0.00     0.133 A 
ATOM     23  S   UNL d   1     -55.867-101.528 -45.950  0.00  0.00    -0.074 SA
ATOM     24  C   UNL d   1     -55.858-102.297 -46.234  0.00  0.00     0.036 A 
ATOM     25  C   UNL d   1     -55.492-102.770 -45.669  0.00  0.00     0.008 A 
ATOM     26  C   UNL d   1     -55.276-102.301 -45.041  0.00  0.00     0.020 A 
ENDBRANCH  19  22
ENDBRANCH   1  19
TORSDOF 7
ENDMDL
