MODEL 1
REMARK VINA RESULT:      -1.7      0.000      0.000
REMARK  3 active torsions:
REMARK  status: ('A' for Active; 'I' for Inactive)
REMARK    1  A    between atoms: S_3  and  N_1 
REMARK    2  A    between atoms: C_7  and  C_4 
REMARK    3  A    between atoms: C_11  and  C_5 
ROOT
ATOM      1  N   UNL d   1     -42.679-122.971 -50.346  0.00  0.00    -0.155 N 
ATOM      2  N   UNL d   1     -42.704-122.884 -51.186  0.00  0.00    -0.156 NA
ATOM      3  C   UNL d   1     -41.870-123.001 -50.159  0.00  0.00     0.102 A 
ATOM      4  C   UNL d   1     -41.939-122.864 -51.476  0.00  0.00     0.104 A 
ATOM      5  C   UNL d   1     -41.425-122.938 -50.821  0.00  0.00     0.041 A 
ENDROOT
BRANCH   4   6
ATOM      6  C   UNL d   1     -41.738-122.786 -52.253  0.00  0.00     0.019 A 
ATOM      7  C   UNL d   1     -41.722-123.457 -52.743  0.00  0.00     0.002 A 
ATOM      8  C   UNL d   1     -41.519-123.401 -53.539  0.00  0.00     0.007 A 
ATOM      9  C   UNL d   1     -41.324-122.658 -53.872  0.00  0.00     0.035 A 
ATOM     10  C   UNL d   1     -41.341-121.985 -53.380  0.00  0.00     0.007 A 
ATOM     11 BR   UNL d   1     -41.123-122.601 -54.663  0.00  0.00    -0.049 Br
ATOM     12  C   UNL d   1     -41.544-122.043 -52.582  0.00  0.00     0.002 A 
ENDBRANCH   4   6
BRANCH   1  13
ATOM     13  S   UNL d   1     -43.306-123.016 -49.845  0.00  0.00     0.266 S 
ATOM     14  O   UNL d   1     -43.961-123.049 -49.321  0.00  0.00    -0.203 OA
ATOM     15  O   UNL d   1     -43.319-123.817 -49.926  0.00  0.00    -0.203 OA
ATOM     16  C   UNL d   1     -43.291-122.182 -49.762  0.00  0.00     0.165 C 
ENDBRANCH   1  13
BRANCH   3  17
ATOM     17  C   UNL d   1     -41.578-123.083 -49.393  0.00  0.00     0.048 A 
ATOM     18  S   UNL d   1     -41.393-123.782 -49.003  0.00  0.00    -0.085 SA
ATOM     19  C   UNL d   1     -41.123-123.614 -48.260  0.00  0.00     0.035 A 
ATOM     20  C   UNL d   1     -41.132-122.801 -48.169  0.00  0.00     0.007 A 
ATOM     21  C   UNL d   1     -41.409-122.471 -48.855  0.00  0.00     0.009 A 
ENDBRANCH   3  17
TORSDOF 3
ENDMDL
