MODEL 1
REMARK VINA RESULT:      69.5      0.000      0.000
REMARK  4 active torsions:
REMARK  status: ('A' for Active; 'I' for Inactive)
REMARK    1  A    between atoms: C_7  and  C_1 
REMARK       I    between atoms: C_6  and  N_8 
REMARK    2  A    between atoms: C_14  and  C_6 
REMARK    3  A    between atoms: N_8  and  C_15 
REMARK    4  A    between atoms: C_20  and  C_14 
ROOT
ATOM      1  C   UNL d   1     -50.275  26.817  33.346  0.00  0.00     0.024 A 
ATOM      2  C   UNL d   1     -50.778  27.460  33.377  0.00  0.00     0.004 A 
ATOM      3  C   UNL d   1     -49.448  26.917  33.310  0.00  0.00     0.004 A 
ATOM      4  C   UNL d   1     -49.646  28.341  33.337  0.00  0.00     0.085 A 
ATOM      5  C   UNL d   1     -50.464  28.237  33.372  0.00  0.00     0.019 A 
ATOM      6  C   UNL d   1     -49.144  27.694  33.306  0.00  0.00     0.019 A 
ENDROOT
BRANCH   1   7
ATOM      7  C   UNL d   1     -50.595  26.066  33.352  0.00  0.00     0.111 A 
ATOM      8  N   UNL d   1     -50.162  25.383  33.311  0.00  0.00    -0.239 NA
ATOM      9  C   UNL d   1     -50.664  24.734  33.330  0.00  0.00     0.088 A 
ATOM     10  C   UNL d   1     -50.538  23.927  33.306  0.00  0.00     0.020 A 
ATOM     11  C   UNL d   1     -51.441  25.035  33.384  0.00  0.00     0.049 A 
ATOM     12  C   UNL d   1     -51.173  23.427  33.336  0.00  0.00     0.002 A 
ATOM     13  C   UNL d   1     -51.950  23.728  33.391  0.00  0.00     0.001 A 
ATOM     14  C   UNL d   1     -52.087  24.523  33.415  0.00  0.00     0.008 A 
ATOM     15  C   UNL d   1     -52.584  23.198  33.420  0.00  0.00     0.000 C 
ATOM     16  S   UNL d   1     -51.396  25.852  33.398  0.00  0.00    -0.066 SA
ENDBRANCH   1   7
BRANCH   4  17
ATOM     17  N   UNL d   1     -49.332  29.084  33.331  0.00  0.00    -0.208 NA
ATOM     18  C   UNL d   1     -48.943  29.345  33.936  0.00  0.00     0.279 C 
ATOM     19  O   UNL d   1     -48.601  30.146  33.938  0.00  0.00    -0.265 OA
BRANCH  18  20
ATOM     20  C   UNL d   1     -48.897  28.800  34.545  0.00  0.00     0.062 C 
BRANCH  20  21
ATOM     21  C   UNL d   1     -48.428  28.954  35.189  0.00  0.00     0.005 A 
ATOM     22  C   UNL d   1     -47.643  29.152  35.068  0.00  0.00     0.000 A 
ATOM     23  C   UNL d   1     -47.142  29.314  35.718  0.00  0.00     0.000 A 
ATOM     24  C   UNL d   1     -47.451  29.271  36.484  0.00  0.00     0.000 A 
ATOM     25  C   UNL d   1     -48.247  29.069  36.594  0.00  0.00     0.000 A 
ATOM     26  C   UNL d   1     -48.737  28.911  35.960  0.00  0.00     0.000 A 
ENDBRANCH  20  21
ENDBRANCH  18  20
ENDBRANCH   4  17
TORSDOF 4
ENDMDL
MODEL 2
REMARK VINA RESULT:      70.8      2.014      2.958
REMARK  4 active torsions:
REMARK  status: ('A' for Active; 'I' for Inactive)
REMARK    1  A    between atoms: C_7  and  C_1 
REMARK       I    between atoms: C_6  and  N_8 
REMARK    2  A    between atoms: C_14  and  C_6 
REMARK    3  A    between atoms: N_8  and  C_15 
REMARK    4  A    between atoms: C_20  and  C_14 
ROOT
ATOM      1  C   UNL d   1     -48.680  28.297  34.905  0.00  0.00     0.024 A 
ATOM      2  C   UNL d   1     -48.916  28.635  35.610  0.00  0.00     0.004 A 
ATOM      3  C   UNL d   1     -47.967  28.522  34.537  0.00  0.00     0.004 A 
ATOM      4  C   UNL d   1     -47.732  29.445  35.615  0.00  0.00     0.085 A 
ATOM      5  C   UNL d   1     -48.439  29.218  35.975  0.00  0.00     0.019 A 
ATOM      6  C   UNL d   1     -47.497  29.104  34.907  0.00  0.00     0.019 A 
ENDROOT
BRANCH   1   7
ATOM      7  C   UNL d   1     -49.155  27.730  34.561  0.00  0.00     0.111 A 
ATOM      8  N   UNL d   1     -48.880  27.066  34.187  0.00  0.00    -0.239 NA
ATOM      9  C   UNL d   1     -49.511  26.622  33.909  0.00  0.00     0.088 A 
ATOM     10  C   UNL d   1     -49.562  25.917  33.500  0.00  0.00     0.020 A 
ATOM     11  C   UNL d   1     -50.206  27.034  34.122  0.00  0.00     0.049 A 
ATOM     12  C   UNL d   1     -50.291  25.625  33.306  0.00  0.00     0.002 A 
ATOM     13  C   UNL d   1     -50.986  26.037  33.519  0.00  0.00     0.001 A 
ATOM     14  C   UNL d   1     -50.948  26.734  33.923  0.00  0.00     0.008 A 
ATOM     15  C   UNL d   1     -51.720  25.720  33.310  0.00  0.00     0.000 C 
ATOM     16  S   UNL d   1     -49.985  27.713  34.521  0.00  0.00    -0.066 SA
ENDBRANCH   1   7
BRANCH   4  17
ATOM     17  N   UNL d   1     -47.264  30.005  35.956  0.00  0.00    -0.208 NA
ATOM     18  C   UNL d   1     -47.215  30.707  35.655  0.00  0.00     0.279 C 
ATOM     19  O   UNL d   1     -46.711  31.317  36.018  0.00  0.00    -0.265 OA
BRANCH  18  20
ATOM     20  C   UNL d   1     -47.674  30.798  34.983  0.00  0.00     0.062 C 
BRANCH  20  21
ATOM     21  C   UNL d   1     -47.702  31.517  34.608  0.00  0.00     0.005 A 
ATOM     22  C   UNL d   1     -47.008  31.837  34.315  0.00  0.00     0.000 A 
ATOM     23  C   UNL d   1     -47.015  32.576  33.925  0.00  0.00     0.000 A 
ATOM     24  C   UNL d   1     -47.731  32.979  33.840  0.00  0.00     0.000 A 
ATOM     25  C   UNL d   1     -48.428  32.646  34.140  0.00  0.00     0.000 A 
ATOM     26  C   UNL d   1     -48.422  31.923  34.522  0.00  0.00     0.000 A 
ENDBRANCH  20  21
ENDBRANCH  18  20
ENDBRANCH   4  17
TORSDOF 4
ENDMDL
