MODEL 1
REMARK VINA RESULT:      -9.6      0.000      0.000
REMARK  4 active torsions:
REMARK  status: ('A' for Active; 'I' for Inactive)
REMARK    1  A    between atoms: C_3  and  C_14 
REMARK    2  A    between atoms: C_21  and  C_4 
REMARK    3  A    between atoms: S_15  and  C_5 
REMARK    4  A    between atoms: C_14  and  S_15 
ROOT
ATOM      1  C   UNL d   1      52.686  34.010  53.628  0.00  0.00     0.092 A 
ATOM      2  C   UNL d   1      53.263  32.708  53.626  0.00  0.00     0.057 A 
ATOM      3  C   UNL d   1      53.313  33.507  53.812  0.00  0.00     0.016 A 
ATOM      4  C   UNL d   1      52.011  33.709  53.259  0.00  0.00     0.120 A 
ATOM      5  N   UNL d   1      51.957  32.917  53.073  0.00  0.00    -0.239 NA
ATOM      6  C   UNL d   1      52.588  32.408  53.257  0.00  0.00     0.081 A 
ATOM      7  C   UNL d   1      53.892  32.202  53.810  0.00  0.00     0.193 A 
ATOM      8  C   UNL d   1      52.735  34.812  53.814  0.00  0.00     0.103 C 
ATOM      9  N   UNL d   1      52.783  35.615  53.999  0.00  0.00    -0.191 NA
ATOM     10  C   UNL d   1      53.162  31.096  53.252  0.00  0.00     0.042 A 
ATOM     11  C   UNL d   1      53.849  31.393  53.626  0.00  0.00     0.019 A 
ATOM     12  C   UNL d   1      52.530  31.600  53.067  0.00  0.00    -0.003 A 
ATOM     13  O   UNL d   1      54.568  32.503  54.180  0.00  0.00    -0.287 OA
ATOM     14  C   UNL d   1      52.605  30.606  52.899  0.00  0.00     0.009 C 
ATOM     15  C   UNL d   1      53.795  30.597  53.440  0.00  0.00     0.009 C 
ENDROOT
BRANCH   3  16
ATOM     16  C   UNL d   1      53.989  33.807  54.181  0.00  0.00     0.001 C 
ATOM     17  C   UNL d   1      54.034  33.802  54.999  0.00  0.00     0.000 C 
ENDBRANCH   3  16
BRANCH   4  18
ATOM     18  S   UNL d   1      51.386  34.216  53.077  0.00  0.00    -0.067 SA
BRANCH  18  19
ATOM     19  C   UNL d   1      50.667  33.902  52.822  0.00  0.00     0.041 C 
BRANCH  19  20
ATOM     20  C   UNL d   1      50.051  34.403  52.601  0.00  0.00     0.051 A 
ATOM     21  C   UNL d   1      49.619  34.840  53.024  0.00  0.00     0.127 A 
ATOM     22  O   UNL d   1      49.055  35.273  52.646  0.00  0.00    -0.211 OA
ATOM     23  C   UNL d   1      49.399  35.129  53.680  0.00  0.00     0.029 C 
ATOM     24  N   UNL d   1      49.169  35.058  51.868  0.00  0.00    -0.126 NA
ATOM     25  C   UNL d   1      49.783  34.521  51.834  0.00  0.00     0.111 A 
ATOM     26  C   UNL d   1      50.080  34.163  51.160  0.00  0.00     0.023 C 
ENDBRANCH  19  20
ENDBRANCH  18  19
ENDBRANCH   4  18
TORSDOF 4
ENDMDL
MODEL 2
REMARK VINA RESULT:      -8.3      1.765      4.177
REMARK  4 active torsions:
REMARK  status: ('A' for Active; 'I' for Inactive)
REMARK    1  A    between atoms: C_3  and  C_14 
REMARK    2  A    between atoms: C_21  and  C_4 
REMARK    3  A    between atoms: S_15  and  C_5 
REMARK    4  A    between atoms: C_14  and  S_15 
ROOT
ATOM      1  C   UNL d   1      53.326  33.005  53.859  0.00  0.00     0.092 A 
ATOM      2  C   UNL d   1      52.275  33.889  53.482  0.00  0.00     0.057 A 
ATOM      3  C   UNL d   1      53.029  33.771  53.788  0.00  0.00     0.016 A 
ATOM      4  C   UNL d   1      52.867  32.361  53.622  0.00  0.00     0.120 A 
ATOM      5  N   UNL d   1      52.119  32.473  53.318  0.00  0.00    -0.239 NA
ATOM      6  C   UNL d   1      51.816  33.244  53.246  0.00  0.00     0.081 A 
ATOM      7  C   UNL d   1      51.975  34.657  53.410  0.00  0.00     0.193 A 
ATOM      8  C   UNL d   1      54.082  32.885  54.165  0.00  0.00     0.103 C 
ATOM      9  N   UNL d   1      54.839  32.764  54.472  0.00  0.00    -0.191 NA
ATOM     10  C   UNL d   1      50.755  34.127  52.865  0.00  0.00     0.042 A 
ATOM     11  C   UNL d   1      51.214  34.784  53.102  0.00  0.00     0.019 A 
ATOM     12  C   UNL d   1      51.052  33.356  52.935  0.00  0.00    -0.003 A 
ATOM     13  O   UNL d   1      52.435  35.302  53.647  0.00  0.00    -0.287 OA
ATOM     14  C   UNL d   1      50.152  33.647  52.581  0.00  0.00     0.009 C 
ATOM     15  C   UNL d   1      50.463  34.898  52.797  0.00  0.00     0.009 C 
ENDROOT
BRANCH   3  16
ATOM     16  C   UNL d   1      53.488  34.416  54.024  0.00  0.00     0.001 C 
ATOM     17  C   UNL d   1      53.439  34.681  54.798  0.00  0.00     0.000 C 
ENDBRANCH   3  16
BRANCH   4  18
ATOM     18  S   UNL d   1      53.169  31.596  53.695  0.00  0.00    -0.067 SA
BRANCH  18  19
ATOM     19  C   UNL d   1      52.671  30.948  53.580  0.00  0.00     0.041 C 
BRANCH  19  20
ATOM     20  C   UNL d   1      52.956  30.182  53.689  0.00  0.00     0.051 A 
ATOM     21  C   UNL d   1      53.074  29.805  54.321  0.00  0.00     0.127 A 
ATOM     22  O   UNL d   1      53.359  29.055  54.252  0.00  0.00    -0.211 OA
ATOM     23  C   UNL d   1      53.071  29.734  55.068  0.00  0.00     0.029 C 
ATOM     24  N   UNL d   1      53.422  28.972  53.444  0.00  0.00    -0.126 NA
ATOM     25  C   UNL d   1      53.174  29.664  53.091  0.00  0.00     0.111 A 
ATOM     26  C   UNL d   1      53.147  29.819  52.287  0.00  0.00     0.023 C 
ENDBRANCH  19  20
ENDBRANCH  18  19
ENDBRANCH   4  18
TORSDOF 4
ENDMDL
MODEL 3
REMARK VINA RESULT:      -8.0      2.010      4.226
REMARK  4 active torsions:
REMARK  status: ('A' for Active; 'I' for Inactive)
REMARK    1  A    between atoms: C_3  and  C_14 
REMARK    2  A    between atoms: C_21  and  C_4 
REMARK    3  A    between atoms: S_15  and  C_5 
REMARK    4  A    between atoms: C_14  and  S_15 
ROOT
ATOM      1  C   UNL d   1      52.455  32.840  53.641  0.00  0.00     0.092 A 
ATOM      2  C   UNL d   1      53.346  33.762  54.259  0.00  0.00     0.057 A 
ATOM      3  C   UNL d   1      52.635  33.609  53.878  0.00  0.00     0.016 A 
ATOM      4  C   UNL d   1      52.990  32.228  53.787  0.00  0.00     0.120 A 
ATOM      5  N   UNL d   1      53.697  32.375  54.166  0.00  0.00    -0.239 NA
ATOM      6  C   UNL d   1      53.881  33.149  54.406  0.00  0.00     0.081 A 
ATOM      7  C   UNL d   1      53.528  34.534  54.498  0.00  0.00     0.193 A 
ATOM      8  C   UNL d   1      51.742  32.684  53.258  0.00  0.00     0.103 C 
ATOM      9  N   UNL d   1      51.028  32.528  52.874  0.00  0.00    -0.191 NA
ATOM     10  C   UNL d   1      54.782  34.072  55.029  0.00  0.00     0.042 A 
ATOM     11  C   UNL d   1      54.245  34.697  54.884  0.00  0.00     0.019 A 
ATOM     12  C   UNL d   1      54.603  33.298  54.792  0.00  0.00    -0.003 A 
ATOM     13  O   UNL d   1      52.992  35.146  54.351  0.00  0.00    -0.287 OA
ATOM     14  C   UNL d   1      55.432  33.629  55.265  0.00  0.00     0.009 C 
ATOM     15  C   UNL d   1      54.955  34.846  55.264  0.00  0.00     0.009 C 
ENDROOT
BRANCH   3  16
ATOM     16  C   UNL d   1      52.100  34.221  53.731  0.00  0.00     0.001 C 
ATOM     17  C   UNL d   1      52.133  34.619  53.015  0.00  0.00     0.000 C 
ENDBRANCH   3  16
BRANCH   4  18
ATOM     18  S   UNL d   1      52.806  31.459  53.548  0.00  0.00    -0.067 SA
BRANCH  18  19
ATOM     19  C   UNL d   1      53.386  30.873  53.580  0.00  0.00     0.041 C 
BRANCH  19  20
ATOM     20  C   UNL d   1      53.169  30.077  53.606  0.00  0.00     0.051 A 
ATOM     21  C   UNL d   1      53.087  29.627  54.194  0.00  0.00     0.127 A 
ATOM     22  O   UNL d   1      52.868  28.867  54.044  0.00  0.00    -0.211 OA
ATOM     23  C   UNL d   1      53.098  29.478  54.929  0.00  0.00     0.029 C 
ATOM     24  N   UNL d   1      52.810  28.864  53.232  0.00  0.00    -0.126 NA
ATOM     25  C   UNL d   1      52.995  29.609  52.956  0.00  0.00     0.111 A 
ATOM     26  C   UNL d   1      53.005  29.849  52.173  0.00  0.00     0.023 C 
ENDBRANCH  19  20
ENDBRANCH  18  19
ENDBRANCH   4  18
TORSDOF 4
ENDMDL
MODEL 4
REMARK VINA RESULT:      -7.3      0.853      2.460
REMARK  4 active torsions:
REMARK  status: ('A' for Active; 'I' for Inactive)
REMARK    1  A    between atoms: C_3  and  C_14 
REMARK    2  A    between atoms: C_21  and  C_4 
REMARK    3  A    between atoms: S_15  and  C_5 
REMARK    4  A    between atoms: C_14  and  S_15 
ROOT
ATOM      1  C   UNL d   1      52.730  32.522  53.272  0.00  0.00     0.092 A 
ATOM      2  C   UNL d   1      53.773  32.964  54.135  0.00  0.00     0.057 A 
ATOM      3  C   UNL d   1      53.429  32.370  53.681  0.00  0.00     0.016 A 
ATOM      4  C   UNL d   1      52.378  33.267  53.320  0.00  0.00     0.120 A 
ATOM      5  N   UNL d   1      52.714  33.859  53.769  0.00  0.00    -0.239 NA
ATOM      6  C   UNL d   1      53.420  33.709  54.182  0.00  0.00     0.081 A 
ATOM      7  C   UNL d   1      54.475  32.813  54.546  0.00  0.00     0.193 A 
ATOM      8  C   UNL d   1      52.385  31.928  52.816  0.00  0.00     0.103 C 
ATOM      9  N   UNL d   1      52.038  31.334  52.359  0.00  0.00    -0.191 NA
ATOM     10  C   UNL d   1      54.466  34.159  55.051  0.00  0.00     0.042 A 
ATOM     11  C   UNL d   1      54.828  33.407  55.008  0.00  0.00     0.019 A 
ATOM     12  C   UNL d   1      53.762  34.314  54.640  0.00  0.00    -0.003 A 
ATOM     13  O   UNL d   1      54.828  32.066  54.498  0.00  0.00    -0.287 OA
ATOM     14  C   UNL d   1      54.290  34.941  55.231  0.00  0.00     0.009 C 
ATOM     15  C   UNL d   1      55.167  34.000  55.459  0.00  0.00     0.009 C 
ENDROOT
BRANCH   3  16
ATOM     16  C   UNL d   1      53.783  31.625  53.634  0.00  0.00     0.001 C 
ATOM     17  C   UNL d   1      53.528  31.029  54.134  0.00  0.00     0.000 C 
ENDBRANCH   3  16
BRANCH   4  18
ATOM     18  S   UNL d   1      51.677  33.414  52.908  0.00  0.00    -0.067 SA
BRANCH  18  19
ATOM     19  C   UNL d   1      51.376  34.182  52.877  0.00  0.00     0.041 C 
BRANCH  19  20
ATOM     20  C   UNL d   1      50.660  34.331  52.496  0.00  0.00     0.051 A 
ATOM     21  C   UNL d   1      50.500  34.329  51.768  0.00  0.00     0.127 A 
ATOM     22  O   UNL d   1      49.741  34.498  51.560  0.00  0.00    -0.211 OA
ATOM     23  C   UNL d   1      50.679  34.248  51.044  0.00  0.00     0.029 C 
ATOM     24  N   UNL d   1      49.389  34.620  52.285  0.00  0.00    -0.126 NA
ATOM     25  C   UNL d   1      49.952  34.518  52.866  0.00  0.00     0.111 A 
ATOM     26  C   UNL d   1      49.836  34.589  53.674  0.00  0.00     0.023 C 
ENDBRANCH  19  20
ENDBRANCH  18  19
ENDBRANCH   4  18
TORSDOF 4
ENDMDL
