MODEL 1
REMARK VINA RESULT:      -0.1      0.000      0.000
REMARK  5 active torsions:
REMARK  status: ('A' for Active; 'I' for Inactive)
REMARK    1  A    between atoms: C_10  and  C_3 
REMARK    2  A    between atoms: N_9  and  C_4 
REMARK    3  A    between atoms: C_16  and  N_12 
REMARK    4  A    between atoms: O_21  and  C_15 
REMARK    5  A    between atoms: C_20  and  C_16 
ROOT
ATOM      1  N   UNL d   1      32.870  18.652 -22.875  0.00  0.00    -0.196 N 
ATOM      2  C   UNL d   1      32.731  18.090 -23.458  0.00  0.00     0.167 A 
ATOM      3  C   UNL d   1      32.847  17.331 -23.311  0.00  0.00     0.057 A 
ATOM      4  C   UNL d   1      32.740  19.426 -23.058  0.00  0.00     0.152 A 
ATOM      5  N   UNL d   1      33.241  17.649 -22.013  0.00  0.00    -0.163 NA
ATOM      6  C   UNL d   1      33.106  17.103 -22.579  0.00  0.00     0.104 A 
ATOM      7  N   UNL d   1      32.471  18.335 -24.190  0.00  0.00    -0.227 NA
ATOM      8  C   UNL d   1      32.488  19.657 -23.770  0.00  0.00     0.057 A 
ATOM      9  C   UNL d   1      32.351  19.103 -24.345  0.00  0.00     0.086 A 
ATOM     10  C   UNL d   1      33.232  16.299 -22.414  0.00  0.00     0.023 C 
ATOM     11  C   UNL d   1      32.084  19.347 -25.096  0.00  0.00     0.021 C 
ENDROOT
BRANCH   4  12
ATOM     12  N   UNL d   1      32.882  20.000 -22.462  0.00  0.00    -0.286 N 
ATOM     13  C   UNL d   1      32.863  20.713 -22.876  0.00  0.00     0.101 A 
ATOM     14  C   UNL d   1      32.982  21.434 -22.475  0.00  0.00     0.100 A 
ATOM     15  N   UNL d   1      33.122  21.448 -21.655  0.00  0.00    -0.300 N 
ATOM     16  C   UNL d   1      33.142  20.727 -21.233  0.00  0.00     0.100 A 
ATOM     17  C   UNL d   1      33.023  19.996 -21.631  0.00  0.00     0.101 A 
BRANCH  15  18
ATOM     18  C   UNL d   1      33.241  22.181 -21.261  0.00  0.00     0.080 C 
BRANCH  18  19
ATOM     19  C   UNL d   1      32.577  22.599 -20.967  0.00  0.00     0.018 A 
ATOM     20  C   UNL d   1      32.296  23.270 -21.373  0.00  0.00     0.002 A 
ATOM     21  C   UNL d   1      31.633  23.687 -21.079  0.00  0.00     0.000 A 
ATOM     22  C   UNL d   1      31.265  23.425 -20.386  0.00  0.00     0.000 A 
ATOM     23  C   UNL d   1      31.548  22.752 -19.979  0.00  0.00     0.000 A 
ATOM     24  C   UNL d   1      32.206  22.344 -20.277  0.00  0.00     0.002 A 
ENDBRANCH  18  19
ENDBRANCH  15  18
ENDBRANCH   4  12
BRANCH   3  25
ATOM     25  C   UNL d   1      32.711  16.780 -23.882  0.00  0.00     0.027 A 
ATOM     26  C   UNL d   1      32.034  16.337 -23.869  0.00  0.00     0.094 A 
ATOM     27  C   UNL d   1      31.899  15.789 -24.437  0.00  0.00     0.024 A 
ATOM     28  C   UNL d   1      32.440  15.683 -25.020  0.00  0.00     0.002 A 
ATOM     29  C   UNL d   1      33.107  16.123 -25.028  0.00  0.00     0.000 A 
ATOM     30  C   UNL d   1      33.240  16.662 -24.469  0.00  0.00     0.002 A 
BRANCH  26  31
ATOM     31  O   UNL d   1      31.478  16.455 -23.258  0.00  0.00    -0.328 OA
ATOM     32  C   UNL d   1      30.665  16.307 -23.402  0.00  0.00     0.181 C 
ENDBRANCH  26  31
ENDBRANCH   3  25
TORSDOF 5
ENDMDL
MODEL 2
REMARK VINA RESULT:       1.3      1.879      3.335
REMARK  5 active torsions:
REMARK  status: ('A' for Active; 'I' for Inactive)
REMARK    1  A    between atoms: C_10  and  C_3 
REMARK    2  A    between atoms: N_9  and  C_4 
REMARK    3  A    between atoms: C_16  and  N_12 
REMARK    4  A    between atoms: O_21  and  C_15 
REMARK    5  A    between atoms: C_20  and  C_16 
ROOT
ATOM      1  N   UNL d   1      30.474  17.892 -23.958  0.00  0.00    -0.196 N 
ATOM      2  C   UNL d   1      29.982  17.256 -24.128  0.00  0.00     0.167 A 
ATOM      3  C   UNL d   1      29.209  17.316 -24.026  0.00  0.00     0.057 A 
ATOM      4  C   UNL d   1      31.267  17.798 -24.074  0.00  0.00     0.152 A 
ATOM      5  N   UNL d   1      29.375  18.627 -23.584  0.00  0.00    -0.163 NA
ATOM      6  C   UNL d   1      28.897  18.010 -23.750  0.00  0.00     0.104 A 
ATOM      7  N   UNL d   1      30.311  16.565 -24.405  0.00  0.00    -0.227 NA
ATOM      8  C   UNL d   1      31.579  17.124 -24.343  0.00  0.00     0.057 A 
ATOM      9  C   UNL d   1      31.094  16.498 -24.511  0.00  0.00     0.086 A 
ATOM     10  C   UNL d   1      28.078  18.082 -23.638  0.00  0.00     0.023 C 
ATOM     11  C   UNL d   1      31.423  15.786 -24.795  0.00  0.00     0.021 C 
ENDROOT
BRANCH   4  12
ATOM     12  N   UNL d   1      31.769  18.447 -23.899  0.00  0.00    -0.286 N 
ATOM     13  C   UNL d   1      31.914  18.364 -23.092  0.00  0.00     0.101 A 
ATOM     14  C   UNL d   1      32.402  18.912 -22.696  0.00  0.00     0.100 A 
ATOM     15  N   UNL d   1      32.748  19.549 -23.104  0.00  0.00    -0.300 N 
ATOM     16  C   UNL d   1      32.602  19.635 -23.922  0.00  0.00     0.100 A 
ATOM     17  C   UNL d   1      32.112  19.087 -24.328  0.00  0.00     0.101 A 
BRANCH  15  18
ATOM     18  C   UNL d   1      33.238  20.095 -22.693  0.00  0.00     0.080 C 
BRANCH  18  19
ATOM     19  C   UNL d   1      32.885  20.648 -22.172  0.00  0.00     0.018 A 
ATOM     20  C   UNL d   1      32.721  20.431 -21.386  0.00  0.00     0.002 A 
ATOM     21  C   UNL d   1      32.369  20.984 -20.866  0.00  0.00     0.000 A 
ATOM     22  C   UNL d   1      32.188  21.742 -21.143  0.00  0.00     0.000 A 
ATOM     23  C   UNL d   1      32.353  21.959 -21.933  0.00  0.00     0.000 A 
ATOM     24  C   UNL d   1      32.702  21.405 -22.442  0.00  0.00     0.002 A 
ENDBRANCH  18  19
ENDBRANCH  15  18
ENDBRANCH   4  12
BRANCH   3  25
ATOM     25  C   UNL d   1      28.727  16.694 -24.193  0.00  0.00     0.027 A 
ATOM     26  C   UNL d   1      28.524  16.167 -23.613  0.00  0.00     0.094 A 
ATOM     27  C   UNL d   1      28.045  15.548 -23.780  0.00  0.00     0.024 A 
ATOM     28  C   UNL d   1      27.767  15.453 -24.527  0.00  0.00     0.002 A 
ATOM     29  C   UNL d   1      27.970  15.976 -25.096  0.00  0.00     0.000 A 
ATOM     30  C   UNL d   1      28.442  16.585 -24.932  0.00  0.00     0.002 A 
BRANCH  26  31
ATOM     31  O   UNL d   1      28.818  16.274 -22.840  0.00  0.00    -0.328 OA
ATOM     32  C   UNL d   1      28.738  15.659 -22.275  0.00  0.00     0.181 C 
ENDBRANCH  26  31
ENDBRANCH   3  25
TORSDOF 5
ENDMDL
