MODEL 1
REMARK VINA RESULT:      22.1      0.000      0.000
REMARK  4 active torsions:
REMARK  status: ('A' for Active; 'I' for Inactive)
REMARK    1  A    between atoms: C_2  and  S_1 
REMARK    2  A    between atoms: N_5  and  S_1 
REMARK    3  A    between atoms: C_11  and  C_4 
REMARK    4  A    between atoms: C_9  and  N_5 
ROOT
ATOM      1  S   UNL d   1      45.821 -16.486  44.079  0.00  0.00     0.287 S 
ATOM      2  O   UNL d   1      46.187 -16.575  44.819  0.00  0.00    -0.198 OA
ATOM      3  O   UNL d   1      45.457 -16.406  43.326  0.00  0.00    -0.198 OA
ENDROOT
BRANCH   1   4
ATOM      4  C   UNL d   1      45.432 -15.796  44.325  0.00  0.00     0.125 A 
ATOM      5  C   UNL d   1      45.780 -15.060  44.175  0.00  0.00     0.121 A 
ATOM      6  N   UNL d   1      46.481 -14.838  43.809  0.00  0.00    -0.190 NA
ATOM      7  C   UNL d   1      45.391 -14.367  44.422  0.00  0.00     0.110 A 
ATOM      8  S   UNL d   1      46.535 -14.023  43.823  0.00  0.00     0.117 SA
ATOM      9  N   UNL d   1      45.861 -13.733  44.201  0.00  0.00    -0.190 NA
ATOM     10  C   UNL d   1      44.671 -14.414  44.807  0.00  0.00     0.021 A 
ATOM     11  C   UNL d   1      44.326 -15.155  44.954  0.00  0.00     0.002 A 
ATOM     12  C   UNL d   1      44.712 -15.842  44.710  0.00  0.00     0.015 A 
ENDBRANCH   1   4
BRANCH   1  13
ATOM     13  N   UNL d   1      46.211 -17.175  43.836  0.00  0.00    -0.158 NA
BRANCH  13  14
ATOM     14  C   UNL d   1      46.238 -17.749  43.933  0.00  0.00     0.100 A 
ATOM     15  C   UNL d   1      46.149 -18.355  43.311  0.00  0.00     0.083 A 
ATOM     16  C   UNL d   1      46.211 -19.120  43.595  0.00  0.00     0.014 A 
ATOM     17  C   UNL d   1      46.345 -19.321  44.399  0.00  0.00     0.035 A 
ATOM     18  C   UNL d   1      46.424 -18.719  44.955  0.00  0.00     0.008 A 
ATOM     19 BR   UNL d   1      46.399 -20.126  44.627  0.00  0.00    -0.049 Br
ATOM     20  C   UNL d   1      46.366 -17.904  44.700  0.00  0.00     0.021 A 
BRANCH  15  21
ATOM     21  C   UNL d   1      46.018 -18.169  42.526  0.00  0.00     0.212 C 
ATOM     22  O   UNL d   1      46.641 -17.834  42.056  0.00  0.00    -0.644 OA
ATOM     23  O   UNL d   1      45.278 -18.306  42.192  0.00  0.00    -0.644 OA
ENDBRANCH  15  21
ENDBRANCH  13  14
ENDBRANCH   1  13
TORSDOF 4
ENDMDL
MODEL 2
REMARK VINA RESULT:      24.8      1.357      1.949
REMARK  4 active torsions:
REMARK  status: ('A' for Active; 'I' for Inactive)
REMARK    1  A    between atoms: C_2  and  S_1 
REMARK    2  A    between atoms: N_5  and  S_1 
REMARK    3  A    between atoms: C_11  and  C_4 
REMARK    4  A    between atoms: C_9  and  N_5 
ROOT
ATOM      1  S   UNL d   1      45.985 -16.413  44.109  0.00  0.00     0.287 S 
ATOM      2  O   UNL d   1      45.522 -16.364  43.421  0.00  0.00    -0.198 OA
ATOM      3  O   UNL d   1      46.454 -16.475  44.802  0.00  0.00    -0.198 OA
ENDROOT
BRANCH   1   4
ATOM      4  C   UNL d   1      45.949 -15.592  44.223  0.00  0.00     0.125 A 
ATOM      5  C   UNL d   1      45.248 -15.254  44.504  0.00  0.00     0.121 A 
ATOM      6  N   UNL d   1      44.519 -15.570  44.713  0.00  0.00    -0.190 NA
ATOM      7  C   UNL d   1      45.211 -14.430  44.619  0.00  0.00     0.110 A 
ATOM      8  S   UNL d   1      44.031 -14.962  44.954  0.00  0.00     0.117 SA
ATOM      9  N   UNL d   1      44.459 -14.258  44.896  0.00  0.00    -0.190 NA
ATOM     10  C   UNL d   1      45.861 -13.962  44.456  0.00  0.00     0.021 A 
ATOM     11  C   UNL d   1      46.561 -14.307  44.175  0.00  0.00     0.002 A 
ATOM     12  C   UNL d   1      46.599 -15.123  44.060  0.00  0.00     0.015 A 
ENDBRANCH   1   4
BRANCH   1  13
ATOM     13  N   UNL d   1      46.019 -17.232  43.992  0.00  0.00    -0.158 NA
BRANCH  13  14
ATOM     14  C   UNL d   1      46.135 -17.636  43.589  0.00  0.00     0.100 A 
ATOM     15  C   UNL d   1      46.189 -18.492  43.757  0.00  0.00     0.083 A 
ATOM     16  C   UNL d   1      46.358 -18.941  43.094  0.00  0.00     0.014 A 
ATOM     17  C   UNL d   1      46.472 -18.628  42.322  0.00  0.00     0.035 A 
ATOM     18  C   UNL d   1      46.412 -17.816  42.207  0.00  0.00     0.008 A 
ATOM     19 BR   UNL d   1      46.643 -19.142  41.682  0.00  0.00    -0.049 Br
ATOM     20  C   UNL d   1      46.237 -17.310  42.874  0.00  0.00     0.021 A 
BRANCH  15  21
ATOM     21  C   UNL d   1      46.081 -18.805  44.504  0.00  0.00     0.212 C 
ATOM     22  O   UNL d   1      45.389 -18.605  44.954  0.00  0.00    -0.644 OA
ATOM     23  O   UNL d   1      46.644 -19.316  44.818  0.00  0.00    -0.644 OA
ENDBRANCH  15  21
ENDBRANCH  13  14
ENDBRANCH   1  13
TORSDOF 4
ENDMDL
