MODEL 1
REMARK VINA RESULT:       8.8      0.000      0.000
REMARK  7 active torsions:
REMARK  status: ('A' for Active; 'I' for Inactive)
REMARK    1  A    between atoms: C_14  and  C_4 
REMARK    2  A    between atoms: N_17  and  C_5 
REMARK    3  A    between atoms: C_13  and  C_8 
REMARK    4  A    between atoms: N_11  and  C_18 
REMARK    5  A    between atoms: C_20  and  N_17 
REMARK    6  A    between atoms: C_18  and  C_19 
REMARK    7  A    between atoms: C_19  and  C_20 
ROOT
ATOM      1  C   UNL d   1     -41.593-122.289 -51.110  0.00  0.00     0.168 A 
ATOM      2  N   UNL d   1     -41.483-122.472 -51.920  0.00  0.00    -0.184 N 
ATOM      3  N   UNL d   1     -41.505-121.519 -50.852  0.00  0.00    -0.231 NA
ATOM      4  C   UNL d   1     -41.787-122.873 -50.584  0.00  0.00     0.057 A 
ATOM      5  C   UNL d   1     -41.290-121.875 -52.426  0.00  0.00     0.217 A 
ATOM      6  N   UNL d   1     -41.764-123.814 -51.642  0.00  0.00    -0.160 NA
ATOM      7  C   UNL d   1     -41.199-121.099 -52.178  0.00  0.00     0.067 A 
ATOM      8  C   UNL d   1     -41.308-120.919 -51.380  0.00  0.00     0.064 A 
ATOM      9  C   UNL d   1     -41.873-123.634 -50.844  0.00  0.00     0.124 A 
ENDROOT
BRANCH   5  10
ATOM     10  N   UNL d   1     -41.177-122.061 -53.249  0.00  0.00    -0.380 NA
BRANCH  10  11
ATOM     11  C   UNL d   1     -41.124-122.204 -54.085  0.00  0.00     0.164 C 
BRANCH  11  12
ATOM     12  C   UNL d   1     -41.457-122.905 -54.408  0.00  0.00     0.054 C 
BRANCH  12  13
ATOM     13  C   UNL d   1     -41.635-122.945 -55.233  0.00  0.00     0.084 C 
BRANCH  13  14
ATOM     14  N   UNL d   1     -42.381-122.646 -55.519  0.00  0.00    -0.285 N 
ATOM     15  C   UNL d   1     -42.593-121.832 -55.583  0.00  0.00     0.183 A 
ATOM     16  N   UNL d   1     -43.383-121.794 -55.891  0.00  0.00    -0.222 NA
ATOM     17  C   UNL d   1     -43.654-122.587 -56.015  0.00  0.00     0.120 A 
ATOM     18  C   UNL d   1     -43.034-123.114 -55.785  0.00  0.00     0.102 A 
ENDBRANCH  13  14
ENDBRANCH  12  13
ENDBRANCH  11  12
ENDBRANCH  10  11
ENDBRANCH   5  10
BRANCH   8  19
ATOM     19  C   UNL d   1     -41.217-120.116 -51.106  0.00  0.00     0.036 C 
ATOM     20  C   UNL d   1     -41.128-119.959 -50.270  0.00  0.00     0.006 C 
ATOM     21  C   UNL d   1     -41.127-119.325 -50.831  0.00  0.00     0.006 C 
ATOM     22  C   UNL d   1     -41.216-119.477 -51.668  0.00  0.00     0.006 C 
ENDBRANCH   8  19
BRANCH   4  23
ATOM     23  C   UNL d   1     -41.896-122.693 -49.787  0.00  0.00     0.004 A 
ATOM     24  C   UNL d   1     -41.325-122.889 -49.258  0.00  0.00     0.000 A 
ATOM     25  C   UNL d   1     -41.434-122.709 -48.460  0.00  0.00     0.000 A 
ATOM     26  C   UNL d   1     -42.111-122.338 -48.217  0.00  0.00     0.000 A 
ATOM     27  C   UNL d   1     -42.688-122.141 -48.760  0.00  0.00     0.000 A 
ATOM     28  C   UNL d   1     -42.579-122.322 -49.557  0.00  0.00     0.000 A 
ENDBRANCH   4  23
TORSDOF 7
ENDMDL
