MODEL 1
REMARK VINA RESULT:       1.2      0.000      0.000
REMARK  2 active torsions:
REMARK  status: ('A' for Active; 'I' for Inactive)
REMARK    1  A    between atoms: N_9  and  C_2 
REMARK    2  A    between atoms: C_4  and  N_10 
ROOT
ATOM      1  C   UNL d   1      32.883  21.519 -21.781  0.00  0.00     0.152 A 
ATOM      2  C   UNL d   1      32.842  22.307 -21.538  0.00  0.00     0.174 A 
ATOM      3  C   UNL d   1      33.040  21.339 -22.571  0.00  0.00     0.111 A 
ATOM      4  O   UNL d   1      32.793  20.809 -21.372  0.00  0.00    -0.302 OA
ATOM      5  N   UNL d   1      32.958  22.914 -22.083  0.00  0.00    -0.207 NA
ATOM      6  C   UNL d   1      33.048  20.520 -22.651  0.00  0.00     0.043 A 
ATOM      7  N   UNL d   1      33.156  21.947 -23.116  0.00  0.00    -0.225 NA
ATOM      8  C   UNL d   1      32.895  20.191 -21.908  0.00  0.00     0.102 A 
ATOM      9  C   UNL d   1      33.115  22.734 -22.871  0.00  0.00     0.164 A 
ATOM     10  C   UNL d   1      33.174  20.029 -23.301  0.00  0.00     0.004 A 
ATOM     11  C   UNL d   1      32.869  19.370 -21.818  0.00  0.00     0.025 A 
ATOM     12  C   UNL d   1      33.231  23.342 -23.416  0.00  0.00     0.042 C 
ATOM     13  C   UNL d   1      33.147  19.208 -23.210  0.00  0.00     0.000 A 
ATOM     14  C   UNL d   1      32.994  18.880 -22.468  0.00  0.00     0.002 A 
ENDROOT
BRANCH   2  15
ATOM     15  N   UNL d   1      32.685  22.485 -20.747  0.00  0.00    -0.285 N 
ATOM     16  C   UNL d   1      32.028  22.946 -20.553  0.00  0.00     0.101 A 
ATOM     17  C   UNL d   1      31.870  23.124 -19.762  0.00  0.00     0.117 A 
ATOM     18  N   UNL d   1      32.368  22.842 -19.168  0.00  0.00    -0.135 N 
ATOM     19  C   UNL d   1      33.023  22.382 -19.363  0.00  0.00     0.117 A 
ATOM     20  C   UNL d   1      33.182  22.203 -20.153  0.00  0.00     0.101 A 
BRANCH  18  21
ATOM     21  C   UNL d   1      32.209  23.021 -18.378  0.00  0.00     0.735 A 
ATOM     22  N   UNL d   1      31.456  23.272 -18.155  0.00  0.00    -0.060 NA
ATOM     23  C   UNL d   1      31.296  23.451 -17.368  0.00  0.00     0.101 A 
ATOM     24  C   UNL d   1      30.542  23.702 -17.145  0.00  0.00     0.021 C 
ATOM     25  C   UNL d   1      31.891  23.379 -16.799  0.00  0.00     0.040 A 
ATOM     26  C   UNL d   1      32.644  23.128 -17.021  0.00  0.00     0.101 A 
ATOM     27  N   UNL d   1      32.804  22.948 -17.811  0.00  0.00    -0.060 NA
ATOM     28  C   UNL d   1      33.239  23.055 -16.454  0.00  0.00     0.021 C 
ENDBRANCH  18  21
ENDBRANCH   2  15
TORSDOF 2
ENDMDL
MODEL 2
REMARK VINA RESULT:       1.8      1.741      2.963
REMARK  2 active torsions:
REMARK  status: ('A' for Active; 'I' for Inactive)
REMARK    1  A    between atoms: N_9  and  C_2 
REMARK    2  A    between atoms: C_4  and  N_10 
ROOT
ATOM      1  C   UNL d   1      33.144  18.793 -22.837  0.00  0.00     0.152 A 
ATOM      2  C   UNL d   1      33.139  19.613 -22.925  0.00  0.00     0.174 A 
ATOM      3  C   UNL d   1      33.141  18.307 -23.503  0.00  0.00     0.111 A 
ATOM      4  O   UNL d   1      33.153  18.309 -22.169  0.00  0.00    -0.302 OA
ATOM      5  N   UNL d   1      33.130  19.948 -23.678  0.00  0.00    -0.207 NA
ATOM      6  C   UNL d   1      33.147  17.523 -23.249  0.00  0.00     0.043 A 
ATOM      7  N   UNL d   1      33.132  18.641 -24.257  0.00  0.00    -0.225 NA
ATOM      8  C   UNL d   1      33.155  17.524 -22.423  0.00  0.00     0.102 A 
ATOM      9  C   UNL d   1      33.127  19.462 -24.344  0.00  0.00     0.164 A 
ATOM     10  C   UNL d   1      33.148  16.809 -23.661  0.00  0.00     0.004 A 
ATOM     11  C   UNL d   1      33.162  16.809 -22.010  0.00  0.00     0.025 A 
ATOM     12  C   UNL d   1      33.118  19.797 -25.097  0.00  0.00     0.042 C 
ATOM     13  C   UNL d   1      33.155  16.094 -23.247  0.00  0.00     0.000 A 
ATOM     14  C   UNL d   1      33.163  16.095 -22.421  0.00  0.00     0.002 A 
ENDROOT
BRANCH   2  15
ATOM     15  N   UNL d   1      33.142  20.098 -22.257  0.00  0.00    -0.285 N 
ATOM     16  C   UNL d   1      33.117  20.919 -22.344  0.00  0.00     0.101 A 
ATOM     17  C   UNL d   1      33.121  21.404 -21.677  0.00  0.00     0.117 A 
ATOM     18  N   UNL d   1      33.149  21.069 -20.923  0.00  0.00    -0.135 N 
ATOM     19  C   UNL d   1      33.174  20.250 -20.837  0.00  0.00     0.117 A 
ATOM     20  C   UNL d   1      33.171  19.764 -21.503  0.00  0.00     0.101 A 
BRANCH  18  21
ATOM     21  C   UNL d   1      33.152  21.555 -20.256  0.00  0.00     0.735 A 
ATOM     22  N   UNL d   1      33.127  22.375 -20.343  0.00  0.00    -0.060 NA
ATOM     23  C   UNL d   1      33.130  22.862 -19.679  0.00  0.00     0.101 A 
ATOM     24  C   UNL d   1      33.105  23.682 -19.766  0.00  0.00     0.021 C 
ATOM     25  C   UNL d   1      33.159  22.529 -18.923  0.00  0.00     0.040 A 
ATOM     26  C   UNL d   1      33.184  21.709 -18.836  0.00  0.00     0.101 A 
ATOM     27  N   UNL d   1      33.181  21.222 -19.503  0.00  0.00    -0.060 NA
ATOM     28  C   UNL d   1      33.213  21.376 -18.082  0.00  0.00     0.021 C 
ENDBRANCH  18  21
ENDBRANCH   2  15
TORSDOF 2
ENDMDL
MODEL 3
REMARK VINA RESULT:       3.8      1.111      2.051
REMARK  2 active torsions:
REMARK  status: ('A' for Active; 'I' for Inactive)
REMARK    1  A    between atoms: N_9  and  C_2 
REMARK    2  A    between atoms: C_4  and  N_10 
ROOT
ATOM      1  C   UNL d   1      32.820  21.273 -22.269  0.00  0.00     0.152 A 
ATOM      2  C   UNL d   1      32.719  20.837 -21.576  0.00  0.00     0.174 A 
ATOM      3  C   UNL d   1      32.940  20.885 -22.986  0.00  0.00     0.111 A 
ATOM      4  O   UNL d   1      32.828  22.085 -22.414  0.00  0.00    -0.302 OA
ATOM      5  N   UNL d   1      32.738  20.013 -21.599  0.00  0.00    -0.207 NA
ATOM      6  C   UNL d   1      33.022  21.454 -23.576  0.00  0.00     0.043 A 
ATOM      7  N   UNL d   1      32.959  20.061 -23.010  0.00  0.00    -0.225 NA
ATOM      8  C   UNL d   1      32.952  22.198 -23.222  0.00  0.00     0.102 A 
ATOM      9  C   UNL d   1      32.858  19.625 -22.316  0.00  0.00     0.164 A 
ATOM     10  C   UNL d   1      33.151  21.395 -24.387  0.00  0.00     0.004 A 
ATOM     11  C   UNL d   1      33.012  22.881 -23.682  0.00  0.00     0.025 A 
ATOM     12  C   UNL d   1      32.878  18.801 -22.340  0.00  0.00     0.042 C 
ATOM     13  C   UNL d   1      33.210  22.079 -24.847  0.00  0.00     0.000 A 
ATOM     14  C   UNL d   1      33.141  22.822 -24.493  0.00  0.00     0.002 A 
ENDROOT
BRANCH   2  15
ATOM     15  N   UNL d   1      32.599  21.227 -20.858  0.00  0.00    -0.285 N 
ATOM     16  C   UNL d   1      31.835  21.301 -20.554  0.00  0.00     0.101 A 
ATOM     17  C   UNL d   1      31.714  21.691 -19.836  0.00  0.00     0.117 A 
ATOM     18  N   UNL d   1      32.356  22.007 -19.424  0.00  0.00    -0.135 N 
ATOM     19  C   UNL d   1      33.118  21.932 -19.729  0.00  0.00     0.117 A 
ATOM     20  C   UNL d   1      33.240  21.542 -20.446  0.00  0.00     0.101 A 
BRANCH  18  21
ATOM     21  C   UNL d   1      32.235  22.396 -18.707  0.00  0.00     0.735 A 
ATOM     22  N   UNL d   1      31.557  22.853 -18.596  0.00  0.00    -0.060 NA
ATOM     23  C   UNL d   1      31.434  23.243 -17.881  0.00  0.00     0.101 A 
ATOM     24  C   UNL d   1      30.756  23.700 -17.770  0.00  0.00     0.021 C 
ATOM     25  C   UNL d   1      31.990  23.176 -17.273  0.00  0.00     0.040 A 
ATOM     26  C   UNL d   1      32.667  22.719 -17.385  0.00  0.00     0.101 A 
ATOM     27  N   UNL d   1      32.790  22.329 -18.102  0.00  0.00    -0.060 NA
ATOM     28  C   UNL d   1      33.223  22.652 -16.779  0.00  0.00     0.021 C 
ENDBRANCH  18  21
ENDBRANCH   2  15
TORSDOF 2
ENDMDL
