MODEL 1
REMARK VINA RESULT:      -0.8      0.000      0.000
REMARK  7 active torsions:
REMARK  status: ('A' for Active; 'I' for Inactive)
REMARK    1  A    between atoms: S_3  and  N_12 
REMARK    2  A    between atoms: C_16  and  S_3 
REMARK    3  A    between atoms: C_17  and  C_7 
REMARK    4  A    between atoms: O_19  and  C_8 
REMARK    5  A    between atoms: O_20  and  C_11 
REMARK    6  A    between atoms: N_12  and  C_18 
REMARK    7  A    between atoms: C_18  and  C_17 
ROOT
ATOM      1  N   UNL d   1     -41.492-122.243 -50.009  0.00  0.00    -0.206 NA
ATOM      2  C   UNL d   1     -42.695-123.011 -50.051  0.00  0.00     0.042 A 
ATOM      3  C   UNL d   1     -42.015-122.768 -49.651  0.00  0.00     0.109 A 
ATOM      4  C   UNL d   1     -42.855-122.731 -50.810  0.00  0.00     0.008 A 
ATOM      5  C   UNL d   1     -41.646-121.957 -50.773  0.00  0.00     0.279 A 
ATOM      6  C   UNL d   1     -42.325-122.200 -51.173  0.00  0.00     0.060 A 
ATOM      7  C   UNL d   1     -43.219-123.536 -49.692  0.00  0.00     0.096 A 
ATOM      8  C   UNL d   1     -41.860-123.049 -48.893  0.00  0.00     0.112 A 
ATOM      9  O   UNL d   1     -41.123-121.432 -51.132  0.00  0.00    -0.265 OA
ATOM     10  C   UNL d   1     -43.062-123.817 -48.934  0.00  0.00     0.026 A 
ATOM     11  C   UNL d   1     -42.383-123.574 -48.535  0.00  0.00     0.028 A 
ENDROOT
BRANCH   6  12
ATOM     12  C   UNL d   1     -42.481-121.916 -51.934  0.00  0.00     0.026 C 
BRANCH  12  13
ATOM     13  C   UNL d   1     -42.047-122.199 -52.574  0.00  0.00     0.112 C 
BRANCH  13  14
ATOM     14  N   UNL d   1     -42.399-122.247 -53.318  0.00  0.00    -0.157 NA
BRANCH  14  15
ATOM     15  S   UNL d   1     -41.920-122.273 -53.992  0.00  0.00     0.286 S 
ATOM     16  O   UNL d   1     -41.515-122.115 -54.694  0.00  0.00    -0.198 OA
ATOM     17  O   UNL d   1     -42.280-121.532 -54.018  0.00  0.00    -0.198 OA
BRANCH  15  18
ATOM     18  C   UNL d   1     -41.568-123.022 -53.948  0.00  0.00     0.117 C 
ATOM     19  C   UNL d   1     -41.338-123.412 -54.636  0.00  0.00     0.014 C 
ENDBRANCH  15  18
ENDBRANCH  14  15
ENDBRANCH  13  14
ENDBRANCH  12  13
ENDBRANCH   6  12
BRANCH   7  20
ATOM     20  O   UNL d   1     -43.892-123.777 -50.088  0.00  0.00    -0.328 OA
ATOM     21  C   UNL d   1     -44.637-123.637 -49.757  0.00  0.00     0.181 C 
ENDBRANCH   7  20
BRANCH   8  22
ATOM     22  O   UNL d   1     -41.180-122.806 -48.494  0.00  0.00    -0.327 OA
ATOM     23  C   UNL d   1     -41.123-122.915 -47.672  0.00  0.00     0.181 C 
ENDBRANCH   8  22
TORSDOF 7
ENDMDL
MODEL 2
REMARK VINA RESULT:      -0.7      1.450      2.526
REMARK  7 active torsions:
REMARK  status: ('A' for Active; 'I' for Inactive)
REMARK    1  A    between atoms: S_3  and  N_12 
REMARK    2  A    between atoms: C_16  and  S_3 
REMARK    3  A    between atoms: C_17  and  C_7 
REMARK    4  A    between atoms: O_19  and  C_8 
REMARK    5  A    between atoms: O_20  and  C_11 
REMARK    6  A    between atoms: N_12  and  C_18 
REMARK    7  A    between atoms: C_18  and  C_17 
ROOT
ATOM      1  N   UNL d   1     -41.714-123.364 -51.810  0.00  0.00    -0.206 NA
ATOM      2  C   UNL d   1     -41.427-122.003 -51.489  0.00  0.00     0.042 A 
ATOM      3  C   UNL d   1     -41.654-122.761 -51.254  0.00  0.00     0.109 A 
ATOM      4  C   UNL d   1     -41.260-121.845 -52.281  0.00  0.00     0.008 A 
ATOM      5  C   UNL d   1     -41.547-123.214 -52.609  0.00  0.00     0.279 A 
ATOM      6  C   UNL d   1     -41.320-122.456 -52.845  0.00  0.00     0.060 A 
ATOM      7  C   UNL d   1     -41.367-121.399 -50.932  0.00  0.00     0.096 A 
ATOM      8  C   UNL d   1     -41.820-122.914 -50.462  0.00  0.00     0.112 A 
ATOM      9  O   UNL d   1     -41.607-123.817 -53.166  0.00  0.00    -0.265 OA
ATOM     10  C   UNL d   1     -41.533-121.553 -50.141  0.00  0.00     0.026 A 
ATOM     11  C   UNL d   1     -41.760-122.311 -49.906  0.00  0.00     0.028 A 
ENDROOT
BRANCH   6  12
ATOM     12  C   UNL d   1     -41.153-122.303 -53.640  0.00  0.00     0.026 C 
BRANCH  12  13
ATOM     13  C   UNL d   1     -41.753-122.049 -54.145  0.00  0.00     0.112 C 
BRANCH  13  14
ATOM     14  N   UNL d   1     -41.637-122.070 -54.960  0.00  0.00    -0.157 NA
BRANCH  14  15
ATOM     15  S   UNL d   1     -42.130-121.620 -55.450  0.00  0.00     0.286 S 
ATOM     16  O   UNL d   1     -42.595-121.034 -55.796  0.00  0.00    -0.198 OA
ATOM     17  O   UNL d   1     -41.959-121.126 -54.813  0.00  0.00    -0.198 OA
BRANCH  15  18
ATOM     18  C   UNL d   1     -42.290-122.132 -56.081  0.00  0.00     0.117 C 
ATOM     19  C   UNL d   1     -43.058-122.208 -56.369  0.00  0.00     0.014 C 
ENDBRANCH  15  18
ENDBRANCH  14  15
ENDBRANCH  13  14
ENDBRANCH  12  13
ENDBRANCH   6  12
BRANCH   7  20
ATOM     20  O   UNL d   1     -41.142-120.649 -51.165  0.00  0.00    -0.328 OA
ATOM     21  C   UNL d   1     -41.123-120.034 -50.612  0.00  0.00     0.181 C 
ENDBRANCH   7  20
BRANCH   8  22
ATOM     22  O   UNL d   1     -42.047-123.672 -50.227  0.00  0.00    -0.327 OA
ATOM     23  C   UNL d   1     -42.359-123.792 -49.467  0.00  0.00     0.181 C 
ENDBRANCH   8  22
TORSDOF 7
ENDMDL
MODEL 3
REMARK VINA RESULT:      -0.6      1.582      4.774
REMARK  7 active torsions:
REMARK  status: ('A' for Active; 'I' for Inactive)
REMARK    1  A    between atoms: S_3  and  N_12 
REMARK    2  A    between atoms: C_16  and  S_3 
REMARK    3  A    between atoms: C_17  and  C_7 
REMARK    4  A    between atoms: O_19  and  C_8 
REMARK    5  A    between atoms: O_20  and  C_11 
REMARK    6  A    between atoms: N_12  and  C_18 
REMARK    7  A    between atoms: C_18  and  C_17 
ROOT
ATOM      1  N   UNL d   1     -41.328-123.377 -53.272  0.00  0.00    -0.206 NA
ATOM      2  C   UNL d   1     -41.723-122.030 -53.531  0.00  0.00     0.042 A 
ATOM      3  C   UNL d   1     -41.527-122.783 -53.805  0.00  0.00     0.109 A 
ATOM      4  C   UNL d   1     -41.720-121.867 -52.722  0.00  0.00     0.008 A 
ATOM      5  C   UNL d   1     -41.323-123.221 -52.456  0.00  0.00     0.279 A 
ATOM      6  C   UNL d   1     -41.518-122.468 -52.182  0.00  0.00     0.060 A 
ATOM      7  C   UNL d   1     -41.923-121.435 -54.065  0.00  0.00     0.096 A 
ATOM      8  C   UNL d   1     -41.532-122.941 -54.614  0.00  0.00     0.112 A 
ATOM      9  O   UNL d   1     -41.123-123.815 -51.922  0.00  0.00    -0.265 OA
ATOM     10  C   UNL d   1     -41.927-121.594 -54.872  0.00  0.00     0.026 A 
ATOM     11  C   UNL d   1     -41.731-122.347 -55.147  0.00  0.00     0.028 A 
ENDROOT
BRANCH   6  12
ATOM     12  C   UNL d   1     -41.514-122.310 -51.370  0.00  0.00     0.026 C 
BRANCH  12  13
ATOM     13  C   UNL d   1     -42.220-122.309 -50.948  0.00  0.00     0.112 C 
BRANCH  13  14
ATOM     14  N   UNL d   1     -42.205-122.324 -50.124  0.00  0.00    -0.157 NA
BRANCH  14  15
ATOM     15  S   UNL d   1     -42.857-122.623 -49.712  0.00  0.00     0.286 S 
ATOM     16  O   UNL d   1     -43.611-122.822 -49.442  0.00  0.00    -0.198 OA
ATOM     17  O   UNL d   1     -43.182-122.185 -50.331  0.00  0.00    -0.198 OA
BRANCH  15  18
ATOM     18  C   UNL d   1     -42.513-123.058 -49.097  0.00  0.00     0.117 C 
ATOM     19  C   UNL d   1     -42.978-123.545 -48.623  0.00  0.00     0.014 C 
ENDBRANCH  15  18
ENDBRANCH  14  15
ENDBRANCH  13  14
ENDBRANCH  12  13
ENDBRANCH   6  12
BRANCH   7  20
ATOM     20  O   UNL d   1     -42.116-120.689 -53.793  0.00  0.00    -0.328 OA
ATOM     21  C   UNL d   1     -42.184-120.061 -54.327  0.00  0.00     0.181 C 
ENDBRANCH   7  20
BRANCH   8  22
ATOM     22  O   UNL d   1     -41.336-123.694 -54.888  0.00  0.00    -0.327 OA
ATOM     23  C   UNL d   1     -41.168-123.809 -55.693  0.00  0.00     0.181 C 
ENDBRANCH   8  22
TORSDOF 7
ENDMDL
