MODEL 1
REMARK VINA RESULT:      -9.9      0.000      0.000
REMARK  2 active torsions:
REMARK  status: ('A' for Active; 'I' for Inactive)
REMARK    1  A    between atoms: C_2  and  C_1 
REMARK       I    between atoms: N_3  and  C_1 
REMARK    2  A    between atoms: C_5  and  N_4 
ROOT
ATOM      1  C   UNL d   1      53.785  32.447  53.969  0.00  0.00     0.267 C 
ATOM      2  N   UNL d   1      53.100  32.799  53.672  0.00  0.00    -0.269 N 
ATOM      3  N   UNL d   1      51.729  33.503  53.079  0.00  0.00    -0.301 N 
ATOM      4  O   UNL d   1      53.942  31.654  53.816  0.00  0.00    -0.267 OA
ATOM      5  C   UNL d   1      52.569  32.359  53.222  0.00  0.00     0.102 A 
ATOM      6  C   UNL d   1      52.943  33.594  53.825  0.00  0.00     0.102 A 
ATOM      7  C   UNL d   1      52.258  33.946  53.529  0.00  0.00     0.100 A 
ATOM      8  C   UNL d   1      51.884  32.711  52.926  0.00  0.00     0.100 A 
ENDROOT
BRANCH   1   9
ATOM      9  C   UNL d   1      54.315  32.889  54.419  0.00  0.00     0.084 A 
ATOM     10  C   UNL d   1      55.028  33.145  54.087  0.00  0.00     0.145 A 
ATOM     11  F   UNL d   1      55.210  32.959  53.305  0.00  0.00    -0.204 F 
ATOM     12  C   UNL d   1      55.560  33.590  54.543  0.00  0.00     0.030 A 
ATOM     13  C   UNL d   1      55.376  33.775  55.321  0.00  0.00     0.002 A 
ATOM     14  C   UNL d   1      54.664  33.519  55.653  0.00  0.00     0.000 A 
ATOM     15  C   UNL d   1      54.135  33.079  55.207  0.00  0.00     0.007 A 
ENDBRANCH   1   9
BRANCH   3  16
ATOM     16  C   UNL d   1      51.041  33.856  52.782  0.00  0.00     0.064 A 
ATOM     17  C   UNL d   1      51.050  34.211  52.042  0.00  0.00     0.016 A 
ATOM     18  C   UNL d   1      50.363  34.563  51.745  0.00  0.00     0.001 A 
ATOM     19  C   UNL d   1      51.741  34.217  51.593  0.00  0.00     0.002 C 
ATOM     20  C   UNL d   1      49.672  34.560  52.189  0.00  0.00     0.000 A 
ATOM     21  C   UNL d   1      49.665  34.203  52.932  0.00  0.00     0.002 A 
ATOM     22  C   UNL d   1      48.987  34.911  51.893  0.00  0.00     0.000 C 
ATOM     23  C   UNL d   1      50.351  33.851  53.229  0.00  0.00     0.018 A 
ENDBRANCH   3  16
TORSDOF 2
ENDMDL
MODEL 2
REMARK VINA RESULT:      -8.7      1.965      4.456
REMARK  2 active torsions:
REMARK  status: ('A' for Active; 'I' for Inactive)
REMARK    1  A    between atoms: C_2  and  C_1 
REMARK       I    between atoms: N_3  and  C_1 
REMARK    2  A    between atoms: C_5  and  N_4 
ROOT
ATOM      1  C   UNL d   1      52.267  33.969  52.875  0.00  0.00     0.267 C 
ATOM      2  N   UNL d   1      52.462  33.201  53.104  0.00  0.00    -0.269 N 
ATOM      3  N   UNL d   1      52.853  31.663  53.564  0.00  0.00    -0.301 N 
ATOM      4  O   UNL d   1      52.851  34.547  52.828  0.00  0.00    -0.267 OA
ATOM      5  C   UNL d   1      53.241  33.008  53.288  0.00  0.00     0.102 A 
ATOM      6  C   UNL d   1      51.878  32.621  53.151  0.00  0.00     0.102 A 
ATOM      7  C   UNL d   1      52.073  31.853  53.381  0.00  0.00     0.100 A 
ATOM      8  C   UNL d   1      53.436  32.240  53.517  0.00  0.00     0.100 A 
ENDROOT
BRANCH   1   9
ATOM      9  C   UNL d   1      51.487  34.160  52.692  0.00  0.00     0.084 A 
ATOM     10  C   UNL d   1      51.263  34.277  51.904  0.00  0.00     0.145 A 
ATOM     11  F   UNL d   1      51.819  34.203  51.301  0.00  0.00    -0.204 F 
ATOM     12  C   UNL d   1      50.476  34.469  51.723  0.00  0.00     0.030 A 
ATOM     13  C   UNL d   1      49.923  34.542  52.325  0.00  0.00     0.002 A 
ATOM     14  C   UNL d   1      50.147  34.425  53.113  0.00  0.00     0.000 A 
ATOM     15  C   UNL d   1      50.924  34.235  53.297  0.00  0.00     0.007 A 
ENDBRANCH   1   9
BRANCH   3  16
ATOM     16  C   UNL d   1      53.049  30.892  53.794  0.00  0.00     0.064 A 
ATOM     17  C   UNL d   1      53.093  30.295  53.232  0.00  0.00     0.016 A 
ATOM     18  C   UNL d   1      53.289  29.525  53.462  0.00  0.00     0.001 A 
ATOM     19  C   UNL d   1      52.944  30.461  52.439  0.00  0.00     0.002 C 
ATOM     20  C   UNL d   1      53.439  29.356  54.253  0.00  0.00     0.000 A 
ATOM     21  C   UNL d   1      53.394  29.956  54.816  0.00  0.00     0.002 A 
ATOM     22  C   UNL d   1      53.634  28.588  54.482  0.00  0.00     0.000 C 
ATOM     23  C   UNL d   1      53.198  30.726  54.586  0.00  0.00     0.018 A 
ENDBRANCH   3  16
TORSDOF 2
ENDMDL
MODEL 3
REMARK VINA RESULT:      -8.7      1.472      2.048
REMARK  2 active torsions:
REMARK  status: ('A' for Active; 'I' for Inactive)
REMARK    1  A    between atoms: C_2  and  C_1 
REMARK       I    between atoms: N_3  and  C_1 
REMARK    2  A    between atoms: C_5  and  N_4 
ROOT
ATOM      1  C   UNL d   1      53.258  32.801  53.271  0.00  0.00     0.267 C 
ATOM      2  N   UNL d   1      52.546  33.206  53.175  0.00  0.00    -0.269 N 
ATOM      3  N   UNL d   1      51.120  34.017  52.982  0.00  0.00    -0.301 N 
ATOM      4  O   UNL d   1      53.971  33.211  53.259  0.00  0.00    -0.267 OA
ATOM      5  C   UNL d   1      52.544  34.022  53.066  0.00  0.00     0.102 A 
ATOM      6  C   UNL d   1      51.830  32.796  53.187  0.00  0.00     0.102 A 
ATOM      7  C   UNL d   1      51.118  33.201  53.091  0.00  0.00     0.100 A 
ATOM      8  C   UNL d   1      51.831  34.427  52.970  0.00  0.00     0.100 A 
ENDROOT
BRANCH   1   9
ATOM      9  C   UNL d   1      53.258  31.984  53.379  0.00  0.00     0.084 A 
ATOM     10  C   UNL d   1      53.540  31.660  54.085  0.00  0.00     0.145 A 
ATOM     11  F   UNL d   1      53.823  32.152  54.682  0.00  0.00    -0.204 F 
ATOM     12  C   UNL d   1      53.538  30.837  54.191  0.00  0.00     0.030 A 
ATOM     13  C   UNL d   1      53.256  30.348  53.596  0.00  0.00     0.002 A 
ATOM     14  C   UNL d   1      52.974  30.672  52.890  0.00  0.00     0.000 A 
ATOM     15  C   UNL d   1      52.974  31.485  52.780  0.00  0.00     0.007 A 
ENDBRANCH   1   9
BRANCH   3  16
ATOM     16  C   UNL d   1      50.405  34.423  52.886  0.00  0.00     0.064 A 
ATOM     17  C   UNL d   1      50.042  34.446  52.150  0.00  0.00     0.016 A 
ATOM     18  C   UNL d   1      49.328  34.852  52.054  0.00  0.00     0.001 A 
ATOM     19  C   UNL d   1      50.387  34.065  51.506  0.00  0.00     0.002 C 
ATOM     20  C   UNL d   1      48.980  35.233  52.694  0.00  0.00     0.000 A 
ATOM     21  C   UNL d   1      49.345  35.210  53.432  0.00  0.00     0.002 A 
ATOM     22  C   UNL d   1      48.268  35.638  52.598  0.00  0.00     0.000 C 
ATOM     23  C   UNL d   1      50.059  34.804  53.528  0.00  0.00     0.018 A 
ENDBRANCH   3  16
TORSDOF 2
ENDMDL
MODEL 4
REMARK VINA RESULT:      -8.6      2.171      3.493
REMARK  2 active torsions:
REMARK  status: ('A' for Active; 'I' for Inactive)
REMARK    1  A    between atoms: C_2  and  C_1 
REMARK       I    between atoms: N_3  and  C_1 
REMARK    2  A    between atoms: C_5  and  N_4 
ROOT
ATOM      1  C   UNL d   1      53.019  30.692  52.901  0.00  0.00     0.267 C 
ATOM      2  N   UNL d   1      53.032  31.474  53.164  0.00  0.00    -0.269 N 
ATOM      3  N   UNL d   1      53.058  33.040  53.690  0.00  0.00    -0.301 N 
ATOM      4  O   UNL d   1      52.891  30.526  52.106  0.00  0.00    -0.267 OA
ATOM      5  C   UNL d   1      52.918  32.092  52.632  0.00  0.00     0.102 A 
ATOM      6  C   UNL d   1      53.160  31.642  53.961  0.00  0.00     0.102 A 
ATOM      7  C   UNL d   1      53.173  32.424  54.224  0.00  0.00     0.100 A 
ATOM      8  C   UNL d   1      52.931  32.874  52.895  0.00  0.00     0.100 A 
ENDROOT
BRANCH   1   9
ATOM      9  C   UNL d   1      53.134  30.075  53.435  0.00  0.00     0.084 A 
ATOM     10  C   UNL d   1      52.496  29.600  53.662  0.00  0.00     0.145 A 
ATOM     11  F   UNL d   1      51.745  29.743  53.356  0.00  0.00    -0.204 F 
ATOM     12  C   UNL d   1      52.615  28.979  54.200  0.00  0.00     0.030 A 
ATOM     13  C   UNL d   1      53.364  28.839  54.504  0.00  0.00     0.002 A 
ATOM     14  C   UNL d   1      54.002  29.314  54.276  0.00  0.00     0.000 A 
ATOM     15  C   UNL d   1      53.889  29.929  53.745  0.00  0.00     0.007 A 
ENDBRANCH   1   9
BRANCH   3  16
ATOM     16  C   UNL d   1      53.071  33.824  53.954  0.00  0.00     0.064 A 
ATOM     17  C   UNL d   1      53.670  34.079  54.454  0.00  0.00     0.016 A 
ATOM     18  C   UNL d   1      53.683  34.863  54.717  0.00  0.00     0.001 A 
ATOM     19  C   UNL d   1      54.260  33.556  54.695  0.00  0.00     0.002 C 
ATOM     20  C   UNL d   1      53.097  35.388  54.480  0.00  0.00     0.000 A 
ATOM     21  C   UNL d   1      52.496  35.131  53.978  0.00  0.00     0.002 A 
ATOM     22  C   UNL d   1      53.110  36.170  54.743  0.00  0.00     0.000 C 
ATOM     23  C   UNL d   1      52.483  34.347  53.714  0.00  0.00     0.018 A 
ENDBRANCH   3  16
TORSDOF 2
ENDMDL
