MODEL 1
REMARK VINA RESULT:      -2.8      0.000      0.000
REMARK  0 active torsions:
REMARK  status: ('A' for Active; 'I' for Inactive)
ROOT
ATOM      1  C   UNL d   1      32.869  22.127 -21.871  0.00  0.00     0.020 A 
ATOM      2  N   UNL d   1      32.781  23.538 -22.104  0.00  0.00    -0.242 NA
ATOM      3  C   UNL d   1      32.400  22.214 -21.201  0.00  0.00     0.003 A 
ATOM      4  C   UNL d   1      33.151  21.387 -22.096  0.00  0.00     0.013 A 
ATOM      5  C   UNL d   1      32.211  21.546 -20.750  0.00  0.00     0.001 A 
ATOM      6  C   UNL d   1      32.962  20.727 -21.646  0.00  0.00     0.058 A 
ATOM      7  C   UNL d   1      32.490  20.807 -20.972  0.00  0.00     0.011 A 
ATOM      8  C   UNL d   1      33.061  22.795 -22.325  0.00  0.00     0.099 A 
ATOM      9 CL   UNL d   1      33.241  19.987 -21.868  0.00  0.00    -0.082 Cl
ATOM     10  C   UNL d   1      32.309  23.618 -21.430  0.00  0.00     0.099 A 
ATOM     11  C   UNL d   1      32.116  22.954 -20.973  0.00  0.00     0.021 A 
ENDROOT
TORSDOF 0
ENDMDL
MODEL 2
REMARK VINA RESULT:      -2.7      1.640      2.576
REMARK  0 active torsions:
REMARK  status: ('A' for Active; 'I' for Inactive)
ROOT
ATOM      1  C   UNL d   1      32.492  21.745 -21.168  0.00  0.00     0.020 A 
ATOM      2  N   UNL d   1      32.864  20.370 -21.323  0.00  0.00    -0.242 NA
ATOM      3  C   UNL d   1      32.866  21.921 -21.880  0.00  0.00     0.003 A 
ATOM      4  C   UNL d   1      32.118  22.334 -20.731  0.00  0.00     0.013 A 
ATOM      5  C   UNL d   1      32.864  22.702 -22.155  0.00  0.00     0.001 A 
ATOM      6  C   UNL d   1      32.119  23.107 -21.008  0.00  0.00     0.058 A 
ATOM      7  C   UNL d   1      32.493  23.291 -21.722  0.00  0.00     0.011 A 
ATOM      8  C   UNL d   1      32.492  20.964 -20.889  0.00  0.00     0.099 A 
ATOM      9 CL   UNL d   1      31.747  23.697 -20.574  0.00  0.00    -0.082 Cl
ATOM     10  C   UNL d   1      33.238  20.554 -22.037  0.00  0.00     0.099 A 
ATOM     11  C   UNL d   1      33.241  21.333 -22.320  0.00  0.00     0.021 A 
ENDROOT
TORSDOF 0
ENDMDL
MODEL 3
REMARK VINA RESULT:      -2.7      6.408      6.945
REMARK  0 active torsions:
REMARK  status: ('A' for Active; 'I' for Inactive)
ROOT
ATOM      1  C   UNL d   1      29.939  16.477 -23.973  0.00  0.00     0.020 A 
ATOM      2  N   UNL d   1      31.181  16.983 -24.479  0.00  0.00    -0.242 NA
ATOM      3  C   UNL d   1      30.354  15.970 -23.476  0.00  0.00     0.003 A 
ATOM      4  C   UNL d   1      29.115  16.485 -23.976  0.00  0.00     0.013 A 
ATOM      5  C   UNL d   1      29.934  15.462 -22.974  0.00  0.00     0.001 A 
ATOM      6  C   UNL d   1      28.703  15.981 -23.477  0.00  0.00     0.058 A 
ATOM      7  C   UNL d   1      29.114  15.468 -22.975  0.00  0.00     0.011 A 
ATOM      8  C   UNL d   1      30.356  16.987 -24.478  0.00  0.00     0.099 A 
ATOM      9 CL   UNL d   1      27.882  15.986 -23.477  0.00  0.00    -0.082 Cl
ATOM     10  C   UNL d   1      31.591  16.470 -23.977  0.00  0.00     0.099 A 
ATOM     11  C   UNL d   1      31.179  15.959 -23.471  0.00  0.00     0.021 A 
ENDROOT
TORSDOF 0
ENDMDL
MODEL 4
REMARK VINA RESULT:      -2.6      6.288      6.877
REMARK  0 active torsions:
REMARK  status: ('A' for Active; 'I' for Inactive)
ROOT
ATOM      1  C   UNL d   1      30.167  16.153 -23.655  0.00  0.00     0.020 A 
ATOM      2  N   UNL d   1      31.594  16.048 -23.561  0.00  0.00    -0.242 NA
ATOM      3  C   UNL d   1      30.254  16.797 -24.160  0.00  0.00     0.003 A 
ATOM      4  C   UNL d   1      29.420  15.879 -23.445  0.00  0.00     0.013 A 
ATOM      5  C   UNL d   1      29.577  17.170 -24.459  0.00  0.00     0.001 A 
ATOM      6  C   UNL d   1      28.753  16.251 -23.743  0.00  0.00     0.058 A 
ATOM      7  C   UNL d   1      28.831  16.898 -24.252  0.00  0.00     0.011 A 
ATOM      8  C   UNL d   1      30.843  15.777 -23.354  0.00  0.00     0.099 A 
ATOM      9 CL   UNL d   1      28.006  15.979 -23.536  0.00  0.00    -0.082 Cl
ATOM     10  C   UNL d   1      31.672  16.696 -24.069  0.00  0.00     0.099 A 
ATOM     11  C   UNL d   1      31.001  17.075 -24.372  0.00  0.00     0.021 A 
ENDROOT
TORSDOF 0
ENDMDL
MODEL 5
REMARK VINA RESULT:      -2.6      6.176      6.882
REMARK  0 active torsions:
REMARK  status: ('A' for Active; 'I' for Inactive)
ROOT
ATOM      1  C   UNL d   1      29.649  16.635 -24.068  0.00  0.00     0.020 A 
ATOM      2  N   UNL d   1      28.365  16.088 -23.742  0.00  0.00    -0.242 NA
ATOM      3  C   UNL d   1      30.005  16.071 -23.586  0.00  0.00     0.003 A 
ATOM      4  C   UNL d   1      30.102  17.191 -24.472  0.00  0.00     0.013 A 
ATOM      5  C   UNL d   1      30.830  16.066 -23.511  0.00  0.00     0.001 A 
ATOM      6  C   UNL d   1      30.918  17.183 -24.395  0.00  0.00     0.058 A 
ATOM      7  C   UNL d   1      31.284  16.619 -23.913  0.00  0.00     0.011 A 
ATOM      8  C   UNL d   1      28.823  16.642 -24.145  0.00  0.00     0.099 A 
ATOM      9 CL   UNL d   1      31.373  17.737 -24.797  0.00  0.00    -0.082 Cl
ATOM     10  C   UNL d   1      28.731  15.523 -23.260  0.00  0.00     0.099 A 
ATOM     11  C   UNL d   1      29.555  15.512 -23.180  0.00  0.00     0.021 A 
ENDROOT
TORSDOF 0
ENDMDL
MODEL 6
REMARK VINA RESULT:      -2.3      2.003      2.591
REMARK  0 active torsions:
REMARK  status: ('A' for Active; 'I' for Inactive)
ROOT
ATOM      1  C   UNL d   1      32.661  23.255 -20.017  0.00  0.00     0.020 A 
ATOM      2  N   UNL d   1      32.952  23.374 -18.619  0.00  0.00    -0.242 NA
ATOM      3  C   UNL d   1      32.949  22.484 -20.006  0.00  0.00     0.003 A 
ATOM      4  C   UNL d   1      32.371  23.587 -20.713  0.00  0.00     0.013 A 
ATOM      5  C   UNL d   1      32.945  22.041 -20.706  0.00  0.00     0.001 A 
ATOM      6  C   UNL d   1      32.369  23.145 -21.404  0.00  0.00     0.058 A 
ATOM      7  C   UNL d   1      32.657  22.369 -21.400  0.00  0.00     0.011 A 
ATOM      8  C   UNL d   1      32.663  23.702 -19.319  0.00  0.00     0.099 A 
ATOM      9 CL   UNL d   1      32.080  23.473 -22.099  0.00  0.00    -0.082 Cl
ATOM     10  C   UNL d   1      33.240  22.599 -18.616  0.00  0.00     0.099 A 
ATOM     11  C   UNL d   1      33.240  22.149 -19.312  0.00  0.00     0.021 A 
ENDROOT
TORSDOF 0
ENDMDL
MODEL 7
REMARK VINA RESULT:      -2.3      4.556      5.612
REMARK  0 active torsions:
REMARK  status: ('A' for Active; 'I' for Inactive)
ROOT
ATOM      1  C   UNL d   1      31.816  17.455 -23.871  0.00  0.00     0.020 A 
ATOM      2  N   UNL d   1      30.787  16.577 -24.344  0.00  0.00    -0.242 NA
ATOM      3  C   UNL d   1      32.211  16.809 -23.549  0.00  0.00     0.003 A 
ATOM      4  C   UNL d   1      32.124  18.216 -23.802  0.00  0.00     0.013 A 
ATOM      5  C   UNL d   1      32.926  16.931 -23.150  0.00  0.00     0.001 A 
ATOM      6  C   UNL d   1      32.833  18.332 -23.406  0.00  0.00     0.058 A 
ATOM      7  C   UNL d   1      33.235  17.688 -23.079  0.00  0.00     0.011 A 
ATOM      8  C   UNL d   1      31.099  17.337 -24.272  0.00  0.00     0.099 A 
ATOM      9 CL   UNL d   1      33.143  19.089 -23.335  0.00  0.00    -0.082 Cl
ATOM     10  C   UNL d   1      31.189  15.933 -24.017  0.00  0.00     0.099 A 
ATOM     11  C   UNL d   1      31.905  16.046 -23.616  0.00  0.00     0.021 A 
ENDROOT
TORSDOF 0
ENDMDL
MODEL 8
REMARK VINA RESULT:      -1.8      1.601      2.296
REMARK  0 active torsions:
REMARK  status: ('A' for Active; 'I' for Inactive)
ROOT
ATOM      1  C   UNL d   1      33.052  20.426 -22.351  0.00  0.00     0.020 A 
ATOM      2  N   UNL d   1      33.048  21.610 -21.545  0.00  0.00    -0.242 NA
ATOM      3  C   UNL d   1      33.177  19.973 -21.675  0.00  0.00     0.003 A 
ATOM      4  C   UNL d   1      32.990  20.071 -23.091  0.00  0.00     0.013 A 
ATOM      5  C   UNL d   1      33.241  19.150 -21.746  0.00  0.00     0.001 A 
ATOM      6  C   UNL d   1      33.054  19.256 -23.157  0.00  0.00     0.058 A 
ATOM      7  C   UNL d   1      33.180  18.794 -22.483  0.00  0.00     0.011 A 
ATOM      8  C   UNL d   1      32.987  21.250 -22.284  0.00  0.00     0.099 A 
ATOM      9 CL   UNL d   1      32.992  18.899 -23.894  0.00  0.00    -0.082 Cl
ATOM     10  C   UNL d   1      33.174  21.149 -20.870  0.00  0.00     0.099 A 
ATOM     11  C   UNL d   1      33.240  20.325 -20.932  0.00  0.00     0.021 A 
ENDROOT
TORSDOF 0
ENDMDL
MODEL 9
REMARK VINA RESULT:      -1.4      2.624      3.484
REMARK  0 active torsions:
REMARK  status: ('A' for Active; 'I' for Inactive)
ROOT
ATOM      1  C   UNL d   1      33.207  19.273 -23.004  0.00  0.00     0.020 A 
ATOM      2  N   UNL d   1      33.241  20.311 -22.017  0.00  0.00    -0.242 NA
ATOM      3  C   UNL d   1      33.176  19.844 -23.596  0.00  0.00     0.003 A 
ATOM      4  C   UNL d   1      33.206  18.471 -23.191  0.00  0.00     0.013 A 
ATOM      5  C   UNL d   1      33.144  19.604 -24.388  0.00  0.00     0.001 A 
ATOM      6  C   UNL d   1      33.174  18.238 -23.977  0.00  0.00     0.058 A 
ATOM      7  C   UNL d   1      33.143  18.806 -24.577  0.00  0.00     0.011 A 
ATOM      8  C   UNL d   1      33.240  19.509 -22.210  0.00  0.00     0.099 A 
ATOM      9 CL   UNL d   1      33.173  17.439 -24.168  0.00  0.00    -0.082 Cl
ATOM     10  C   UNL d   1      33.210  20.879 -22.617  0.00  0.00     0.099 A 
ATOM     11  C   UNL d   1      33.177  20.648 -23.412  0.00  0.00     0.021 A 
ENDROOT
TORSDOF 0
ENDMDL
