MODEL 1
REMARK VINA RESULT:      -5.6      0.000      0.000
REMARK  4 active torsions:
REMARK  status: ('A' for Active; 'I' for Inactive)
REMARK       I    between atoms: C_2  and  N_1 
REMARK    1  A    between atoms: C_6  and  C_2 
REMARK       I    between atoms: C_4  and  N_7 
REMARK    2  A    between atoms: C_5  and  C_4 
REMARK       I    between atoms: N_10  and  C_5 
REMARK    3  A    between atoms: N_7  and  C_13 
REMARK    4  A    between atoms: C_19  and  N_10 
ROOT
ATOM      1  N   UNL d   1      59.691  -1.821  29.054  0.00  0.00    -0.273 N 
ATOM      2  C   UNL d   1      59.241  -2.507  29.211  0.00  0.00     0.265 C 
ATOM      3  C   UNL d   1      59.446  -1.088  29.329  0.00  0.00     0.068 A 
ATOM      4  C   UNL d   1      58.749  -1.024  29.767  0.00  0.00     0.037 A 
ATOM      5  C   UNL d   1      59.893  -0.417  29.171  0.00  0.00     0.016 A 
ATOM      6  C   UNL d   1      58.502  -0.287  30.044  0.00  0.00     0.086 A 
ATOM      7  O   UNL d   1      58.548  -2.442  29.647  0.00  0.00    -0.267 OA
ATOM      8  C   UNL d   1      59.647   0.320  29.448  0.00  0.00     0.003 A 
ATOM      9  C   UNL d   1      60.385  -1.887  28.618  0.00  0.00     0.083 A 
ATOM     10  C   UNL d   1      58.953   0.386  29.883  0.00  0.00     0.019 A 
ATOM     11  C   UNL d   1      60.836  -1.214  28.458  0.00  0.00     0.019 A 
ATOM     12  C   UNL d   1      60.591  -0.481  28.733  0.00  0.00     0.003 A 
ENDROOT
BRANCH   6  13
ATOM     13  N   UNL d   1      57.802  -0.224  30.483  0.00  0.00    -0.204 NA
ATOM     14  C   UNL d   1      57.826   0.066  31.255  0.00  0.00     0.337 C 
ATOM     15  O   UNL d   1      58.547   0.293  31.588  0.00  0.00    -0.260 OA
BRANCH  14  16
ATOM     16  C   UNL d   1      57.134   0.129  31.694  0.00  0.00     0.337 C 
ATOM     17  N   UNL d   1      57.107  -0.156  32.467  0.00  0.00    -0.204 NA
ATOM     18  O   UNL d   1      56.465   0.479  31.359  0.00  0.00    -0.260 OA
BRANCH  17  19
ATOM     19  C   UNL d   1      56.411  -0.091  32.906  0.00  0.00     0.085 A 
ATOM     20  C   UNL d   1      55.890  -0.721  32.937  0.00  0.00     0.019 A 
ATOM     21  C   UNL d   1      55.186  -0.660  33.379  0.00  0.00     0.002 A 
ATOM     22  C   UNL d   1      55.018   0.039  33.784  0.00  0.00     0.000 A 
ATOM     23  C   UNL d   1      55.554   0.677  33.747  0.00  0.00     0.002 A 
ATOM     24  C   UNL d   1      56.243   0.607  33.311  0.00  0.00     0.019 A 
ENDBRANCH  17  19
ENDBRANCH  14  16
ENDBRANCH   6  13
BRANCH   2  25
ATOM     25  C   UNL d   1      59.491  -3.243  28.933  0.00  0.00     0.057 A 
ATOM     26  C   UNL d   1      59.737  -3.979  28.654  0.00  0.00     0.005 A 
ATOM     27  C   UNL d   1      58.932  -3.813  28.725  0.00  0.00     0.005 A 
ENDBRANCH   2  25
TORSDOF 4
ENDMDL
