MODEL 1
REMARK VINA RESULT:      55.0      0.000      0.000
REMARK  5 active torsions:
REMARK  status: ('A' for Active; 'I' for Inactive)
REMARK    1  A    between atoms: C_6  and  C_3 
REMARK    2  A    between atoms: C_7  and  C_6 
REMARK    3  A    between atoms: C_8  and  C_7 
REMARK    4  A    between atoms: O_16  and  C_10 
REMARK    5  A    between atoms: O_17  and  C_12 
ROOT
ATOM      1  C   UNL d   1      59.529  49.692  50.262  0.00  0.00     0.198 C 
ATOM      2  O   UNL d   1      60.108  49.708  49.670  0.00  0.00    -0.286 OA
ENDROOT
BRANCH   1   3
ATOM      3  C   UNL d   1      59.758  49.700  51.061  0.00  0.00     0.067 C 
BRANCH   3   4
ATOM      4  C   UNL d   1      60.154  49.054  51.380  0.00  0.00     0.107 A 
ATOM      5  O   UNL d   1      60.062  48.745  52.149  0.00  0.00    -0.273 OA
ATOM      6  C   UNL d   1      60.564  48.102  52.229  0.00  0.00     0.300 A 
ATOM      7  C   UNL d   1      60.972  48.005  51.514  0.00  0.00     0.065 A 
ATOM      8  O   UNL d   1      60.651  47.630  52.904  0.00  0.00    -0.259 OA
ATOM      9  C   UNL d   1      60.717  48.592  50.993  0.00  0.00     0.028 A 
ATOM     10  C   UNL d   1      61.540  47.456  51.276  0.00  0.00     0.005 A 
ATOM     11  C   UNL d   1      61.032  48.635  50.225  0.00  0.00     0.002 A 
ATOM     12  C   UNL d   1      61.600  48.086  49.987  0.00  0.00     0.000 A 
ATOM     13  C   UNL d   1      61.854  47.495  50.516  0.00  0.00     0.000 A 
ENDBRANCH   3   4
ENDBRANCH   1   3
BRANCH   1  14
ATOM     14  C   UNL d   1      58.732  49.668  50.066  0.00  0.00     0.041 A 
ATOM     15  C   UNL d   1      58.167  49.692  50.663  0.00  0.00     0.029 A 
ATOM     16  C   UNL d   1      57.363  49.669  50.478  0.00  0.00     0.116 A 
ATOM     17  C   UNL d   1      57.126  49.621  49.687  0.00  0.00     0.116 A 
ATOM     18  C   UNL d   1      57.699  49.598  49.087  0.00  0.00     0.026 A 
ATOM     19  C   UNL d   1      58.498  49.621  49.283  0.00  0.00     0.005 A 
BRANCH  16  20
ATOM     20  O   UNL d   1      56.798  49.692  51.075  0.00  0.00    -0.326 OA
ATOM     21  C   UNL d   1      56.960  49.345  51.810  0.00  0.00     0.181 C 
ENDBRANCH  16  20
BRANCH  17  22
ATOM     22  O   UNL d   1      56.328  49.598  49.491  0.00  0.00    -0.326 OA
ATOM     23  C   UNL d   1      56.033  48.998  49.002  0.00  0.00     0.181 C 
ENDBRANCH  17  22
ENDBRANCH   1  14
TORSDOF 5
ENDMDL
