MODEL 1
REMARK VINA RESULT:      42.9      0.000      0.000
REMARK  6 active torsions:
REMARK  status: ('A' for Active; 'I' for Inactive)
REMARK    1  A    between atoms: N_6  and  S_1 
REMARK    2  A    between atoms: C_7  and  S_1 
REMARK       I    between atoms: C_2  and  N_4 
REMARK    3  A    between atoms: C_8  and  C_2 
REMARK    4  A    between atoms: C_3  and  C_12 
REMARK       I    between atoms: N_5  and  C_3 
REMARK    5  A    between atoms: C_23  and  N_6 
REMARK    6  A    between atoms: O_29  and  C_26 
ROOT
ATOM      1  C   UNL d   1      45.885 -17.484  44.165  0.00  0.00     0.057 A 
ATOM      2  C   UNL d   1      45.143 -16.102  44.669  0.00  0.00     0.094 A 
ATOM      3  C   UNL d   1      45.133 -17.285  43.882  0.00  0.00     0.006 A 
ATOM      4  C   UNL d   1      46.265 -16.990  44.701  0.00  0.00     0.006 A 
ATOM      5  C   UNL d   1      44.764 -16.588  44.139  0.00  0.00     0.020 A 
ATOM      6  C   UNL d   1      45.893 -16.297  44.954  0.00  0.00     0.020 A 
ENDROOT
BRANCH   1   7
ATOM      7  C   UNL d   1      46.258 -18.184  43.908  0.00  0.00     0.265 C 
ATOM      8  N   UNL d   1      46.266 -18.387  43.104  0.00  0.00    -0.269 N 
ATOM      9  C   UNL d   1      46.636 -19.081  42.851  0.00  0.00     0.102 A 
ATOM     10  C   UNL d   1      45.901 -17.893  42.552  0.00  0.00     0.102 A 
ATOM     11  C   UNL d   1      46.640 -19.277  42.051  0.00  0.00     0.102 A 
ATOM     12  N   UNL d   1      46.272 -18.775  41.510  0.00  0.00    -0.267 N 
ATOM     13  C   UNL d   1      46.274 -18.968  40.710  0.00  0.00     0.288 C 
ATOM     14  C   UNL d   1      45.905 -18.088  41.757  0.00  0.00     0.102 A 
ATOM     15  O   UNL d   1      46.646 -19.666  40.457  0.00  0.00    -0.264 OA
ATOM     16  O   UNL d   1      46.624 -18.680  44.463  0.00  0.00    -0.267 OA
BRANCH  13  17
ATOM     17  C   UNL d   1      45.913 -18.478  40.166  0.00  0.00     0.156 A 
ATOM     18  O   UNL d   1      45.098 -18.424  40.016  0.00  0.00    -0.300 OA
ATOM     19  C   UNL d   1      44.987 -17.862  39.428  0.00  0.00     0.123 A 
ATOM     20  C   UNL d   1      45.723 -17.562  39.206  0.00  0.00     0.029 A 
ATOM     21  C   UNL d   1      46.295 -17.942  39.661  0.00  0.00     0.032 A 
ENDBRANCH  13  17
ENDBRANCH   1   7
BRANCH   2  22
ATOM     22  N   UNL d   1      44.775 -15.408  44.924  0.00  0.00    -0.158 NA
BRANCH  22  23
ATOM     23  S   UNL d   1      45.025 -14.687  44.633  0.00  0.00     0.285 S 
ATOM     24  O   UNL d   1      45.798 -14.859  44.867  0.00  0.00    -0.198 OA
ATOM     25  O   UNL d   1      44.257 -14.508  44.398  0.00  0.00    -0.198 OA
BRANCH  23  26
ATOM     26  C   UNL d   1      45.281 -13.958  44.341  0.00  0.00     0.107 A 
ATOM     27  C   UNL d   1      44.940 -13.645  43.658  0.00  0.00     0.037 A 
ATOM     28  C   UNL d   1      45.195 -12.916  43.365  0.00  0.00     0.095 A 
ATOM     29  C   UNL d   1      45.791 -12.503  43.757  0.00  0.00     0.024 A 
ATOM     30  C   UNL d   1      46.130 -12.813  44.435  0.00  0.00     0.003 A 
ATOM     31  C   UNL d   1      45.877 -13.540  44.730  0.00  0.00     0.013 A 
BRANCH  28  32
ATOM     32  O   UNL d   1      44.854 -12.595  42.675  0.00  0.00    -0.328 OA
ATOM     33  C   UNL d   1      45.311 -12.138  42.158  0.00  0.00     0.181 C 
ENDBRANCH  28  32
ENDBRANCH  23  26
ENDBRANCH  22  23
ENDBRANCH   2  22
TORSDOF 6
ENDMDL
