MODEL 1
REMARK VINA RESULT:      -3.0      0.000      0.000
REMARK  7 active torsions:
REMARK  status: ('A' for Active; 'I' for Inactive)
REMARK    1  A    between atoms: C_3  and  S_1 
REMARK    2  A    between atoms: N_8  and  S_1 
REMARK    3  A    between atoms: C_4  and  N_2 
REMARK    4  A    between atoms: N_5  and  C_19 
REMARK    5  A    between atoms: C_14  and  N_8 
REMARK    6  A    between atoms: O_21  and  C_11 
REMARK    7  A    between atoms: C_19  and  C_14 
ROOT
ATOM      1  N   UNL d   1      31.797  17.388 -24.170  0.00  0.00    -0.300 N 
ATOM      2  N   UNL d   1      32.755  18.596 -23.571  0.00  0.00    -0.299 N 
ATOM      3  C   UNL d   1      32.097  17.335 -23.405  0.00  0.00     0.100 A 
ATOM      4  C   UNL d   1      31.976  18.049 -24.641  0.00  0.00     0.100 A 
ATOM      5  C   UNL d   1      32.575  17.937 -23.106  0.00  0.00     0.100 A 
ATOM      6  C   UNL d   1      32.452  18.649 -24.344  0.00  0.00     0.100 A 
ENDROOT
BRANCH   2   7
ATOM      7  C   UNL d   1      33.233  19.198 -23.272  0.00  0.00     0.102 C 
BRANCH   7   8
ATOM      8  C   UNL d   1      32.929  19.750 -22.735  0.00  0.00     0.131 C 
BRANCH   8   9
ATOM      9  N   UNL d   1      33.169  20.529 -22.760  0.00  0.00    -0.155 NA
BRANCH   9  10
ATOM     10  S   UNL d   1      33.009  21.031 -22.127  0.00  0.00     0.285 S 
ATOM     11  O   UNL d   1      33.069  21.683 -22.632  0.00  0.00    -0.198 OA
ATOM     12  O   UNL d   1      32.949  20.379 -21.621  0.00  0.00    -0.198 OA
BRANCH  10  13
ATOM     13  C   UNL d   1      32.850  21.540 -21.500  0.00  0.00     0.105 A 
ATOM     14  C   UNL d   1      33.077  21.335 -20.734  0.00  0.00     0.013 A 
ATOM     15  C   UNL d   1      32.922  21.838 -20.101  0.00  0.00     0.001 A 
ATOM     16  C   UNL d   1      32.534  22.557 -20.243  0.00  0.00     0.000 A 
ATOM     17  C   UNL d   1      32.309  22.760 -21.011  0.00  0.00     0.001 A 
ATOM     18  C   UNL d   1      32.381  23.058 -19.612  0.00  0.00     0.000 C 
ATOM     19  C   UNL d   1      32.471  22.246 -21.635  0.00  0.00     0.013 A 
ENDBRANCH  10  13
ENDBRANCH   9  10
ENDBRANCH   8   9
ENDBRANCH   7   8
ENDBRANCH   2   7
BRANCH   1  20
ATOM     20  C   UNL d   1      31.319  16.785 -24.468  0.00  0.00     0.086 A 
ATOM     21  C   UNL d   1      30.505  16.902 -24.564  0.00  0.00     0.110 A 
ATOM     22  C   UNL d   1      30.025  16.297 -24.864  0.00  0.00     0.026 A 
ATOM     23  C   UNL d   1      30.364  15.580 -25.066  0.00  0.00     0.002 A 
ATOM     24  C   UNL d   1      31.178  15.453 -24.973  0.00  0.00     0.002 A 
ATOM     25  C   UNL d   1      31.651  16.049 -24.678  0.00  0.00     0.019 A 
BRANCH  21  26
ATOM     26  O   UNL d   1      30.169  17.641 -24.355  0.00  0.00    -0.327 OA
ATOM     27  C   UNL d   1      29.344  17.717 -24.337  0.00  0.00     0.181 C 
ENDBRANCH  21  26
ENDBRANCH   1  20
TORSDOF 7
ENDMDL
MODEL 2
REMARK VINA RESULT:      -3.0      1.268      5.913
REMARK  7 active torsions:
REMARK  status: ('A' for Active; 'I' for Inactive)
REMARK    1  A    between atoms: C_3  and  S_1 
REMARK    2  A    between atoms: N_8  and  S_1 
REMARK    3  A    between atoms: C_4  and  N_2 
REMARK    4  A    between atoms: N_5  and  C_19 
REMARK    5  A    between atoms: C_14  and  N_8 
REMARK    6  A    between atoms: O_21  and  C_11 
REMARK    7  A    between atoms: C_19  and  C_14 
ROOT
ATOM      1  N   UNL d   1      32.894  21.374 -21.434  0.00  0.00    -0.300 N 
ATOM      2  N   UNL d   1      33.077  20.106 -22.480  0.00  0.00    -0.299 N 
ATOM      3  C   UNL d   1      32.748  20.605 -21.179  0.00  0.00     0.100 A 
ATOM      4  C   UNL d   1      33.134  21.513 -22.218  0.00  0.00     0.100 A 
ATOM      5  C   UNL d   1      32.839  19.973 -21.700  0.00  0.00     0.100 A 
ATOM      6  C   UNL d   1      33.225  20.884 -22.737  0.00  0.00     0.100 A 
ENDROOT
BRANCH   2   7
ATOM      7  C   UNL d   1      33.169  19.474 -23.002  0.00  0.00     0.102 C 
BRANCH   7   8
ATOM      8  C   UNL d   1      32.549  18.940 -23.128  0.00  0.00     0.131 C 
BRANCH   8   9
ATOM      9  N   UNL d   1      32.571  18.420 -23.757  0.00  0.00    -0.155 NA
BRANCH   9  10
ATOM     10  S   UNL d   1      31.991  17.842 -23.835  0.00  0.00     0.285 S 
ATOM     11  O   UNL d   1      31.590  18.320 -24.378  0.00  0.00    -0.198 OA
ATOM     12  O   UNL d   1      32.391  17.363 -23.293  0.00  0.00    -0.198 OA
BRANCH  10  13
ATOM     13  C   UNL d   1      31.406  17.269 -23.920  0.00  0.00     0.105 A 
ATOM     14  C   UNL d   1      31.396  16.612 -23.420  0.00  0.00     0.013 A 
ATOM     15  C   UNL d   1      30.815  16.034 -23.498  0.00  0.00     0.001 A 
ATOM     16  C   UNL d   1      30.237  16.120 -24.086  0.00  0.00     0.000 A 
ATOM     17  C   UNL d   1      30.249  16.777 -24.584  0.00  0.00     0.001 A 
ATOM     18  C   UNL d   1      29.658  15.543 -24.162  0.00  0.00     0.000 C 
ATOM     19  C   UNL d   1      30.837  17.348 -24.495  0.00  0.00     0.013 A 
ENDBRANCH  10  13
ENDBRANCH   9  10
ENDBRANCH   8   9
ENDBRANCH   7   8
ENDBRANCH   2   7
BRANCH   1  20
ATOM     20  C   UNL d   1      32.803  22.007 -20.912  0.00  0.00     0.086 A 
ATOM     21  C   UNL d   1      32.414  22.698 -21.152  0.00  0.00     0.110 A 
ATOM     22  C   UNL d   1      32.323  23.333 -20.628  0.00  0.00     0.026 A 
ATOM     23  C   UNL d   1      32.620  23.272 -19.869  0.00  0.00     0.002 A 
ATOM     24  C   UNL d   1      33.011  22.584 -19.618  0.00  0.00     0.002 A 
ATOM     25  C   UNL d   1      33.101  21.958 -20.135  0.00  0.00     0.019 A 
BRANCH  21  26
ATOM     26  O   UNL d   1      32.114  22.749 -21.933  0.00  0.00    -0.327 OA
ATOM     27  C   UNL d   1      31.733  23.446 -22.172  0.00  0.00     0.181 C 
ENDBRANCH  21  26
ENDBRANCH   1  20
TORSDOF 7
ENDMDL
MODEL 3
REMARK VINA RESULT:      -2.9      0.734      1.273
REMARK  7 active torsions:
REMARK  status: ('A' for Active; 'I' for Inactive)
REMARK    1  A    between atoms: C_3  and  S_1 
REMARK    2  A    between atoms: N_8  and  S_1 
REMARK    3  A    between atoms: C_4  and  N_2 
REMARK    4  A    between atoms: N_5  and  C_19 
REMARK    5  A    between atoms: C_14  and  N_8 
REMARK    6  A    between atoms: O_21  and  C_11 
REMARK    7  A    between atoms: C_19  and  C_14 
ROOT
ATOM      1  N   UNL d   1      31.868  17.757 -24.010  0.00  0.00    -0.300 N 
ATOM      2  N   UNL d   1      32.765  19.028 -23.447  0.00  0.00    -0.299 N 
ATOM      3  C   UNL d   1      32.092  17.784 -23.219  0.00  0.00     0.100 A 
ATOM      4  C   UNL d   1      32.092  18.370 -24.526  0.00  0.00     0.100 A 
ATOM      5  C   UNL d   1      32.540  18.418 -22.937  0.00  0.00     0.100 A 
ATOM      6  C   UNL d   1      32.537  19.000 -24.247  0.00  0.00     0.100 A 
ENDROOT
BRANCH   2   7
ATOM      7  C   UNL d   1      33.212  19.661 -23.166  0.00  0.00     0.102 C 
BRANCH   7   8
ATOM      8  C   UNL d   1      32.854  20.274 -22.740  0.00  0.00     0.131 C 
BRANCH   8   9
ATOM      9  N   UNL d   1      33.232  20.991 -22.647  0.00  0.00    -0.155 NA
BRANCH   9  10
ATOM     10  S   UNL d   1      33.029  21.486 -22.021  0.00  0.00     0.285 S 
ATOM     11  O   UNL d   1      33.145  20.861 -21.492  0.00  0.00    -0.198 OA
ATOM     12  O   UNL d   1      32.913  22.112 -22.550  0.00  0.00    -0.198 OA
BRANCH  10  13
ATOM     13  C   UNL d   1      32.828  21.974 -21.390  0.00  0.00     0.105 A 
ATOM     14  C   UNL d   1      33.128  21.818 -20.637  0.00  0.00     0.013 A 
ATOM     15  C   UNL d   1      32.932  22.300 -19.998  0.00  0.00     0.001 A 
ATOM     16  C   UNL d   1      32.428  22.947 -20.122  0.00  0.00     0.000 A 
ATOM     17  C   UNL d   1      32.130  23.100 -20.876  0.00  0.00     0.001 A 
ATOM     18  C   UNL d   1      32.234  23.427 -19.486  0.00  0.00     0.000 C 
ATOM     19  C   UNL d   1      32.335  22.609 -21.505  0.00  0.00     0.013 A 
ENDBRANCH  10  13
ENDBRANCH   9  10
ENDBRANCH   8   9
ENDBRANCH   7   8
ENDBRANCH   2   7
BRANCH   1  20
ATOM     20  C   UNL d   1      31.420  17.124 -24.291  0.00  0.00     0.086 A 
ATOM     21  C   UNL d   1      31.774  16.389 -24.435  0.00  0.00     0.110 A 
ATOM     22  C   UNL d   1      31.325  15.753 -24.718  0.00  0.00     0.026 A 
ATOM     23  C   UNL d   1      30.525  15.857 -24.854  0.00  0.00     0.002 A 
ATOM     24  C   UNL d   1      30.160  16.589 -24.713  0.00  0.00     0.002 A 
ATOM     25  C   UNL d   1      30.604  17.216 -24.434  0.00  0.00     0.019 A 
BRANCH  21  26
ATOM     26  O   UNL d   1      32.595  16.294 -24.292  0.00  0.00    -0.327 OA
ATOM     27  C   UNL d   1      32.961  15.582 -24.507  0.00  0.00     0.181 C 
ENDBRANCH  21  26
ENDBRANCH   1  20
TORSDOF 7
ENDMDL
