MODEL 1
REMARK VINA RESULT:      61.9      0.000      0.000
REMARK  3 active torsions:
REMARK  status: ('A' for Active; 'I' for Inactive)
REMARK    1  A    between atoms: C_13  and  C_5 
REMARK       I    between atoms: C_7  and  N_12 
REMARK    2  A    between atoms: C_10  and  C_7 
REMARK    3  A    between atoms: N_12  and  C_15 
ROOT
ATOM      1  C   UNL d   1     -49.624  28.217  34.141  0.00  0.00     0.021 A 
ATOM      2  C   UNL d   1     -50.396  27.101  33.673  0.00  0.00     0.085 A 
ATOM      3  C   UNL d   1     -49.748  27.397  34.088  0.00  0.00     0.021 A 
ATOM      4  C   UNL d   1     -50.153  28.730  33.776  0.00  0.00     0.002 A 
ATOM      5  C   UNL d   1     -50.798  28.445  33.362  0.00  0.00     0.002 A 
ATOM      6  C   UNL d   1     -50.922  27.625  33.309  0.00  0.00     0.019 A 
ENDROOT
BRANCH   1   7
ATOM      7  C   UNL d   1     -48.973  28.501  34.560  0.00  0.00     0.102 A 
ATOM      8  N   UNL d   1     -48.974  29.296  34.806  0.00  0.00    -0.162 NA
ATOM      9  N   UNL d   1     -48.318  29.591  35.230  0.00  0.00    -0.189 N 
ATOM     10  C   UNL d   1     -47.672  29.096  35.405  0.00  0.00     0.187 A 
ATOM     11  C   UNL d   1     -48.164  30.330  35.538  0.00  0.00     0.224 A 
ATOM     12  N   UNL d   1     -47.142  29.545  35.813  0.00  0.00    -0.127 NA
ATOM     13  C   UNL d   1     -47.692  28.300  35.148  0.00  0.00     0.042 A 
ATOM     14  N   UNL d   1     -47.436  30.306  35.900  0.00  0.00    -0.124 NA
ATOM     15  C   UNL d   1     -48.345  28.009  34.726  0.00  0.00     0.024 A 
ENDBRANCH   1   7
BRANCH   2  16
ATOM     16  N   UNL d   1     -50.518  26.291  33.620  0.00  0.00    -0.206 NA
ATOM     17  C   UNL d   1     -51.267  26.002  33.450  0.00  0.00     0.302 C 
ATOM     18  O   UNL d   1     -51.901  26.519  33.330  0.00  0.00    -0.263 OA
BRANCH  17  19
ATOM     19  C   UNL d   1     -51.390  25.190  33.397  0.00  0.00     0.158 A 
ATOM     20  O   UNL d   1     -50.809  24.610  33.381  0.00  0.00    -0.300 OA
ATOM     21  C   UNL d   1     -51.177  23.877  33.325  0.00  0.00     0.123 A 
ATOM     22  C   UNL d   1     -51.999  24.002  33.307  0.00  0.00     0.029 A 
ATOM     23  C   UNL d   1     -52.129  24.811  33.352  0.00  0.00     0.032 A 
ENDBRANCH  17  19
ENDBRANCH   2  16
TORSDOF 3
ENDMDL
