MODEL 1
REMARK VINA RESULT:      -5.4      0.000      0.000
REMARK  4 active torsions:
REMARK  status: ('A' for Active; 'I' for Inactive)
REMARK    1  A    between atoms: C_2  and  S_1 
REMARK    2  A    between atoms: N_3  and  S_1 
REMARK    3  A    between atoms: C_12  and  N_3 
REMARK    4  A    between atoms: N_4  and  C_8 
ROOT
ATOM      1  C   UNL d   1     -41.921-122.834 -50.500  0.00  0.00     0.064 A 
ATOM      2  C   UNL d   1     -41.389-122.190 -51.921  0.00  0.00     0.094 A 
ATOM      3  C   UNL d   1     -41.390-123.259 -50.968  0.00  0.00     0.019 A 
ATOM      4  C   UNL d   1     -42.185-122.090 -50.741  0.00  0.00     0.019 A 
ATOM      5  C   UNL d   1     -41.124-122.930 -51.684  0.00  0.00     0.021 A 
ATOM      6  C   UNL d   1     -41.919-121.772 -51.447  0.00  0.00     0.021 A 
ENDROOT
BRANCH   2   7
ATOM      7  N   UNL d   1     -41.123-121.877 -52.623  0.00  0.00    -0.158 NA
BRANCH   7   8
ATOM      8  S   UNL d   1     -41.505-122.063 -53.330  0.00  0.00     0.291 S 
ATOM      9  O   UNL d   1     -41.184-122.819 -53.306  0.00  0.00    -0.198 OA
ATOM     10  O   UNL d   1     -41.826-121.309 -53.355  0.00  0.00    -0.198 OA
BRANCH   8  11
ATOM     11  C   UNL d   1     -41.884-122.246 -54.029  0.00  0.00     0.135 A 
ATOM     12  S   UNL d   1     -41.609-122.769 -54.591  0.00  0.00    -0.073 SA
ATOM     13  C   UNL d   1     -42.168-122.789 -55.214  0.00  0.00     0.036 A 
ATOM     14  C   UNL d   1     -42.755-122.288 -55.017  0.00  0.00     0.008 A 
ATOM     15  C   UNL d   1     -42.615-121.943 -54.305  0.00  0.00     0.020 A 
ENDBRANCH   8  11
ENDBRANCH   7   8
ENDBRANCH   2   7
BRANCH   1  16
ATOM     16  N   UNL d   1     -42.187-123.156 -49.790  0.00  0.00    -0.304 N 
ATOM     17  C   UNL d   1     -42.966-123.419 -49.727  0.00  0.00     0.080 A 
ATOM     18  C   UNL d   1     -43.231-123.744 -49.007  0.00  0.00     0.019 A 
ATOM     19  C   UNL d   1     -42.715-123.801 -48.360  0.00  0.00     0.003 A 
ATOM     20  C   UNL d   1     -41.941-123.535 -48.436  0.00  0.00     0.019 A 
ATOM     21  C   UNL d   1     -41.673-123.209 -49.156  0.00  0.00     0.080 A 
ENDBRANCH   1  16
TORSDOF 4
ENDMDL
