MODEL 1
REMARK VINA RESULT:      64.6      0.000      0.000
REMARK  7 active torsions:
REMARK  status: ('A' for Active; 'I' for Inactive)
REMARK    1  A    between atoms: C_9  and  N_1 
REMARK    2  A    between atoms: C_12  and  N_3 
REMARK    3  A    between atoms: N_7  and  C_11 
REMARK    4  A    between atoms: C_13  and  C_9 
REMARK    5  A    between atoms: C_21  and  C_12 
REMARK       I    between atoms: N_20  and  C_13 
REMARK    6  A    between atoms: C_23  and  N_20 
REMARK    7  A    between atoms: C_24  and  C_23 
ROOT
ATOM      1  N   UNL d   1     -54.936-101.563 -43.052  0.00  0.00    -0.220 N 
ATOM      2  C   UNL d   1     -55.108-100.757 -43.102  0.00  0.00     0.342 A 
ATOM      3  N   UNL d   1     -55.227-100.405 -43.840  0.00  0.00    -0.258 N 
ATOM      4  C   UNL d   1     -55.003-101.665 -44.476  0.00  0.00     0.102 A 
ATOM      5  C   UNL d   1     -54.884-102.016 -43.741  0.00  0.00     0.276 A 
ATOM      6  C   UNL d   1     -55.175-100.859 -44.525  0.00  0.00     0.079 A 
ATOM      7  S   UNL d   1     -54.987-101.969 -45.241  0.00  0.00    -0.080 SA
ATOM      8  C   UNL d   1     -55.263-100.671 -45.321  0.00  0.00     0.025 A 
ATOM      9  O   UNL d   1     -55.162-100.295 -42.409  0.00  0.00    -0.245 OA
ATOM     10  C   UNL d   1     -55.148-101.352 -45.767  0.00  0.00     0.037 A 
ATOM     11  O   UNL d   1     -54.712-102.821 -43.691  0.00  0.00    -0.266 OA
ENDROOT
BRANCH   1  12
ATOM     12  C   UNL d   1     -54.817-101.913 -42.309  0.00  0.00     0.150 C 
BRANCH  12  13
ATOM     13  C   UNL d   1     -55.434-102.317 -41.939  0.00  0.00     0.297 C 
ATOM     14  N   UNL d   1     -55.371-102.531 -41.138  0.00  0.00    -0.205 NA
ATOM     15  O   UNL d   1     -56.122-102.512 -42.359  0.00  0.00    -0.264 OA
BRANCH  14  16
ATOM     16  C   UNL d   1     -54.833-102.382 -40.798  0.00  0.00     0.102 C 
BRANCH  16  17
ATOM     17  C   UNL d   1     -54.901-102.260 -39.974  0.00  0.00     0.019 A 
ATOM     18  C   UNL d   1     -54.736-101.506 -39.668  0.00  0.00     0.002 A 
ATOM     19  C   UNL d   1     -54.801-101.372 -38.848  0.00  0.00     0.000 A 
ATOM     20  C   UNL d   1     -55.026-101.984 -38.357  0.00  0.00     0.000 A 
ATOM     21  C   UNL d   1     -55.192-102.739 -38.663  0.00  0.00     0.000 A 
ATOM     22  C   UNL d   1     -55.090-101.842 -37.534  0.00  0.00     0.000 C 
ATOM     23  C   UNL d   1     -55.129-102.876 -39.475  0.00  0.00     0.002 A 
ENDBRANCH  16  17
ENDBRANCH  14  16
ENDBRANCH  12  13
ENDBRANCH   1  12
BRANCH   3  24
ATOM     24  C   UNL d   1     -55.399 -99.600 -43.890  0.00  0.00     0.085 C 
BRANCH  24  25
ATOM     25  C   UNL d   1     -56.101 -99.349 -44.237  0.00  0.00     0.019 A 
ATOM     26  C   UNL d   1     -56.783 -99.269 -43.780  0.00  0.00     0.025 A 
ATOM     27  C   UNL d   1     -57.486 -99.018 -44.129  0.00  0.00     0.127 A 
ATOM     28  C   UNL d   1     -57.508 -98.845 -44.937  0.00  0.00     0.024 A 
ATOM     29  C   UNL d   1     -56.826 -98.925 -45.394  0.00  0.00     0.002 A 
ATOM     30  C   UNL d   1     -56.124 -99.176 -45.046  0.00  0.00     0.002 A 
BRANCH  27  31
ATOM     31  N   UNL d   1     -58.164 -98.941 -43.664  0.00  0.00    -0.114 N 
ATOM     32  O   UNL d   1     -58.915 -99.016 -44.002  0.00  0.00    -0.532 OA
ATOM     33  O   UNL d   1     -58.094 -98.788 -42.854  0.00  0.00    -0.532 OA
ENDBRANCH  27  31
ENDBRANCH  24  25
ENDBRANCH   3  24
TORSDOF 7
ENDMDL
