MODEL 1
REMARK VINA RESULT:      -9.5      0.000      0.000
REMARK  0 active torsions:
REMARK  status: ('A' for Active; 'I' for Inactive)
ROOT
ATOM      1  N   UNL d   1      53.603  32.117  54.081  0.00  0.00    -0.242 NA
ATOM      2  N   UNL d   1      52.518  32.121  52.857  0.00  0.00    -0.242 NA
ATOM      3  C   UNL d   1      52.719  32.834  53.234  0.00  0.00     0.101 A 
ATOM      4  C   UNL d   1      53.257  32.832  53.840  0.00  0.00     0.101 A 
ATOM      5  C   UNL d   1      52.373  33.530  52.990  0.00  0.00     0.043 A 
ATOM      6  C   UNL d   1      53.465  33.526  54.220  0.00  0.00     0.043 A 
ATOM      7  C   UNL d   1      53.124  34.241  53.986  0.00  0.00     0.124 A 
ATOM      8  C   UNL d   1      52.575  34.243  53.367  0.00  0.00     0.124 A 
ATOM      9  C   UNL d   1      52.865  31.412  53.100  0.00  0.00     0.099 A 
ATOM     10  C   UNL d   1      53.403  31.410  53.706  0.00  0.00     0.099 A 
ATOM     11  N   UNL d   1      53.321  34.934  54.353  0.00  0.00    -0.146 N 
ATOM     12  N   UNL d   1      52.240  34.924  53.132  0.00  0.00    -0.146 N 
ATOM     13  C   UNL d   1      53.749  30.702  53.947  0.00  0.00     0.021 A 
ATOM     14  C   UNL d   1      52.663  30.706  52.723  0.00  0.00     0.021 A 
ATOM     15  C   UNL d   1      53.011  29.991  52.966  0.00  0.00     0.002 A 
ATOM     16  C   UNL d   1      53.548  29.989  53.572  0.00  0.00     0.002 A 
ENDROOT
TORSDOF 0
ENDMDL
MODEL 2
REMARK VINA RESULT:      -9.4      0.918      3.270
REMARK  0 active torsions:
REMARK  status: ('A' for Active; 'I' for Inactive)
ROOT
ATOM      1  N   UNL d   1      53.598  32.853  54.278  0.00  0.00    -0.242 NA
ATOM      2  N   UNL d   1      52.529  33.001  53.048  0.00  0.00    -0.242 NA
ATOM      3  C   UNL d   1      52.841  32.254  53.238  0.00  0.00     0.101 A 
ATOM      4  C   UNL d   1      53.371  32.181  53.846  0.00  0.00     0.101 A 
ATOM      5  C   UNL d   1      52.611  31.602  52.808  0.00  0.00     0.043 A 
ATOM      6  C   UNL d   1      53.686  31.453  54.044  0.00  0.00     0.043 A 
ATOM      7  C   UNL d   1      53.464  30.780  53.620  0.00  0.00     0.124 A 
ATOM      8  C   UNL d   1      52.923  30.855  52.998  0.00  0.00     0.124 A 
ATOM      9  C   UNL d   1      52.759  33.667  53.480  0.00  0.00     0.099 A 
ATOM     10  C   UNL d   1      53.288  33.594  54.089  0.00  0.00     0.099 A 
ATOM     11  N   UNL d   1      53.768  30.054  53.804  0.00  0.00    -0.146 N 
ATOM     12  N   UNL d   1      52.702  30.215  52.581  0.00  0.00    -0.146 N 
ATOM     13  C   UNL d   1      53.516  34.259  54.519  0.00  0.00     0.021 A 
ATOM     14  C   UNL d   1      52.447  34.407  53.289  0.00  0.00     0.021 A 
ATOM     15  C   UNL d   1      52.676  35.079  53.722  0.00  0.00     0.002 A 
ATOM     16  C   UNL d   1      53.205  35.006  54.331  0.00  0.00     0.002 A 
ENDROOT
TORSDOF 0
ENDMDL
MODEL 3
REMARK VINA RESULT:      -8.4      1.854      2.477
REMARK  0 active torsions:
REMARK  status: ('A' for Active; 'I' for Inactive)
ROOT
ATOM      1  N   UNL d   1      52.660  34.009  54.386  0.00  0.00    -0.242 NA
ATOM      2  N   UNL d   1      53.244  33.331  53.017  0.00  0.00    -0.242 NA
ATOM      3  C   UNL d   1      52.490  33.681  53.016  0.00  0.00     0.101 A 
ATOM      4  C   UNL d   1      52.201  34.017  53.694  0.00  0.00     0.101 A 
ATOM      5  C   UNL d   1      52.048  33.683  52.332  0.00  0.00     0.043 A 
ATOM      6  C   UNL d   1      51.461  34.365  53.709  0.00  0.00     0.043 A 
ATOM      7  C   UNL d   1      50.998  34.376  53.025  0.00  0.00     0.124 A 
ATOM      8  C   UNL d   1      51.294  34.033  52.332  0.00  0.00     0.124 A 
ATOM      9  C   UNL d   1      53.697  33.325  53.707  0.00  0.00     0.099 A 
ATOM     10  C   UNL d   1      53.408  33.661  54.385  0.00  0.00     0.099 A 
ATOM     11  N   UNL d   1      50.265  34.717  53.025  0.00  0.00    -0.146 N 
ATOM     12  N   UNL d   1      50.859  34.037  51.667  0.00  0.00    -0.146 N 
ATOM     13  C   UNL d   1      53.862  33.656  55.073  0.00  0.00     0.021 A 
ATOM     14  C   UNL d   1      54.445  32.977  53.704  0.00  0.00     0.021 A 
ATOM     15  C   UNL d   1      54.904  32.970  54.398  0.00  0.00     0.002 A 
ATOM     16  C   UNL d   1      54.615  33.306  55.076  0.00  0.00     0.002 A 
ENDROOT
TORSDOF 0
ENDMDL
MODEL 4
REMARK VINA RESULT:      -8.1      1.706      3.007
REMARK  0 active torsions:
REMARK  status: ('A' for Active; 'I' for Inactive)
ROOT
ATOM      1  N   UNL d   1      52.111  34.088  54.059  0.00  0.00    -0.242 NA
ATOM      2  N   UNL d   1      52.527  33.364  52.652  0.00  0.00    -0.242 NA
ATOM      3  C   UNL d   1      53.049  33.341  53.299  0.00  0.00     0.101 A 
ATOM      4  C   UNL d   1      52.843  33.700  53.996  0.00  0.00     0.101 A 
ATOM      5  C   UNL d   1      53.763  32.958  53.226  0.00  0.00     0.043 A 
ATOM      6  C   UNL d   1      53.345  33.686  54.641  0.00  0.00     0.043 A 
ATOM      7  C   UNL d   1      54.074  33.302  54.585  0.00  0.00     0.124 A 
ATOM      8  C   UNL d   1      54.285  32.936  53.873  0.00  0.00     0.124 A 
ATOM      9  C   UNL d   1      51.801  33.751  52.719  0.00  0.00     0.099 A 
ATOM     10  C   UNL d   1      51.595  34.110  53.416  0.00  0.00     0.099 A 
ATOM     11  N   UNL d   1      54.581  33.280  55.215  0.00  0.00    -0.146 N 
ATOM     12  N   UNL d   1      54.984  32.563  53.807  0.00  0.00    -0.146 N 
ATOM     13  C   UNL d   1      50.869  34.496  53.482  0.00  0.00     0.021 A 
ATOM     14  C   UNL d   1      51.285  33.772  52.075  0.00  0.00     0.021 A 
ATOM     15  C   UNL d   1      50.553  34.161  52.140  0.00  0.00     0.002 A 
ATOM     16  C   UNL d   1      50.347  34.519  52.836  0.00  0.00     0.002 A 
ENDROOT
TORSDOF 0
ENDMDL
