MODEL 1
REMARK VINA RESULT:      12.4      0.000      0.000
REMARK  1 active torsions:
REMARK  status: ('A' for Active; 'I' for Inactive)
REMARK    1  A    between atoms: C_5  and  C_1 
ROOT
ATOM      1  C   UNL d   1      58.209  49.689  50.355  0.00  0.00     0.005 A 
ATOM      2  C   UNL d   1      58.819  49.703  49.800  0.00  0.00     0.001 A 
ATOM      3  C   UNL d   1      58.380  49.673  51.159  0.00  0.00     0.001 A 
ATOM      4  C   UNL d   1      59.776  49.685  50.859  0.00  0.00     0.058 A 
ATOM      5  C   UNL d   1      59.166  49.671  51.414  0.00  0.00     0.011 A 
ATOM      6  C   UNL d   1      59.600  49.701  50.048  0.00  0.00     0.011 A 
ATOM      7 CL   UNL d   1      60.569  49.683  51.112  0.00  0.00    -0.082 Cl
ENDROOT
BRANCH   1   8
ATOM      8  C   UNL d   1      57.425  49.691  50.102  0.00  0.00     0.060 A 
ATOM      9  C   UNL d   1      56.711  49.699  50.466  0.00  0.00     0.206 A 
ATOM     10  N   UNL d   1      56.041  49.698  50.043  0.00  0.00    -0.127 NA
ATOM     11  N   UNL d   1      56.675  49.708  51.293  0.00  0.00    -0.125 N 
ATOM     12  N   UNL d   1      56.088  49.690  49.253  0.00  0.00    -0.145 NA
ATOM     13  C   UNL d   1      56.796  49.682  48.887  0.00  0.00     0.125 A 
ENDBRANCH   1   8
TORSDOF 1
ENDMDL
