MODEL 1
REMARK VINA RESULT:     107.6      0.000      0.000
REMARK  4 active torsions:
REMARK  status: ('A' for Active; 'I' for Inactive)
REMARK    1  A    between atoms: S_6  and  C_1 
REMARK    2  A    between atoms: C_9  and  N_2 
REMARK    3  A    between atoms: C_15  and  S_6 
REMARK    4  A    between atoms: C_14  and  C_9 
ROOT
ATOM      1  C   UNL d   1     -57.638 -99.049 -42.983  0.00  0.00     0.145 A 
ATOM      2  N   UNL d   1     -56.531 -98.989 -43.710  0.00  0.00    -0.270 N 
ATOM      3  C   UNL d   1     -57.864 -98.986 -43.776  0.00  0.00     0.130 A 
ATOM      4  C   UNL d   1     -56.816 -99.050 -42.940  0.00  0.00     0.183 A 
ATOM      5  C   UNL d   1     -57.175 -98.949 -44.230  0.00  0.00     0.168 A 
ATOM      6  N   UNL d   1     -58.602 -98.958 -44.143  0.00  0.00    -0.240 NA
ATOM      7  N   UNL d   1     -57.223 -98.884 -45.050  0.00  0.00    -0.225 NA
ATOM      8  C   UNL d   1     -58.650 -98.893 -44.963  0.00  0.00     0.099 A 
ATOM      9  C   UNL d   1     -57.960 -98.856 -45.416  0.00  0.00     0.101 A 
ATOM     10  N   UNL d   1     -56.351 -99.104 -42.261  0.00  0.00    -0.128 N 
ATOM     11  C   UNL d   1     -59.387 -98.866 -45.330  0.00  0.00     0.021 A 
ATOM     12  C   UNL d   1     -58.008 -98.791 -46.236  0.00  0.00     0.021 A 
ATOM     13  C   UNL d   1     -58.746 -98.763 -46.603  0.00  0.00     0.002 A 
ATOM     14  C   UNL d   1     -59.435 -98.800 -46.150  0.00  0.00     0.002 A 
ENDROOT
BRANCH   1  15
ATOM     15  S   UNL d   1     -58.158 -99.101 -42.342  0.00  0.00     0.214 S 
ATOM     16  O   UNL d   1     -57.474 -98.757 -42.043  0.00  0.00    -0.217 OA
ATOM     17  O   UNL d   1     -58.846 -99.446 -42.644  0.00  0.00    -0.217 OA
BRANCH  15  18
ATOM     18  C   UNL d   1     -58.666 -99.146 -41.696  0.00  0.00     0.088 A 
ATOM     19  C   UNL d   1     -59.387 -98.756 -41.813  0.00  0.00     0.011 A 
ATOM     20  C   UNL d   1     -59.955 -98.755 -41.207  0.00  0.00     0.001 A 
ATOM     21  C   UNL d   1     -59.803 -99.141 -40.492  0.00  0.00     0.000 A 
ATOM     22  C   UNL d   1     -59.083 -99.528 -40.379  0.00  0.00     0.001 A 
ATOM     23  C   UNL d   1     -58.513 -99.532 -40.981  0.00  0.00     0.011 A 
ENDBRANCH  15  18
ENDBRANCH   1  15
BRANCH   2  24
ATOM     24  C   UNL d   1     -55.736 -98.969 -43.935  0.00  0.00     0.108 C 
BRANCH  24  25
ATOM     25  C   UNL d   1     -55.439 -99.540 -44.443  0.00  0.00     0.118 A 
ATOM     26  O   UNL d   1     -55.220 -99.421 -45.222  0.00  0.00    -0.304 OA
ATOM     27  C   UNL d   1     -54.952-100.143 -45.529  0.00  0.00     0.123 A 
ATOM     28  C   UNL d   1     -55.009-100.702 -44.934  0.00  0.00     0.029 A 
ATOM     29  C   UNL d   1     -55.311-100.326 -44.265  0.00  0.00     0.028 A 
ENDBRANCH  24  25
ENDBRANCH   2  24
TORSDOF 4
ENDMDL
