MODEL 1
REMARK VINA RESULT:      -2.9      0.000      0.000
REMARK  5 active torsions:
REMARK  status: ('A' for Active; 'I' for Inactive)
REMARK    1  A    between atoms: C_9  and  N_2 
REMARK    2  A    between atoms: C_8  and  O_11 
REMARK    3  A    between atoms: C_12  and  C_9 
REMARK    4  A    between atoms: O_11  and  C_15 
REMARK    5  A    between atoms: C_15  and  C_12 
ROOT
ATOM      1  C   UNL d   1      33.241  18.959 -23.514  0.00  0.00     0.087 C 
ENDROOT
BRANCH   1   2
ATOM      2  N   UNL d   1      32.842  18.377 -23.946  0.00  0.00    -0.251 N 
ATOM      3  C   UNL d   1      32.652  18.597 -24.722  0.00  0.00     0.378 A 
ATOM      4  O   UNL d   1      32.259  17.976 -25.091  0.00  0.00    -0.258 OA
ATOM      5  O   UNL d   1      32.831  19.330 -25.069  0.00  0.00    -0.237 OA
ATOM      6  C   UNL d   1      32.203  17.351 -24.529  0.00  0.00     0.121 A 
ATOM      7  C   UNL d   1      31.872  16.596 -24.578  0.00  0.00     0.026 A 
ATOM      8  C   UNL d   1      32.560  17.602 -23.834  0.00  0.00     0.092 A 
ATOM      9  C   UNL d   1      31.901  16.093 -23.920  0.00  0.00     0.002 A 
ATOM     10  C   UNL d   1      32.258  16.344 -23.225  0.00  0.00     0.002 A 
ATOM     11  C   UNL d   1      32.591  17.102 -23.177  0.00  0.00     0.020 A 
ENDBRANCH   1   2
BRANCH   1  12
ATOM     12  C   UNL d   1      32.876  19.314 -22.875  0.00  0.00     0.046 C 
BRANCH  12  13
ATOM     13  C   UNL d   1      33.139  20.053 -22.613  0.00  0.00     0.124 C 
BRANCH  13  14
ATOM     14  O   UNL d   1      32.841  20.366 -21.910  0.00  0.00    -0.304 OA
BRANCH  14  15
ATOM     15  C   UNL d   1      32.852  21.187 -21.787  0.00  0.00     0.111 A 
ATOM     16  C   UNL d   1      32.489  21.512 -21.122  0.00  0.00     0.080 A 
ATOM     17 CL   UNL d   1      32.113  21.027 -20.571  0.00  0.00    -0.080 Cl
ATOM     18  C   UNL d   1      32.502  22.327 -21.004  0.00  0.00     0.013 A 
ATOM     19  C   UNL d   1      32.873  22.813 -21.546  0.00  0.00     0.001 A 
ATOM     20  C   UNL d   1      33.239  22.494 -22.216  0.00  0.00     0.002 A 
ATOM     21  C   UNL d   1      33.226  21.678 -22.334  0.00  0.00     0.026 A 
ENDBRANCH  14  15
ENDBRANCH  13  14
ENDBRANCH  12  13
ENDBRANCH   1  12
TORSDOF 5
ENDMDL
MODEL 2
REMARK VINA RESULT:      -2.6      1.228      1.609
REMARK  5 active torsions:
REMARK  status: ('A' for Active; 'I' for Inactive)
REMARK    1  A    between atoms: C_9  and  N_2 
REMARK    2  A    between atoms: C_8  and  O_11 
REMARK    3  A    between atoms: C_12  and  C_9 
REMARK    4  A    between atoms: O_11  and  C_15 
REMARK    5  A    between atoms: C_15  and  C_12 
ROOT
ATOM      1  C   UNL d   1      32.435  18.223 -23.863  0.00  0.00     0.087 C 
ENDROOT
BRANCH   1   2
ATOM      2  N   UNL d   1      32.006  17.519 -23.925  0.00  0.00    -0.251 N 
ATOM      3  C   UNL d   1      32.433  16.838 -23.720  0.00  0.00     0.378 A 
ATOM      4  O   UNL d   1      31.949  16.179 -23.804  0.00  0.00    -0.258 OA
ATOM      5  O   UNL d   1      33.225  16.828 -23.470  0.00  0.00    -0.237 OA
ATOM      6  C   UNL d   1      31.199  16.456 -24.069  0.00  0.00     0.121 A 
ATOM      7  C   UNL d   1      30.499  16.057 -24.248  0.00  0.00     0.026 A 
ATOM      8  C   UNL d   1      31.241  17.272 -24.140  0.00  0.00     0.092 A 
ATOM      9  C   UNL d   1      29.836  16.487 -24.501  0.00  0.00     0.002 A 
ATOM     10  C   UNL d   1      29.878  17.304 -24.572  0.00  0.00     0.002 A 
ATOM     11  C   UNL d   1      30.583  17.703 -24.392  0.00  0.00     0.020 A 
ENDBRANCH   1   2
BRANCH   1  12
ATOM     12  C   UNL d   1      32.616  18.526 -23.127  0.00  0.00     0.046 C 
BRANCH  12  13
ATOM     13  C   UNL d   1      32.867  19.312 -23.058  0.00  0.00     0.124 C 
BRANCH  13  14
ATOM     14  O   UNL d   1      32.870  19.676 -22.317  0.00  0.00    -0.304 OA
BRANCH  14  15
ATOM     15  C   UNL d   1      32.970  20.498 -22.262  0.00  0.00     0.111 A 
ATOM     16  C   UNL d   1      32.901  20.877 -21.534  0.00  0.00     0.080 A 
ATOM     17 CL   UNL d   1      32.731  20.446 -20.852  0.00  0.00    -0.080 Cl
ATOM     18  C   UNL d   1      33.001  21.692 -21.484  0.00  0.00     0.013 A 
ATOM     19  C   UNL d   1      33.169  22.126 -22.156  0.00  0.00     0.001 A 
ATOM     20  C   UNL d   1      33.241  21.752 -22.891  0.00  0.00     0.002 A 
ATOM     21  C   UNL d   1      33.141  20.936 -22.941  0.00  0.00     0.026 A 
ENDBRANCH  14  15
ENDBRANCH  13  14
ENDBRANCH  12  13
ENDBRANCH   1  12
TORSDOF 5
ENDMDL
MODEL 3
REMARK VINA RESULT:      -2.5      1.925      5.283
REMARK  5 active torsions:
REMARK  status: ('A' for Active; 'I' for Inactive)
REMARK    1  A    between atoms: C_9  and  N_2 
REMARK    2  A    between atoms: C_8  and  O_11 
REMARK    3  A    between atoms: C_12  and  C_9 
REMARK    4  A    between atoms: O_11  and  C_15 
REMARK    5  A    between atoms: C_15  and  C_12 
ROOT
ATOM      1  C   UNL d   1      32.585  21.380 -21.554  0.00  0.00     0.087 C 
ENDROOT
BRANCH   1   2
ATOM      2  N   UNL d   1      32.736  22.108 -21.193  0.00  0.00    -0.251 N 
ATOM      3  C   UNL d   1      32.733  22.755 -21.711  0.00  0.00     0.378 A 
ATOM      4  O   UNL d   1      32.889  23.442 -21.288  0.00  0.00    -0.258 OA
ATOM      5  O   UNL d   1      32.596  22.712 -22.529  0.00  0.00    -0.237 OA
ATOM      6  C   UNL d   1      32.991  23.219 -20.483  0.00  0.00     0.121 A 
ATOM      7  C   UNL d   1      33.156  23.661 -19.806  0.00  0.00     0.026 A 
ATOM      8  C   UNL d   1      32.896  22.405 -20.432  0.00  0.00     0.092 A 
ATOM      9  C   UNL d   1      33.227  23.279 -19.073  0.00  0.00     0.002 A 
ATOM     10  C   UNL d   1      33.132  22.465 -19.023  0.00  0.00     0.002 A 
ATOM     11  C   UNL d   1      32.966  22.021 -19.703  0.00  0.00     0.020 A 
ENDBRANCH   1   2
BRANCH   1  12
ATOM     12  C   UNL d   1      33.204  20.940 -21.857  0.00  0.00     0.046 C 
BRANCH  12  13
ATOM     13  C   UNL d   1      33.064  20.171 -22.129  0.00  0.00     0.124 C 
BRANCH  13  14
ATOM     14  O   UNL d   1      33.229  19.980 -22.914  0.00  0.00    -0.304 OA
BRANCH  14  15
ATOM     15  C   UNL d   1      33.188  19.189 -23.164  0.00  0.00     0.111 A 
ATOM     16  C   UNL d   1      33.124  19.010 -23.965  0.00  0.00     0.080 A 
ATOM     17 CL   UNL d   1      33.099  19.611 -24.529  0.00  0.00    -0.080 Cl
ATOM     18  C   UNL d   1      33.083  18.224 -24.208  0.00  0.00     0.013 A 
ATOM     19  C   UNL d   1      33.107  17.623 -23.656  0.00  0.00     0.001 A 
ATOM     20  C   UNL d   1      33.171  17.796 -22.848  0.00  0.00     0.002 A 
ATOM     21  C   UNL d   1      33.212  18.582 -22.605  0.00  0.00     0.026 A 
ENDBRANCH  14  15
ENDBRANCH  13  14
ENDBRANCH  12  13
ENDBRANCH   1  12
TORSDOF 5
ENDMDL
MODEL 4
REMARK VINA RESULT:      -1.7      1.877      2.622
REMARK  5 active torsions:
REMARK  status: ('A' for Active; 'I' for Inactive)
REMARK    1  A    between atoms: C_9  and  N_2 
REMARK    2  A    between atoms: C_8  and  O_11 
REMARK    3  A    between atoms: C_12  and  C_9 
REMARK    4  A    between atoms: O_11  and  C_15 
REMARK    5  A    between atoms: C_15  and  C_12 
ROOT
ATOM      1  C   UNL d   1      31.731  17.288 -24.339  0.00  0.00     0.087 C 
ENDROOT
BRANCH   1   2
ATOM      2  N   UNL d   1      31.125  16.739 -24.211  0.00  0.00    -0.251 N 
ATOM      3  C   UNL d   1      31.385  15.958 -24.115  0.00  0.00     0.378 A 
ATOM      4  O   UNL d   1      30.736  15.469 -23.993  0.00  0.00    -0.258 OA
ATOM      5  O   UNL d   1      32.178  15.712 -24.139  0.00  0.00    -0.237 OA
ATOM      6  C   UNL d   1      30.051  15.959 -24.014  0.00  0.00     0.121 A 
ATOM      7  C   UNL d   1      29.249  15.785 -23.927  0.00  0.00     0.026 A 
ATOM      8  C   UNL d   1      30.295  16.731 -24.147  0.00  0.00     0.092 A 
ATOM      9  C   UNL d   1      28.690  16.396 -23.975  0.00  0.00     0.002 A 
ATOM     10  C   UNL d   1      28.934  17.169 -24.108  0.00  0.00     0.002 A 
ATOM     11  C   UNL d   1      29.741  17.342 -24.195  0.00  0.00     0.020 A 
ENDBRANCH   1   2
BRANCH   1  12
ATOM     12  C   UNL d   1      32.234  17.488 -23.727  0.00  0.00     0.046 C 
BRANCH  12  13
ATOM     13  C   UNL d   1      32.493  18.270 -23.650  0.00  0.00     0.124 C 
BRANCH  13  14
ATOM     14  O   UNL d   1      32.730  18.550 -22.911  0.00  0.00    -0.304 OA
BRANCH  14  15
ATOM     15  C   UNL d   1      32.868  19.362 -22.803  0.00  0.00     0.111 A 
ATOM     16  C   UNL d   1      33.105  19.648 -22.068  0.00  0.00     0.080 A 
ATOM     17 CL   UNL d   1      33.209  19.134 -21.431  0.00  0.00    -0.080 Cl
ATOM     18  C   UNL d   1      33.241  20.453 -21.964  0.00  0.00     0.013 A 
ATOM     19  C   UNL d   1      33.140  20.969 -22.590  0.00  0.00     0.001 A 
ATOM     20  C   UNL d   1      32.902  20.689 -23.332  0.00  0.00     0.002 A 
ATOM     21  C   UNL d   1      32.766  19.882 -23.435  0.00  0.00     0.026 A 
ENDBRANCH  14  15
ENDBRANCH  13  14
ENDBRANCH  12  13
ENDBRANCH   1  12
TORSDOF 5
ENDMDL
MODEL 5
REMARK VINA RESULT:      -1.5      1.608      4.799
REMARK  5 active torsions:
REMARK  status: ('A' for Active; 'I' for Inactive)
REMARK    1  A    between atoms: C_9  and  N_2 
REMARK    2  A    between atoms: C_8  and  O_11 
REMARK    3  A    between atoms: C_12  and  C_9 
REMARK    4  A    between atoms: O_11  and  C_15 
REMARK    5  A    between atoms: C_15  and  C_12 
ROOT
ATOM      1  C   UNL d   1      32.781  20.591 -22.900  0.00  0.00     0.087 C 
ENDROOT
BRANCH   1   2
ATOM      2  N   UNL d   1      32.874  21.261 -22.424  0.00  0.00    -0.251 N 
ATOM      3  C   UNL d   1      33.105  21.943 -22.833  0.00  0.00     0.378 A 
ATOM      4  O   UNL d   1      33.179  22.566 -22.302  0.00  0.00    -0.258 OA
ATOM      5  O   UNL d   1      33.241  21.987 -23.651  0.00  0.00    -0.237 OA
ATOM      6  C   UNL d   1      32.987  22.264 -21.539  0.00  0.00     0.121 A 
ATOM      7  C   UNL d   1      32.963  22.623 -20.796  0.00  0.00     0.026 A 
ATOM      8  C   UNL d   1      32.803  21.468 -21.621  0.00  0.00     0.092 A 
ATOM      9  C   UNL d   1      32.750  22.175 -20.132  0.00  0.00     0.002 A 
ATOM     10  C   UNL d   1      32.566  21.380 -20.213  0.00  0.00     0.002 A 
ATOM     11  C   UNL d   1      32.591  21.020 -20.960  0.00  0.00     0.020 A 
ENDBRANCH   1   2
BRANCH   1  12
ATOM     12  C   UNL d   1      33.207  19.913 -22.737  0.00  0.00     0.046 C 
BRANCH  12  13
ATOM     13  C   UNL d   1      33.237  19.305 -23.298  0.00  0.00     0.124 C 
BRANCH  13  14
ATOM     14  O   UNL d   1      32.980  18.548 -23.093  0.00  0.00    -0.304 OA
BRANCH  14  15
ATOM     15  C   UNL d   1      32.946  17.954 -23.672  0.00  0.00     0.111 A 
ATOM     16  C   UNL d   1      32.619  17.219 -23.493  0.00  0.00     0.080 A 
ATOM     17 CL   UNL d   1      32.323  17.064 -22.739  0.00  0.00    -0.080 Cl
ATOM     18  C   UNL d   1      32.587  16.632 -24.070  0.00  0.00     0.013 A 
ATOM     19  C   UNL d   1      32.878  16.778 -24.819  0.00  0.00     0.001 A 
ATOM     20  C   UNL d   1      33.208  17.515 -25.006  0.00  0.00     0.002 A 
ATOM     21  C   UNL d   1      33.240  18.101 -24.428  0.00  0.00     0.026 A 
ENDBRANCH  14  15
ENDBRANCH  13  14
ENDBRANCH  12  13
ENDBRANCH   1  12
TORSDOF 5
ENDMDL
MODEL 6
REMARK VINA RESULT:      -0.5      1.668      5.078
REMARK  5 active torsions:
REMARK  status: ('A' for Active; 'I' for Inactive)
REMARK    1  A    between atoms: C_9  and  N_2 
REMARK    2  A    between atoms: C_8  and  O_11 
REMARK    3  A    between atoms: C_12  and  C_9 
REMARK    4  A    between atoms: O_11  and  C_15 
REMARK    5  A    between atoms: C_15  and  C_12 
ROOT
ATOM      1  C   UNL d   1      33.238  20.650 -21.989  0.00  0.00     0.087 C 
ENDROOT
BRANCH   1   2
ATOM      2  N   UNL d   1      32.985  21.255 -21.485  0.00  0.00    -0.251 N 
ATOM      3  C   UNL d   1      32.999  21.058 -20.680  0.00  0.00     0.378 A 
ATOM      4  O   UNL d   1      32.737  21.700 -20.239  0.00  0.00    -0.258 OA
ATOM      5  O   UNL d   1      33.241  20.326 -20.371  0.00  0.00    -0.237 OA
ATOM      6  C   UNL d   1      32.554  22.315 -20.784  0.00  0.00     0.121 A 
ATOM      7  C   UNL d   1      32.270  23.082 -20.672  0.00  0.00     0.026 A 
ATOM      8  C   UNL d   1      32.707  22.037 -21.541  0.00  0.00     0.092 A 
ATOM      9  C   UNL d   1      32.140  23.571 -21.328  0.00  0.00     0.002 A 
ATOM     10  C   UNL d   1      32.293  23.293 -22.086  0.00  0.00     0.002 A 
ATOM     11  C   UNL d   1      32.578  22.522 -22.197  0.00  0.00     0.020 A 
ENDBRANCH   1   2
BRANCH   1  12
ATOM     12  C   UNL d   1      32.724  20.048 -22.192  0.00  0.00     0.046 C 
BRANCH  12  13
ATOM     13  C   UNL d   1      32.853  19.617 -22.888  0.00  0.00     0.124 C 
BRANCH  13  14
ATOM     14  O   UNL d   1      32.878  18.793 -22.858  0.00  0.00    -0.304 OA
BRANCH  14  15
ATOM     15  C   UNL d   1      32.733  18.352 -23.546  0.00  0.00     0.111 A 
ATOM     16  C   UNL d   1      32.777  17.530 -23.529  0.00  0.00     0.080 A 
ATOM     17 CL   UNL d   1      32.965  17.135 -22.830  0.00  0.00    -0.080 Cl
ATOM     18  C   UNL d   1      32.632  17.095 -24.213  0.00  0.00     0.013 A 
ATOM     19  C   UNL d   1      32.445  17.480 -24.909  0.00  0.00     0.001 A 
ATOM     20  C   UNL d   1      32.399  18.306 -24.935  0.00  0.00     0.002 A 
ATOM     21  C   UNL d   1      32.544  18.740 -24.249  0.00  0.00     0.026 A 
ENDBRANCH  14  15
ENDBRANCH  13  14
ENDBRANCH  12  13
ENDBRANCH   1  12
TORSDOF 5
ENDMDL
