MODEL 1
REMARK VINA RESULT:      86.1      0.000      0.000
REMARK  5 active torsions:
REMARK  status: ('A' for Active; 'I' for Inactive)
REMARK    1  A    between atoms: C_12  and  C_4 
REMARK    2  A    between atoms: S_10  and  C_5 
REMARK    3  A    between atoms: C_15  and  S_10 
REMARK    4  A    between atoms: C_11  and  C_15 
REMARK       I    between atoms: N_13  and  C_11 
REMARK    5  A    between atoms: C_16  and  N_13 
ROOT
ATOM      1  N   UNL d   1     -54.796-100.128 -40.821  0.00  0.00    -0.206 N 
ATOM      2  C   UNL d   1     -54.845-100.824 -40.378  0.00  0.00     0.166 A 
ATOM      3  N   UNL d   1     -54.714 -99.384 -39.631  0.00  0.00    -0.163 NA
ATOM      4  C   UNL d   1     -54.828-100.800 -39.569  0.00  0.00     0.055 A 
ATOM      5  C   UNL d   1     -54.815-100.174 -41.625  0.00  0.00     0.116 A 
ATOM      6  C   UNL d   1     -54.762-100.068 -39.196  0.00  0.00     0.104 A 
ATOM      7  N   UNL d   1     -54.910-101.547 -40.753  0.00  0.00    -0.227 NA
ATOM      8  C   UNL d   1     -54.879-100.888 -42.015  0.00  0.00     0.045 A 
ATOM      9  C   UNL d   1     -54.928-101.579 -41.576  0.00  0.00     0.085 A 
ATOM     10  C   UNL d   1     -54.746-100.047 -38.391  0.00  0.00     0.023 C 
ATOM     11  C   UNL d   1     -54.996-102.334 -41.967  0.00  0.00     0.021 C 
ENDROOT
BRANCH   5  12
ATOM     12  S   UNL d   1     -54.764 -99.457 -42.081  0.00  0.00    -0.062 SA
BRANCH  12  13
ATOM     13  C   UNL d   1     -55.195 -98.774 -42.306  0.00  0.00     0.099 C 
BRANCH  13  14
ATOM     14  C   UNL d   1     -55.646 -98.775 -43.016  0.00  0.00     0.286 C 
ATOM     15  N   UNL d   1     -56.494 -98.764 -42.988  0.00  0.00    -0.208 NA
ATOM     16  O   UNL d   1     -55.256 -98.787 -43.766  0.00  0.00    -0.265 OA
BRANCH  15  17
ATOM     17  C   UNL d   1     -56.942 -98.765 -43.703  0.00  0.00     0.085 A 
ATOM     18  C   UNL d   1     -56.542 -98.770 -44.445  0.00  0.00     0.022 A 
ATOM     19  C   UNL d   1     -57.001 -98.771 -45.166  0.00  0.00     0.044 A 
ATOM     20  C   UNL d   1     -57.839 -98.767 -45.131  0.00  0.00     0.196 A 
ATOM     21  C   UNL d   1     -58.238 -98.762 -44.389  0.00  0.00     0.044 A 
ATOM     22  O   UNL d   1     -58.287 -98.768 -45.845  0.00  0.00    -0.287 OA
ATOM     23  C   UNL d   1     -57.786 -98.760 -43.672  0.00  0.00     0.022 A 
ENDBRANCH  15  17
ENDBRANCH  13  14
ENDBRANCH  12  13
ENDBRANCH   5  12
BRANCH   4  24
ATOM     24  C   UNL d   1     -54.876-101.485 -39.134  0.00  0.00     0.004 A 
ATOM     25  C   UNL d   1     -54.711-102.194 -39.477  0.00  0.00     0.000 A 
ATOM     26  C   UNL d   1     -54.759-102.879 -39.042  0.00  0.00     0.000 A 
ATOM     27  C   UNL d   1     -54.972-102.854 -38.264  0.00  0.00     0.000 A 
ATOM     28  C   UNL d   1     -55.139-102.123 -37.919  0.00  0.00     0.000 A 
ATOM     29  C   UNL d   1     -55.089-101.456 -38.357  0.00  0.00     0.000 A 
ENDBRANCH   4  24
TORSDOF 5
ENDMDL
