MODEL 1
REMARK VINA RESULT:      72.0      0.000      0.000
REMARK  3 active torsions:
REMARK  status: ('A' for Active; 'I' for Inactive)
REMARK    1  A    between atoms: C_9  and  C_4 
REMARK    2  A    between atoms: C_10  and  C_7 
REMARK    3  A    between atoms: C_11  and  C_10 
ROOT
ATOM      1  C   UNL d   1      60.383  47.782  50.690  0.00  0.00     0.179 A 
ATOM      2  N   UNL d   1      60.909  48.266  50.282  0.00  0.00    -0.282 N 
ATOM      3  N   UNL d   1      60.621  46.994  50.585  0.00  0.00    -0.221 NA
ATOM      4  C   UNL d   1      61.292  46.992  50.113  0.00  0.00     0.101 A 
ATOM      5  S   UNL d   1      59.820  48.264  51.049  0.00  0.00    -0.048 SA
ATOM      6  C   UNL d   1      61.473  47.776  49.923  0.00  0.00     0.101 A 
ATOM      7  C   UNL d   1      59.998  49.043  50.861  0.00  0.00     0.050 A 
ATOM      8  C   UNL d   1      60.676  49.043  50.384  0.00  0.00     0.089 A 
ENDROOT
BRANCH   7   9
ATOM      9  C   UNL d   1      59.576  49.707  51.106  0.00  0.00     0.008 C 
BRANCH   9  10
ATOM     10  C   UNL d   1      58.754  49.703  51.077  0.00  0.00     0.001 A 
ATOM     11  C   UNL d   1      58.316  49.694  51.780  0.00  0.00     0.002 A 
ATOM     12  C   UNL d   1      57.494  49.689  51.752  0.00  0.00     0.030 A 
ATOM     13  C   UNL d   1      57.105  49.694  51.024  0.00  0.00     0.140 A 
ATOM     14  C   UNL d   1      57.538  49.704  50.325  0.00  0.00     0.030 A 
ATOM     15  F   UNL d   1      56.274  49.690  51.001  0.00  0.00    -0.204 F 
ATOM     16  C   UNL d   1      58.364  49.708  50.350  0.00  0.00     0.002 A 
ENDBRANCH   9  10
ENDBRANCH   7   9
BRANCH   4  17
ATOM     17  C   UNL d   1      61.713  46.332  49.869  0.00  0.00     0.019 A 
ATOM     18  C   UNL d   1      62.471  46.415  49.564  0.00  0.00     0.002 A 
ATOM     19  C   UNL d   1      62.891  45.750  49.320  0.00  0.00     0.000 A 
ATOM     20  C   UNL d   1      62.552  45.000  49.381  0.00  0.00     0.000 A 
ATOM     21  C   UNL d   1      61.790  44.917  49.688  0.00  0.00     0.000 A 
ATOM     22  C   UNL d   1      61.369  45.580  49.932  0.00  0.00     0.002 A 
ENDBRANCH   4  17
TORSDOF 3
ENDMDL
