MODEL 1
REMARK VINA RESULT:      -4.4      0.000      0.000
REMARK  5 active torsions:
REMARK  status: ('A' for Active; 'I' for Inactive)
REMARK    1  A    between atoms: C_3  and  C_1 
REMARK    2  A    between atoms: C_6  and  C_9 
REMARK    3  A    between atoms: C_7  and  C_12 
REMARK    4  A    between atoms: C_9  and  C_11 
REMARK       I    between atoms: C_11  and  N_16 
REMARK    5  A    between atoms: N_16  and  C_18 
ROOT
ATOM      1  N   UNL d   1      58.579  -1.682  28.608  0.00  0.00    -0.207 NA
ATOM      2  C   UNL d   1      58.359  -0.919  28.875  0.00  0.00     0.285 A 
ATOM      3  S   UNL d   1      59.507  -0.896  29.746  0.00  0.00    -0.080 SA
ATOM      4  C   UNL d   1      58.821  -0.528  29.440  0.00  0.00     0.092 A 
ATOM      5  C   UNL d   1      59.260  -2.040  28.914  0.00  0.00     0.090 A 
ATOM      6  C   UNL d   1      59.724  -1.653  29.480  0.00  0.00     0.047 A 
ATOM      7  C   UNL d   1      60.153  -3.153  28.953  0.00  0.00     0.073 A 
ATOM      8  C   UNL d   1      59.475  -2.793  28.650  0.00  0.00     0.024 A 
ATOM      9  O   UNL d   1      57.685  -0.554  28.577  0.00  0.00    -0.265 OA
ATOM     10  C   UNL d   1      60.399  -2.011  29.782  0.00  0.00     0.008 A 
ATOM     11  C   UNL d   1      60.615  -2.762  29.519  0.00  0.00     0.004 A 
ENDROOT
BRANCH   4  12
ATOM     12  C   UNL d   1      58.614   0.216  29.706  0.00  0.00     0.074 C 
BRANCH  12  13
ATOM     13  C   UNL d   1      58.405   0.326  30.505  0.00  0.00     0.280 C 
ATOM     14  N   UNL d   1      57.627   0.193  30.753  0.00  0.00    -0.208 NA
ATOM     15  O   UNL d   1      58.788   0.490  30.883  0.00  0.00    -0.265 OA
BRANCH  14  16
ATOM     16  C   UNL d   1      57.429   0.304  31.546  0.00  0.00     0.085 A 
ATOM     17  C   UNL d   1      56.663   0.147  31.799  0.00  0.00     0.024 A 
ATOM     18  C   UNL d   1      56.465   0.258  32.592  0.00  0.00     0.084 A 
ATOM     19  C   UNL d   1      57.033   0.525  33.126  0.00  0.00     0.062 A 
ATOM     20  C   UNL d   1      57.803   0.682  32.863  0.00  0.00     0.013 A 
ATOM     21 CL   UNL d   1      56.836   0.634  33.906  0.00  0.00    -0.082 Cl
ATOM     22  C   UNL d   1      57.999   0.572  32.078  0.00  0.00     0.020 A 
BRANCH  18  23
ATOM     23  C   UNL d   1      55.710   0.103  32.844  0.00  0.00     0.420 C 
ATOM     24  F   UNL d   1      55.018  -0.043  33.077  0.00  0.00    -0.166 F 
ATOM     25  F   UNL d   1      55.377  -0.625  33.123  0.00  0.00    -0.166 F 
ATOM     26  F   UNL d   1      55.047   0.625  32.900  0.00  0.00    -0.166 F 
ENDBRANCH  18  23
ENDBRANCH  14  16
ENDBRANCH  12  13
ENDBRANCH   4  12
BRANCH   7  27
ATOM     27  C   UNL d   1      60.365  -3.891  28.694  0.00  0.00     0.419 C 
ATOM     28  F   UNL d   1      59.885  -4.580  28.584  0.00  0.00    -0.166 F 
ATOM     29  F   UNL d   1      61.133  -4.183  28.460  0.00  0.00    -0.166 F 
ATOM     30  F   UNL d   1      60.557  -4.572  28.456  0.00  0.00    -0.166 F 
ENDBRANCH   7  27
TORSDOF 5
ENDMDL
MODEL 2
REMARK VINA RESULT:      -3.8      1.900      5.672
REMARK  5 active torsions:
REMARK  status: ('A' for Active; 'I' for Inactive)
REMARK    1  A    between atoms: C_3  and  C_1 
REMARK    2  A    between atoms: C_6  and  C_9 
REMARK    3  A    between atoms: C_7  and  C_12 
REMARK    4  A    between atoms: C_9  and  C_11 
REMARK       I    between atoms: C_11  and  N_16 
REMARK    5  A    between atoms: N_16  and  C_18 
ROOT
ATOM      1  N   UNL d   1      56.282   0.428  31.759  0.00  0.00    -0.207 NA
ATOM      2  C   UNL d   1      56.836   0.513  31.138  0.00  0.00     0.285 A 
ATOM      3  S   UNL d   1      57.902   0.594  32.105  0.00  0.00    -0.080 SA
ATOM      4  C   UNL d   1      57.642   0.596  31.310  0.00  0.00     0.092 A 
ATOM      5  C   UNL d   1      56.545   0.427  32.544  0.00  0.00     0.090 A 
ATOM      6  C   UNL d   1      57.350   0.509  32.720  0.00  0.00     0.047 A 
ATOM      7  C   UNL d   1      56.256   0.340  33.939  0.00  0.00     0.073 A 
ATOM      8  C   UNL d   1      55.997   0.342  33.156  0.00  0.00     0.024 A 
ATOM      9  O   UNL d   1      56.585   0.516  30.355  0.00  0.00    -0.265 OA
ATOM     10  C   UNL d   1      57.609   0.507  33.500  0.00  0.00     0.008 A 
ATOM     11  C   UNL d   1      57.062   0.423  34.111  0.00  0.00     0.004 A 
ENDROOT
BRANCH   4  12
ATOM     12  C   UNL d   1      58.191   0.680  30.710  0.00  0.00     0.074 C 
BRANCH  12  13
ATOM     13  C   UNL d   1      58.648   0.025  30.474  0.00  0.00     0.280 C 
ATOM     14  N   UNL d   1      59.107   0.064  29.787  0.00  0.00    -0.208 NA
ATOM     15  O   UNL d   1      58.651  -0.449  30.777  0.00  0.00    -0.265 OA
BRANCH  14  16
ATOM     16  C   UNL d   1      59.556  -0.589  29.560  0.00  0.00     0.085 A 
ATOM     17  C   UNL d   1      59.181  -1.260  29.270  0.00  0.00     0.024 A 
ATOM     18  C   UNL d   1      59.630  -1.913  29.044  0.00  0.00     0.084 A 
ATOM     19  C   UNL d   1      60.452  -1.892  29.108  0.00  0.00     0.062 A 
ATOM     20  C   UNL d   1      60.823  -1.211  29.403  0.00  0.00     0.013 A 
ATOM     21 CL   UNL d   1      60.893  -2.535  28.885  0.00  0.00    -0.082 Cl
ATOM     22  C   UNL d   1      60.377  -0.565  29.627  0.00  0.00     0.020 A 
BRANCH  18  23
ATOM     23  C   UNL d   1      59.262  -2.576  28.757  0.00  0.00     0.420 C 
ATOM     24  F   UNL d   1      58.920  -3.183  28.494  0.00  0.00    -0.166 F 
ATOM     25  F   UNL d   1      58.434  -2.729  28.659  0.00  0.00    -0.166 F 
ATOM     26  F   UNL d   1      59.602  -3.297  28.476  0.00  0.00    -0.166 F 
ENDBRANCH  18  23
ENDBRANCH  14  16
ENDBRANCH  12  13
ENDBRANCH   4  12
BRANCH   7  27
ATOM     27  C   UNL d   1      55.718   0.258  34.540  0.00  0.00     0.419 C 
ATOM     28  F   UNL d   1      55.659   0.682  35.270  0.00  0.00    -0.166 F 
ATOM     29  F   UNL d   1      55.059  -0.282  34.605  0.00  0.00    -0.166 F 
ATOM     30  F   UNL d   1      55.224   0.183  35.094  0.00  0.00    -0.166 F 
ENDBRANCH   7  27
TORSDOF 5
ENDMDL
