MODEL 1
REMARK VINA RESULT:      42.4      0.000      0.000
REMARK  1 active torsions:
REMARK  status: ('A' for Active; 'I' for Inactive)
REMARK    1  A    between atoms: C_7  and  N_1 
ROOT
ATOM      1  N   UNL d   1     -54.735-101.242 -42.968  0.00  0.00    -0.259 N 
ATOM      2  C   UNL d   1     -54.724-100.404 -42.974  0.00  0.00     0.267 A 
ATOM      3  C   UNL d   1     -54.748-101.669 -43.676  0.00  0.00     0.150 A 
ATOM      4  N   UNL d   1     -54.749-101.263 -44.404  0.00  0.00    -0.228 NA
ATOM      5  C   UNL d   1     -54.726-100.008 -43.701  0.00  0.00     0.074 A 
ATOM      6  C   UNL d   1     -54.739-100.441 -44.417  0.00  0.00     0.088 A 
ATOM      7  O   UNL d   1     -54.712 -99.986 -42.265  0.00  0.00    -0.267 OA
ATOM      8  C   UNL d   1     -54.759-102.494 -43.667  0.00  0.00     0.041 C 
ATOM      9  C   UNL d   1     -54.715 -99.186 -43.709  0.00  0.00     0.006 A 
ATOM     10  C   UNL d   1     -54.740-100.028 -45.134  0.00  0.00     0.019 A 
ATOM     11  C   UNL d   1     -54.716 -98.787 -44.432  0.00  0.00     0.000 A 
ATOM     12  C   UNL d   1     -54.729 -99.207 -45.142  0.00  0.00     0.002 A 
ENDROOT
BRANCH   1  13
ATOM     13  C   UNL d   1     -54.734-101.644 -42.252  0.00  0.00     0.068 A 
ATOM     14  C   UNL d   1     -54.752-102.474 -42.240  0.00  0.00     0.020 A 
ATOM     15  C   UNL d   1     -54.751-102.872 -41.516  0.00  0.00     0.031 A 
ATOM     16  C   UNL d   1     -54.731-102.453 -40.807  0.00  0.00     0.140 A 
ATOM     17  C   UNL d   1     -54.713-101.628 -40.826  0.00  0.00     0.031 A 
ATOM     18  F   UNL d   1     -54.730-102.856 -40.091  0.00  0.00    -0.204 F 
ATOM     19  C   UNL d   1     -54.715-101.228 -41.546  0.00  0.00     0.020 A 
ENDBRANCH   1  13
TORSDOF 1
ENDMDL
