MODEL 1
REMARK VINA RESULT:      -8.8      0.000      0.000
REMARK  4 active torsions:
REMARK  status: ('A' for Active; 'I' for Inactive)
REMARK    1  A    between atoms: S_3  and  C_1 
REMARK    2  A    between atoms: C_7  and  S_3 
REMARK    3  A    between atoms: S_11  and  C_4 
REMARK    4  A    between atoms: C_10  and  C_5 
ROOT
ATOM      1  C   UNL d   1      52.378  33.293  53.300  0.00  0.00     0.199 A 
ATOM      2  N   UNL d   1      52.913  33.715  53.763  0.00  0.00    -0.208 NA
ATOM      3  C   UNL d   1      52.648  32.514  53.247  0.00  0.00     0.156 A 
ATOM      4  C   UNL d   1      53.515  33.198  53.997  0.00  0.00     0.184 A 
ATOM      5  O   UNL d   1      53.345  32.459  53.675  0.00  0.00    -0.281 OA
ENDROOT
BRANCH   1   6
ATOM      6  S   UNL d   1      51.697  33.601  52.955  0.00  0.00     0.229 S 
ATOM      7  O   UNL d   1      51.298  33.361  53.630  0.00  0.00    -0.215 OA
ATOM      8  O   UNL d   1      52.092  33.844  52.277  0.00  0.00    -0.215 OA
BRANCH   6   9
ATOM      9  C   UNL d   1      51.020  33.912  52.602  0.00  0.00     0.089 A 
ATOM     10  C   UNL d   1      50.366  34.100  53.068  0.00  0.00     0.011 A 
ATOM     11  C   UNL d   1      49.692  34.410  52.714  0.00  0.00     0.001 A 
ATOM     12  C   UNL d   1      49.663  34.536  51.901  0.00  0.00     0.000 A 
ATOM     13  C   UNL d   1      50.321  34.347  51.435  0.00  0.00     0.001 A 
ATOM     14  C   UNL d   1      48.985  34.848  51.548  0.00  0.00     0.000 C 
ATOM     15  C   UNL d   1      50.990  34.039  51.784  0.00  0.00     0.011 A 
ENDBRANCH   6   9
ENDBRANCH   1   6
BRANCH   3  16
ATOM     16  S   UNL d   1      52.280  31.904  52.836  0.00  0.00    -0.086 SA
ATOM     17  C   UNL d   1      52.602  31.146  52.858  0.00  0.00     0.076 C 
ENDBRANCH   3  16
BRANCH   4  18
ATOM     18  C   UNL d   1      54.167  33.392  54.468  0.00  0.00     0.041 A 
ATOM     19  C   UNL d   1      54.881  33.623  54.113  0.00  0.00     0.004 A 
ATOM     20  C   UNL d   1      55.529  33.815  54.586  0.00  0.00     0.000 A 
ATOM     21  C   UNL d   1      55.467  33.778  55.399  0.00  0.00     0.000 A 
ATOM     22  C   UNL d   1      54.758  33.548  55.759  0.00  0.00     0.000 A 
ATOM     23  C   UNL d   1      54.114  33.357  55.298  0.00  0.00     0.004 A 
ENDBRANCH   4  18
TORSDOF 4
ENDMDL
MODEL 2
REMARK VINA RESULT:      -8.5      1.586      2.360
REMARK  4 active torsions:
REMARK  status: ('A' for Active; 'I' for Inactive)
REMARK    1  A    between atoms: S_3  and  C_1 
REMARK    2  A    between atoms: C_7  and  S_3 
REMARK    3  A    between atoms: S_11  and  C_4 
REMARK    4  A    between atoms: C_10  and  C_5 
ROOT
ATOM      1  C   UNL d   1      51.626  33.574  52.960  0.00  0.00     0.199 A 
ATOM      2  N   UNL d   1      51.773  32.764  52.917  0.00  0.00    -0.208 NA
ATOM      3  C   UNL d   1      52.293  33.935  53.286  0.00  0.00     0.156 A 
ATOM      4  C   UNL d   1      52.532  32.624  53.215  0.00  0.00     0.184 A 
ATOM      5  O   UNL d   1      52.846  33.351  53.440  0.00  0.00    -0.281 OA
ENDROOT
BRANCH   1   6
ATOM      6  S   UNL d   1      50.933  33.947  52.720  0.00  0.00     0.229 S 
ATOM      7  O   UNL d   1      51.337  34.167  52.042  0.00  0.00    -0.215 OA
ATOM      8  O   UNL d   1      50.524  33.730  53.398  0.00  0.00    -0.215 OA
BRANCH   6   9
ATOM      9  C   UNL d   1      50.234  34.318  52.488  0.00  0.00     0.089 A 
ATOM     10  C   UNL d   1      49.973  34.246  51.709  0.00  0.00     0.011 A 
ATOM     11  C   UNL d   1      49.276  34.617  51.479  0.00  0.00     0.001 A 
ATOM     12  C   UNL d   1      48.837  35.059  52.016  0.00  0.00     0.000 A 
ATOM     13  C   UNL d   1      49.100  35.130  52.799  0.00  0.00     0.001 A 
ATOM     14  C   UNL d   1      48.137  35.430  51.784  0.00  0.00     0.000 C 
ATOM     15  C   UNL d   1      49.792  34.763  53.028  0.00  0.00     0.011 A 
ENDBRANCH   6   9
ENDBRANCH   1   6
BRANCH   3  16
ATOM     16  S   UNL d   1      52.384  34.740  53.428  0.00  0.00    -0.086 SA
ATOM     17  C   UNL d   1      53.052  35.011  53.827  0.00  0.00     0.076 C 
ENDBRANCH   3  16
BRANCH   4  18
ATOM     18  C   UNL d   1      52.903  31.887  53.274  0.00  0.00     0.041 A 
ATOM     19  C   UNL d   1      52.558  31.219  52.920  0.00  0.00     0.004 A 
ATOM     20  C   UNL d   1      52.931  30.487  52.981  0.00  0.00     0.000 A 
ATOM     21  C   UNL d   1      53.636  30.418  53.387  0.00  0.00     0.000 A 
ATOM     22  C   UNL d   1      53.985  31.080  53.742  0.00  0.00     0.000 A 
ATOM     23  C   UNL d   1      53.622  31.807  53.686  0.00  0.00     0.004 A 
ENDBRANCH   4  18
TORSDOF 4
ENDMDL
MODEL 3
REMARK VINA RESULT:      -8.1      1.561      4.486
REMARK  4 active torsions:
REMARK  status: ('A' for Active; 'I' for Inactive)
REMARK    1  A    between atoms: S_3  and  C_1 
REMARK    2  A    between atoms: C_7  and  S_3 
REMARK    3  A    between atoms: S_11  and  C_4 
REMARK    4  A    between atoms: C_10  and  C_5 
ROOT
ATOM      1  C   UNL d   1      51.815  33.394  53.061  0.00  0.00     0.199 A 
ATOM      2  N   UNL d   1      51.034  33.438  52.800  0.00  0.00    -0.208 NA
ATOM      3  C   UNL d   1      52.079  34.165  53.197  0.00  0.00     0.156 A 
ATOM      4  C   UNL d   1      50.815  34.235  52.775  0.00  0.00     0.184 A 
ATOM      5  O   UNL d   1      51.465  34.677  53.021  0.00  0.00    -0.281 OA
ENDROOT
BRANCH   1   6
ATOM      6  S   UNL d   1      52.246  32.701  53.165  0.00  0.00     0.229 S 
ATOM      7  O   UNL d   1      52.005  32.718  53.948  0.00  0.00    -0.215 OA
ATOM      8  O   UNL d   1      52.490  32.679  52.381  0.00  0.00    -0.215 OA
BRANCH   6   9
ATOM      9  C   UNL d   1      52.681  32.007  53.258  0.00  0.00     0.089 A 
ATOM     10  C   UNL d   1      52.430  31.315  52.887  0.00  0.00     0.011 A 
ATOM     11  C   UNL d   1      52.864  30.624  52.981  0.00  0.00     0.001 A 
ATOM     12  C   UNL d   1      53.546  30.614  53.442  0.00  0.00     0.000 A 
ATOM     13  C   UNL d   1      53.797  31.310  53.815  0.00  0.00     0.001 A 
ATOM     14  C   UNL d   1      53.981  29.919  53.535  0.00  0.00     0.000 C 
ATOM     15  C   UNL d   1      53.367  31.997  53.722  0.00  0.00     0.011 A 
ENDBRANCH   6   9
ENDBRANCH   1   6
BRANCH   3  16
ATOM     16  S   UNL d   1      52.828  34.376  53.463  0.00  0.00    -0.086 SA
ATOM     17  C   UNL d   1      52.990  35.164  53.642  0.00  0.00     0.076 C 
ENDBRANCH   3  16
BRANCH   4  18
ATOM     18  C   UNL d   1      50.078  34.530  52.544  0.00  0.00     0.041 A 
ATOM     19  C   UNL d   1      49.808  34.412  51.767  0.00  0.00     0.004 A 
ATOM     20  C   UNL d   1      49.072  34.707  51.541  0.00  0.00     0.000 A 
ATOM     21  C   UNL d   1      48.612  35.115  52.078  0.00  0.00     0.000 A 
ATOM     22  C   UNL d   1      48.875  35.236  52.853  0.00  0.00     0.000 A 
ATOM     23  C   UNL d   1      49.601  34.947  53.084  0.00  0.00     0.004 A 
ENDBRANCH   4  18
TORSDOF 4
ENDMDL
MODEL 4
REMARK VINA RESULT:      -7.7      1.615      2.752
REMARK  4 active torsions:
REMARK  status: ('A' for Active; 'I' for Inactive)
REMARK    1  A    between atoms: S_3  and  C_1 
REMARK    2  A    between atoms: C_7  and  S_3 
REMARK    3  A    between atoms: S_11  and  C_4 
REMARK    4  A    between atoms: C_10  and  C_5 
ROOT
ATOM      1  C   UNL d   1      52.725  32.129  53.424  0.00  0.00     0.199 A 
ATOM      2  N   UNL d   1      52.559  31.340  53.590  0.00  0.00    -0.208 NA
ATOM      3  C   UNL d   1      53.532  32.251  53.553  0.00  0.00     0.156 A 
ATOM      4  C   UNL d   1      53.262  30.971  53.823  0.00  0.00     0.184 A 
ATOM      5  O   UNL d   1      53.858  31.540  53.797  0.00  0.00    -0.281 OA
ENDROOT
BRANCH   1   6
ATOM      6  S   UNL d   1      52.178  32.691  53.173  0.00  0.00     0.229 S 
ATOM      7  O   UNL d   1      52.278  32.389  52.418  0.00  0.00    -0.215 OA
ATOM      8  O   UNL d   1      52.075  32.997  53.928  0.00  0.00    -0.215 OA
BRANCH   6   9
ATOM      9  C   UNL d   1      51.629  33.256  52.932  0.00  0.00     0.089 A 
ATOM     10  C   UNL d   1      50.943  33.374  53.374  0.00  0.00     0.011 A 
ATOM     11  C   UNL d   1      50.396  33.938  53.132  0.00  0.00     0.001 A 
ATOM     12  C   UNL d   1      50.526  34.387  52.455  0.00  0.00     0.000 A 
ATOM     13  C   UNL d   1      51.216  34.268  52.012  0.00  0.00     0.001 A 
ATOM     14  C   UNL d   1      49.976  34.953  52.214  0.00  0.00     0.000 C 
ATOM     15  C   UNL d   1      51.759  33.708  52.251  0.00  0.00     0.011 A 
ENDBRANCH   6   9
ENDBRANCH   1   6
BRANCH   3  16
ATOM     16  S   UNL d   1      53.934  32.961  53.454  0.00  0.00    -0.086 SA
ATOM     17  C   UNL d   1      54.737  33.004  53.633  0.00  0.00     0.076 C 
ENDBRANCH   3  16
BRANCH   4  18
ATOM     18  C   UNL d   1      53.347  30.178  54.040  0.00  0.00     0.041 A 
ATOM     19  C   UNL d   1      53.262  29.954  54.835  0.00  0.00     0.004 A 
ATOM     20  C   UNL d   1      53.347  29.162  55.047  0.00  0.00     0.000 A 
ATOM     21  C   UNL d   1      53.515  28.601  54.479  0.00  0.00     0.000 A 
ATOM     22  C   UNL d   1      53.602  28.818  53.684  0.00  0.00     0.000 A 
ATOM     23  C   UNL d   1      53.519  29.598  53.467  0.00  0.00     0.004 A 
ENDBRANCH   4  18
TORSDOF 4
ENDMDL
MODEL 5
REMARK VINA RESULT:      -7.6      1.661      4.575
REMARK  4 active torsions:
REMARK  status: ('A' for Active; 'I' for Inactive)
REMARK    1  A    between atoms: S_3  and  C_1 
REMARK    2  A    between atoms: C_7  and  S_3 
REMARK    3  A    between atoms: S_11  and  C_4 
REMARK    4  A    between atoms: C_10  and  C_5 
ROOT
ATOM      1  C   UNL d   1      52.871  31.984  53.425  0.00  0.00     0.199 A 
ATOM      2  N   UNL d   1      52.131  32.279  53.213  0.00  0.00    -0.208 NA
ATOM      3  C   UNL d   1      53.420  32.596  53.345  0.00  0.00     0.156 A 
ATOM      4  C   UNL d   1      52.222  33.074  53.002  0.00  0.00     0.184 A 
ATOM      5  O   UNL d   1      53.019  33.262  53.086  0.00  0.00    -0.281 OA
ENDROOT
BRANCH   1   6
ATOM      6  S   UNL d   1      53.026  31.214  53.671  0.00  0.00     0.229 S 
ATOM      7  O   UNL d   1      52.890  30.984  52.896  0.00  0.00    -0.215 OA
ATOM      8  O   UNL d   1      53.163  31.439  54.448  0.00  0.00    -0.215 OA
BRANCH   6   9
ATOM      9  C   UNL d   1      53.183  30.446  53.927  0.00  0.00     0.089 A 
ATOM     10  C   UNL d   1      53.396  29.868  53.378  0.00  0.00     0.011 A 
ATOM     11  C   UNL d   1      53.552  29.104  53.635  0.00  0.00     0.001 A 
ATOM     12  C   UNL d   1      53.498  28.907  54.432  0.00  0.00     0.000 A 
ATOM     13  C   UNL d   1      53.283  29.489  54.982  0.00  0.00     0.001 A 
ATOM     14  C   UNL d   1      53.655  28.139  54.688  0.00  0.00     0.000 C 
ATOM     15  C   UNL d   1      53.128  30.249  54.729  0.00  0.00     0.011 A 
ENDBRANCH   6   9
ENDBRANCH   1   6
BRANCH   3  16
ATOM     16  S   UNL d   1      54.226  32.543  53.499  0.00  0.00    -0.086 SA
ATOM     17  C   UNL d   1      54.697  33.217  53.445  0.00  0.00     0.076 C 
ENDBRANCH   3  16
BRANCH   4  18
ATOM     18  C   UNL d   1      51.619  33.583  52.753  0.00  0.00     0.041 A 
ATOM     19  C   UNL d   1      50.981  33.749  53.258  0.00  0.00     0.004 A 
ATOM     20  C   UNL d   1      50.383  34.257  53.006  0.00  0.00     0.000 A 
ATOM     21  C   UNL d   1      50.417  34.595  52.264  0.00  0.00     0.000 A 
ATOM     22  C   UNL d   1      51.050  34.433  51.755  0.00  0.00     0.000 A 
ATOM     23  C   UNL d   1      51.646  33.932  51.997  0.00  0.00     0.004 A 
ENDBRANCH   4  18
TORSDOF 4
ENDMDL
