MODEL 1
REMARK VINA RESULT:      -5.3      0.000      0.000
REMARK  4 active torsions:
REMARK  status: ('A' for Active; 'I' for Inactive)
REMARK    1  A    between atoms: C_9  and  N_2 
REMARK    2  A    between atoms: C_7  and  O_10 
REMARK    3  A    between atoms: C_11  and  C_9 
REMARK    4  A    between atoms: O_10  and  C_11 
ROOT
ATOM      1  C   UNL d   1     -41.220-121.801 -51.707  0.00  0.00     0.378 A 
ATOM      2  N   UNL d   1     -41.196-122.633 -51.667  0.00  0.00    -0.249 N 
ATOM      3  O   UNL d   1     -41.271-121.583 -52.506  0.00  0.00    -0.258 OA
ATOM      4  C   UNL d   1     -41.233-122.923 -52.441  0.00  0.00     0.092 A 
ATOM      5  C   UNL d   1     -41.279-122.274 -52.957  0.00  0.00     0.121 A 
ATOM      6  O   UNL d   1     -41.196-121.294 -51.060  0.00  0.00    -0.237 OA
ATOM      7  C   UNL d   1     -41.231-123.694 -52.742  0.00  0.00     0.020 A 
ATOM      8  C   UNL d   1     -41.323-122.408 -53.778  0.00  0.00     0.026 A 
ATOM      9  C   UNL d   1     -41.274-123.814 -53.557  0.00  0.00     0.002 A 
ATOM     10  C   UNL d   1     -41.320-123.175 -54.072  0.00  0.00     0.002 A 
ENDROOT
BRANCH   2  11
ATOM     11  C   UNL d   1     -41.145-123.120 -51.002  0.00  0.00     0.112 C 
BRANCH  11  12
ATOM     12  C   UNL d   1     -41.621-122.975 -50.353  0.00  0.00     0.142 C 
BRANCH  12  13
ATOM     13  O   UNL d   1     -41.916-123.606 -49.912  0.00  0.00    -0.304 OA
BRANCH  13  14
ATOM     14  C   UNL d   1     -42.017-123.526 -49.095  0.00  0.00     0.100 A 
ATOM     15  C   UNL d   1     -42.769-123.595 -48.777  0.00  0.00     0.023 A 
ATOM     16  C   UNL d   1     -43.416-123.740 -49.262  0.00  0.00     0.002 C 
ATOM     17  C   UNL d   1     -42.878-123.517 -47.959  0.00  0.00     0.002 A 
ATOM     18  C   UNL d   1     -42.222-123.370 -47.475  0.00  0.00     0.000 A 
ATOM     19  C   UNL d   1     -41.469-123.303 -47.806  0.00  0.00     0.002 A 
ATOM     20  C   UNL d   1     -41.371-123.381 -48.613  0.00  0.00     0.025 A 
ENDBRANCH  13  14
ENDBRANCH  12  13
ENDBRANCH  11  12
ENDBRANCH   2  11
TORSDOF 4
ENDMDL
MODEL 2
REMARK VINA RESULT:      -5.3      1.088      4.503
REMARK  4 active torsions:
REMARK  status: ('A' for Active; 'I' for Inactive)
REMARK    1  A    between atoms: C_9  and  N_2 
REMARK    2  A    between atoms: C_7  and  O_10 
REMARK    3  A    between atoms: C_11  and  C_9 
REMARK    4  A    between atoms: O_10  and  C_11 
ROOT
ATOM      1  C   UNL d   1     -42.860-122.083 -50.697  0.00  0.00     0.378 A 
ATOM      2  N   UNL d   1     -42.101-122.381 -50.867  0.00  0.00    -0.249 N 
ATOM      3  O   UNL d   1     -43.106-122.404 -49.972  0.00  0.00    -0.258 OA
ATOM      4  C   UNL d   1     -41.883-122.883 -50.247  0.00  0.00     0.092 A 
ATOM      5  C   UNL d   1     -42.505-122.896 -49.695  0.00  0.00     0.121 A 
ATOM      6  O   UNL d   1     -43.282-121.561 -51.173  0.00  0.00    -0.237 OA
ATOM      7  C   UNL d   1     -41.200-123.330 -50.113  0.00  0.00     0.020 A 
ATOM      8  C   UNL d   1     -42.432-123.362 -49.010  0.00  0.00     0.026 A 
ATOM      9  C   UNL d   1     -41.140-123.789 -49.429  0.00  0.00     0.002 A 
ATOM     10  C   UNL d   1     -41.752-123.805 -48.881  0.00  0.00     0.002 A 
ENDROOT
BRANCH   2  11
ATOM     11  C   UNL d   1     -41.618-122.231 -51.519  0.00  0.00     0.112 C 
BRANCH  11  12
ATOM     12  C   UNL d   1     -41.893-122.383 -52.274  0.00  0.00     0.142 C 
BRANCH  12  13
ATOM     13  O   UNL d   1     -41.362-122.434 -52.903  0.00  0.00    -0.304 OA
BRANCH  13  14
ATOM     14  C   UNL d   1     -41.637-122.386 -53.681  0.00  0.00     0.100 A 
ATOM     15  C   UNL d   1     -41.515-123.018 -54.187  0.00  0.00     0.023 A 
ATOM     16  C   UNL d   1     -41.124-123.692 -53.926  0.00  0.00     0.002 C 
ATOM     17  C   UNL d   1     -41.788-122.978 -54.968  0.00  0.00     0.002 A 
ATOM     18  C   UNL d   1     -42.182-122.295 -55.226  0.00  0.00     0.000 A 
ATOM     19  C   UNL d   1     -42.300-121.665 -54.707  0.00  0.00     0.002 A 
ATOM     20  C   UNL d   1     -42.027-121.713 -53.939  0.00  0.00     0.025 A 
ENDBRANCH  13  14
ENDBRANCH  12  13
ENDBRANCH  11  12
ENDBRANCH   2  11
TORSDOF 4
ENDMDL
MODEL 3
REMARK VINA RESULT:      -5.1      1.027      4.403
REMARK  4 active torsions:
REMARK  status: ('A' for Active; 'I' for Inactive)
REMARK    1  A    between atoms: C_9  and  N_2 
REMARK    2  A    between atoms: C_7  and  O_10 
REMARK    3  A    between atoms: C_11  and  C_9 
REMARK    4  A    between atoms: O_10  and  C_11 
ROOT
ATOM      1  C   UNL d   1     -43.025-122.356 -50.254  0.00  0.00     0.378 A 
ATOM      2  N   UNL d   1     -42.205-122.482 -50.332  0.00  0.00    -0.249 N 
ATOM      3  O   UNL d   1     -43.273-122.707 -49.544  0.00  0.00    -0.258 OA
ATOM      4  C   UNL d   1     -41.952-122.909 -49.671  0.00  0.00     0.092 A 
ATOM      5  C   UNL d   1     -42.612-123.047 -49.185  0.00  0.00     0.121 A 
ATOM      6  O   UNL d   1     -43.496-121.952 -50.793  0.00  0.00    -0.237 OA
ATOM      7  C   UNL d   1     -41.207-123.190 -49.448  0.00  0.00     0.020 A 
ATOM      8  C   UNL d   1     -42.515-123.470 -48.475  0.00  0.00     0.026 A 
ATOM      9  C   UNL d   1     -41.123-123.608 -48.741  0.00  0.00     0.002 A 
ATOM     10  C   UNL d   1     -41.773-123.747 -48.257  0.00  0.00     0.002 A 
ENDROOT
BRANCH   2  11
ATOM     11  C   UNL d   1     -41.699-122.244 -50.939  0.00  0.00     0.112 C 
BRANCH  11  12
ATOM     12  C   UNL d   1     -41.706-122.639 -51.655  0.00  0.00     0.142 C 
BRANCH  12  13
ATOM     13  O   UNL d   1     -41.594-122.219 -52.356  0.00  0.00    -0.304 OA
BRANCH  13  14
ATOM     14  C   UNL d   1     -41.481-122.626 -53.067  0.00  0.00     0.100 A 
ATOM     15  C   UNL d   1     -41.595-122.232 -53.775  0.00  0.00     0.023 A 
ATOM     16  C   UNL d   1     -41.819-121.441 -53.781  0.00  0.00     0.002 C 
ATOM     17  C   UNL d   1     -41.484-122.633 -54.492  0.00  0.00     0.002 A 
ATOM     18  C   UNL d   1     -41.259-123.430 -54.480  0.00  0.00     0.000 A 
ATOM     19  C   UNL d   1     -41.146-123.818 -53.760  0.00  0.00     0.002 A 
ATOM     20  C   UNL d   1     -41.258-123.414 -53.059  0.00  0.00     0.025 A 
ENDBRANCH  13  14
ENDBRANCH  12  13
ENDBRANCH  11  12
ENDBRANCH   2  11
TORSDOF 4
ENDMDL
MODEL 4
REMARK VINA RESULT:      -4.9      1.262      4.626
REMARK  4 active torsions:
REMARK  status: ('A' for Active; 'I' for Inactive)
REMARK    1  A    between atoms: C_9  and  N_2 
REMARK    2  A    between atoms: C_7  and  O_10 
REMARK    3  A    between atoms: C_11  and  C_9 
REMARK    4  A    between atoms: O_10  and  C_11 
ROOT
ATOM      1  C   UNL d   1     -41.315-121.341 -51.277  0.00  0.00     0.378 A 
ATOM      2  N   UNL d   1     -41.312-122.115 -51.585  0.00  0.00    -0.249 N 
ATOM      3  O   UNL d   1     -41.543-121.383 -50.480  0.00  0.00    -0.258 OA
ATOM      4  C   UNL d   1     -41.538-122.629 -50.978  0.00  0.00     0.092 A 
ATOM      5  C   UNL d   1     -41.680-122.175 -50.296  0.00  0.00     0.121 A 
ATOM      6  O   UNL d   1     -41.123-120.663 -51.700  0.00  0.00    -0.237 OA
ATOM      7  C   UNL d   1     -41.633-123.451 -50.956  0.00  0.00     0.020 A 
ATOM      8  C   UNL d   1     -41.918-122.555 -49.595  0.00  0.00     0.026 A 
ATOM      9  C   UNL d   1     -41.869-123.817 -50.255  0.00  0.00     0.002 A 
ATOM     10  C   UNL d   1     -42.011-123.372 -49.579  0.00  0.00     0.002 A 
ENDROOT
BRANCH   2  11
ATOM     11  C   UNL d   1     -41.125-122.371 -52.348  0.00  0.00     0.112 C 
BRANCH  11  12
ATOM     12  C   UNL d   1     -41.578-122.124 -52.983  0.00  0.00     0.142 C 
BRANCH  12  13
ATOM     13  O   UNL d   1     -41.328-122.283 -53.752  0.00  0.00    -0.304 OA
BRANCH  13  14
ATOM     14  C   UNL d   1     -41.855-122.200 -54.383  0.00  0.00     0.100 A 
ATOM     15  C   UNL d   1     -41.790-122.701 -55.027  0.00  0.00     0.023 A 
ATOM     16  C   UNL d   1     -41.207-123.281 -55.048  0.00  0.00     0.002 C 
ATOM     17  C   UNL d   1     -42.315-122.624 -55.664  0.00  0.00     0.002 A 
ATOM     18  C   UNL d   1     -42.900-122.038 -55.638  0.00  0.00     0.000 A 
ATOM     19  C   UNL d   1     -42.957-121.539 -54.984  0.00  0.00     0.002 A 
ATOM     20  C   UNL d   1     -42.436-121.622 -54.361  0.00  0.00     0.025 A 
ENDBRANCH  13  14
ENDBRANCH  12  13
ENDBRANCH  11  12
ENDBRANCH   2  11
TORSDOF 4
ENDMDL
