MODEL 1
REMARK VINA RESULT:      -4.1      0.000      0.000
REMARK  5 active torsions:
REMARK  status: ('A' for Active; 'I' for Inactive)
REMARK    1  A    between atoms: C_2  and  C_1 
REMARK    2  A    between atoms: C_8  and  C_2 
REMARK    3  A    between atoms: O_18  and  C_7 
REMARK    4  A    between atoms: C_13  and  C_8 
REMARK    5  A    between atoms: O_20  and  C_11 
ROOT
ATOM      1  C   UNL d   1     -42.234-122.793 -50.164  0.00  0.00     0.202 C 
ATOM      2  O   UNL d   1     -42.882-122.536 -50.606  0.00  0.00    -0.286 OA
ENDROOT
BRANCH   1   3
ATOM      3  C   UNL d   1     -42.340-123.046 -49.387  0.00  0.00     0.117 A 
ATOM      4  C   UNL d   1     -41.819-122.791 -48.797  0.00  0.00     0.205 A 
ATOM      5  C   UNL d   1     -41.922-123.042 -48.020  0.00  0.00     0.084 A 
ATOM      6  O   UNL d   1     -41.194-122.284 -48.981  0.00  0.00    -0.286 OA
ATOM      7  C   UNL d   1     -42.544-123.549 -47.828  0.00  0.00     0.202 A 
ATOM      8  C   UNL d   1     -43.064-123.804 -48.413  0.00  0.00     0.084 A 
ATOM      9  O   UNL d   1     -42.645-123.800 -47.043  0.00  0.00    -0.286 OA
ATOM     10  C   UNL d   1     -42.962-123.553 -49.195  0.00  0.00     0.205 A 
ATOM     11  O   UNL d   1     -43.481-123.808 -49.780  0.00  0.00    -0.286 OA
ENDBRANCH   1   3
BRANCH   1  12
ATOM     12  C   UNL d   1     -41.486-122.794 -50.500  0.00  0.00     0.042 C 
BRANCH  12  13
ATOM     13  C   UNL d   1     -41.397-122.869 -51.315  0.00  0.00     0.005 A 
ATOM     14  C   UNL d   1     -41.475-122.206 -51.798  0.00  0.00     0.026 A 
ATOM     15  C   UNL d   1     -41.386-122.281 -52.613  0.00  0.00     0.116 A 
ATOM     16  C   UNL d   1     -41.218-123.017 -52.945  0.00  0.00     0.116 A 
ATOM     17  C   UNL d   1     -41.139-123.681 -52.458  0.00  0.00     0.026 A 
ATOM     18  C   UNL d   1     -41.230-123.599 -51.640  0.00  0.00     0.002 A 
BRANCH  15  19
ATOM     19  O   UNL d   1     -41.464-121.615 -53.103  0.00  0.00    -0.326 OA
ATOM     20  C   UNL d   1     -41.270-120.867 -52.818  0.00  0.00     0.181 C 
ENDBRANCH  15  19
BRANCH  16  21
ATOM     21  O   UNL d   1     -41.125-123.102 -53.766  0.00  0.00    -0.326 OA
ATOM     22  C   UNL d   1     -41.270-123.817 -54.130  0.00  0.00     0.181 C 
ENDBRANCH  16  21
ENDBRANCH  12  13
ENDBRANCH   1  12
TORSDOF 5
ENDMDL
MODEL 2
REMARK VINA RESULT:      -3.8      1.423      4.736
REMARK  5 active torsions:
REMARK  status: ('A' for Active; 'I' for Inactive)
REMARK    1  A    between atoms: C_2  and  C_1 
REMARK    2  A    between atoms: C_8  and  C_2 
REMARK    3  A    between atoms: O_18  and  C_7 
REMARK    4  A    between atoms: C_13  and  C_8 
REMARK    5  A    between atoms: O_20  and  C_11 
ROOT
ATOM      1  C   UNL d   1     -41.915-122.792 -53.186  0.00  0.00     0.202 C 
ATOM      2  O   UNL d   1     -42.210-123.535 -52.981  0.00  0.00    -0.286 OA
ENDROOT
BRANCH   1   3
ATOM      3  C   UNL d   1     -41.992-122.517 -53.960  0.00  0.00     0.117 A 
ATOM      4  C   UNL d   1     -41.595-122.903 -54.574  0.00  0.00     0.205 A 
ATOM      5  C   UNL d   1     -41.669-122.632 -55.347  0.00  0.00     0.084 A 
ATOM      6  O   UNL d   1     -41.123-123.561 -54.418  0.00  0.00    -0.286 OA
ATOM      7  C   UNL d   1     -42.140-121.974 -55.511  0.00  0.00     0.202 A 
ATOM      8  C   UNL d   1     -42.536-121.588 -54.901  0.00  0.00     0.084 A 
ATOM      9  O   UNL d   1     -42.212-121.702 -56.293  0.00  0.00    -0.286 OA
ATOM     10  C   UNL d   1     -42.462-121.859 -54.123  0.00  0.00     0.205 A 
ATOM     11  O   UNL d   1     -42.859-121.473 -53.514  0.00  0.00    -0.286 OA
ENDBRANCH   1   3
BRANCH   1  12
ATOM     12  C   UNL d   1     -41.548-122.328 -52.619  0.00  0.00     0.042 C 
BRANCH  12  13
ATOM     13  C   UNL d   1     -41.624-122.510 -51.820  0.00  0.00     0.005 A 
ATOM     14  C   UNL d   1     -42.207-122.140 -51.370  0.00  0.00     0.026 A 
ATOM     15  C   UNL d   1     -42.283-122.322 -50.570  0.00  0.00     0.116 A 
ATOM     16  C   UNL d   1     -41.778-122.873 -50.221  0.00  0.00     0.116 A 
ATOM     17  C   UNL d   1     -41.194-123.242 -50.675  0.00  0.00     0.026 A 
ATOM     18  C   UNL d   1     -41.123-123.055 -51.478  0.00  0.00     0.002 A 
BRANCH  15  19
ATOM     19  O   UNL d   1     -42.869-121.951 -50.113  0.00  0.00    -0.326 OA
ATOM     20  C   UNL d   1     -43.661-122.012 -50.329  0.00  0.00     0.181 C 
ENDBRANCH  15  19
BRANCH  16  21
ATOM     21  O   UNL d   1     -41.848-123.062 -49.416  0.00  0.00    -0.326 OA
ATOM     22  C   UNL d   1     -41.638-123.802 -49.141  0.00  0.00     0.181 C 
ENDBRANCH  16  21
ENDBRANCH  12  13
ENDBRANCH   1  12
TORSDOF 5
ENDMDL
MODEL 3
REMARK VINA RESULT:      -3.0      1.055      4.378
REMARK  5 active torsions:
REMARK  status: ('A' for Active; 'I' for Inactive)
REMARK    1  A    between atoms: C_2  and  C_1 
REMARK    2  A    between atoms: C_8  and  C_2 
REMARK    3  A    between atoms: O_18  and  C_7 
REMARK    4  A    between atoms: C_13  and  C_8 
REMARK    5  A    between atoms: O_20  and  C_11 
ROOT
ATOM      1  C   UNL d   1     -41.488-122.688 -51.416  0.00  0.00     0.202 C 
ATOM      2  O   UNL d   1     -41.123-123.420 -51.308  0.00  0.00    -0.286 OA
ENDROOT
BRANCH   1   3
ATOM      3  C   UNL d   1     -41.571-122.376 -52.174  0.00  0.00     0.117 A 
ATOM      4  C   UNL d   1     -41.414-121.575 -52.309  0.00  0.00     0.205 A 
ATOM      5  C   UNL d   1     -41.495-121.261 -53.065  0.00  0.00     0.084 A 
ATOM      6  O   UNL d   1     -41.175-121.086 -51.689  0.00  0.00    -0.286 OA
ATOM      7  C   UNL d   1     -41.733-121.744 -53.690  0.00  0.00     0.202 A 
ATOM      8  C   UNL d   1     -41.890-122.541 -53.559  0.00  0.00     0.084 A 
ATOM      9  O   UNL d   1     -41.814-121.423 -54.452  0.00  0.00    -0.286 OA
ATOM     10  C   UNL d   1     -41.809-122.859 -52.799  0.00  0.00     0.205 A 
ATOM     11  O   UNL d   1     -41.965-123.656 -52.669  0.00  0.00    -0.286 OA
ENDBRANCH   1   3
BRANCH   1  12
ATOM     12  C   UNL d   1     -41.768-122.273 -50.767  0.00  0.00     0.042 C 
BRANCH  12  13
ATOM     13  C   UNL d   1     -41.843-122.644 -50.036  0.00  0.00     0.005 A 
ATOM     14  C   UNL d   1     -42.592-122.813 -49.738  0.00  0.00     0.026 A 
ATOM     15  C   UNL d   1     -42.667-123.185 -49.007  0.00  0.00     0.116 A 
ATOM     16  C   UNL d   1     -41.995-123.387 -48.575  0.00  0.00     0.116 A 
ATOM     17  C   UNL d   1     -41.244-123.217 -48.876  0.00  0.00     0.026 A 
ATOM     18  C   UNL d   1     -41.175-122.843 -49.611  0.00  0.00     0.002 A 
BRANCH  15  19
ATOM     19  O   UNL d   1     -43.421-123.357 -48.703  0.00  0.00    -0.326 OA
ATOM     20  C   UNL d   1     -43.947-123.816 -49.139  0.00  0.00     0.181 C 
ENDBRANCH  15  19
BRANCH  16  21
ATOM     21  O   UNL d   1     -42.061-123.762 -47.837  0.00  0.00    -0.326 OA
ATOM     22  C   UNL d   1     -41.483-123.670 -47.268  0.00  0.00     0.181 C 
ENDBRANCH  16  21
ENDBRANCH  12  13
ENDBRANCH   1  12
TORSDOF 5
ENDMDL
