MODEL 1
REMARK VINA RESULT:      -2.8      0.000      0.000
REMARK  4 active torsions:
REMARK  status: ('A' for Active; 'I' for Inactive)
REMARK    1  A    between atoms: C_6  and  C_1 
REMARK    2  A    between atoms: C_7  and  N_2 
REMARK    3  A    between atoms: C_10  and  C_7 
REMARK    4  A    between atoms: C_11  and  C_10 
ROOT
ATOM      1  C   UNL d   1     -41.249-121.546 -52.340  0.00  0.00     0.148 A 
ATOM      2  N   UNL d   1     -41.248-122.366 -52.181  0.00  0.00    -0.289 N 
ATOM      3  N   UNL d   1     -41.327-121.447 -53.171  0.00  0.00    -0.227 NA
ATOM      4  C   UNL d   1     -41.324-122.770 -52.904  0.00  0.00     0.083 A 
ATOM      5  C   UNL d   1     -41.372-122.209 -53.510  0.00  0.00     0.099 A 
ATOM      6  C   UNL d   1     -41.356-123.579 -53.098  0.00  0.00     0.019 A 
ATOM      7  C   UNL d   1     -41.452-122.436 -54.306  0.00  0.00     0.021 A 
ATOM      8  C   UNL d   1     -41.435-123.815 -53.885  0.00  0.00     0.002 A 
ATOM      9  C   UNL d   1     -41.483-123.248 -54.484  0.00  0.00     0.002 A 
ENDROOT
BRANCH   2  10
ATOM     10  C   UNL d   1     -41.183-122.716 -51.430  0.00  0.00     0.082 C 
BRANCH  10  11
ATOM     11  C   UNL d   1     -41.835-123.095 -51.099  0.00  0.00     0.019 C 
BRANCH  11  12
ATOM     12  C   UNL d   1     -41.836-123.268 -50.297  0.00  0.00     0.002 A 
ATOM     13  C   UNL d   1     -42.481-123.068 -49.837  0.00  0.00     0.000 A 
ATOM     14  C   UNL d   1     -42.482-123.241 -49.036  0.00  0.00     0.000 A 
ATOM     15  C   UNL d   1     -41.838-123.612 -48.694  0.00  0.00     0.000 A 
ATOM     16  C   UNL d   1     -41.185-123.815 -49.156  0.00  0.00     0.000 A 
ATOM     17  C   UNL d   1     -41.191-123.639 -49.959  0.00  0.00     0.000 A 
ENDBRANCH  11  12
ENDBRANCH  10  11
ENDBRANCH   2  10
BRANCH   1  18
ATOM     18  C   UNL d   1     -41.186-120.937 -51.784  0.00  0.00     0.035 A 
ATOM     19  C   UNL d   1     -41.140-120.134 -51.598  0.00  0.00     0.003 A 
ATOM     20  C   UNL d   1     -41.123-120.701 -50.996  0.00  0.00     0.003 A 
ENDBRANCH   1  18
TORSDOF 4
ENDMDL
MODEL 2
REMARK VINA RESULT:      -0.9      0.801      3.569
REMARK  4 active torsions:
REMARK  status: ('A' for Active; 'I' for Inactive)
REMARK    1  A    between atoms: C_6  and  C_1 
REMARK    2  A    between atoms: C_7  and  N_2 
REMARK    3  A    between atoms: C_10  and  C_7 
REMARK    4  A    between atoms: C_11  and  C_10 
ROOT
ATOM      1  C   UNL d   1     -41.338-121.173 -51.270  0.00  0.00     0.148 A 
ATOM      2  N   UNL d   1     -41.329-121.893 -51.691  0.00  0.00    -0.289 N 
ATOM      3  N   UNL d   1     -41.484-121.352 -50.461  0.00  0.00    -0.227 NA
ATOM      4  C   UNL d   1     -41.469-122.511 -51.152  0.00  0.00     0.083 A 
ATOM      5  C   UNL d   1     -41.564-122.181 -50.400  0.00  0.00     0.099 A 
ATOM      6  C   UNL d   1     -41.523-123.337 -51.242  0.00  0.00     0.019 A 
ATOM      7  C   UNL d   1     -41.712-122.656 -49.734  0.00  0.00     0.021 A 
ATOM      8  C   UNL d   1     -41.670-123.817 -50.587  0.00  0.00     0.002 A 
ATOM      9  C   UNL d   1     -41.763-123.479 -49.839  0.00  0.00     0.002 A 
ENDROOT
BRANCH   2  10
ATOM     10  C   UNL d   1     -41.203-121.977 -52.509  0.00  0.00     0.082 C 
BRANCH  10  11
ATOM     11  C   UNL d   1     -41.607-122.562 -52.926  0.00  0.00     0.019 C 
BRANCH  11  12
ATOM     12  C   UNL d   1     -41.626-122.531 -53.745  0.00  0.00     0.002 A 
ATOM     13  C   UNL d   1     -42.091-121.976 -54.123  0.00  0.00     0.000 A 
ATOM     14  C   UNL d   1     -42.110-121.946 -54.942  0.00  0.00     0.000 A 
ATOM     15  C   UNL d   1     -41.664-122.471 -55.383  0.00  0.00     0.000 A 
ATOM     16  C   UNL d   1     -41.193-123.033 -55.005  0.00  0.00     0.000 A 
ATOM     17  C   UNL d   1     -41.179-123.057 -54.183  0.00  0.00     0.000 A 
ENDBRANCH  11  12
ENDBRANCH  10  11
ENDBRANCH   2  10
BRANCH   1  18
ATOM     18  C   UNL d   1     -41.223-120.416 -51.584  0.00  0.00     0.035 A 
ATOM     19  C   UNL d   1     -41.125-119.912 -52.230  0.00  0.00     0.003 A 
ATOM     20  C   UNL d   1     -41.124-119.607 -51.462  0.00  0.00     0.003 A 
ENDBRANCH   1  18
TORSDOF 4
ENDMDL
