MODEL 1
REMARK VINA RESULT:      -5.0      0.000      0.000
REMARK  2 active torsions:
REMARK  status: ('A' for Active; 'I' for Inactive)
REMARK    1  A    between atoms: O_3  and  C_1 
REMARK       I    between atoms: N_6  and  C_1 
REMARK    2  A    between atoms: C_5  and  O_3 
ROOT
ATOM      1  C   UNL d   1     -41.883-122.334 -53.783  0.00  0.00     0.105 A 
ATOM      2  C   UNL d   1     -41.769-122.705 -54.508  0.00  0.00     0.030 A 
ATOM      3  C   UNL d   1     -41.616-122.699 -53.077  0.00  0.00     0.122 A 
ATOM      4  N   UNL d   1     -42.263-121.596 -53.746  0.00  0.00    -0.242 NA
ATOM      5  C   UNL d   1     -41.390-123.439 -54.542  0.00  0.00     0.059 A 
ATOM      6  C   UNL d   1     -41.240-123.428 -53.112  0.00  0.00     0.027 A 
ATOM      7  C   UNL d   1     -41.123-123.804 -53.837  0.00  0.00     0.013 A 
ATOM      8 CL   UNL d   1     -41.272-123.817 -55.272  0.00  0.00    -0.082 Cl
ATOM      9  C   UNL d   1     -42.032-122.345 -55.202  0.00  0.00     0.004 A 
ATOM     10  C   UNL d   1     -42.526-121.237 -54.441  0.00  0.00     0.099 A 
ATOM     11  C   UNL d   1     -42.409-121.615 -55.172  0.00  0.00     0.021 A 
ENDROOT
BRANCH   3  12
ATOM     12  O   UNL d   1     -41.731-122.324 -52.341  0.00  0.00    -0.257 OA
BRANCH  12  13
ATOM     13  C   UNL d   1     -41.708-122.765 -51.632  0.00  0.00     0.378 C 
ATOM     14  N   UNL d   1     -41.476-122.417 -50.930  0.00  0.00    -0.249 N 
ATOM     15  C   UNL d   1     -41.455-122.858 -50.233  0.00  0.00     0.104 C 
ATOM     16  C   UNL d   1     -41.261-121.620 -50.916  0.00  0.00     0.104 C 
ATOM     17  O   UNL d   1     -41.925-123.574 -51.646  0.00  0.00    -0.237 OA
ENDBRANCH  12  13
ENDBRANCH   3  12
TORSDOF 2
ENDMDL
MODEL 2
REMARK VINA RESULT:      -4.3      1.510      3.261
REMARK  2 active torsions:
REMARK  status: ('A' for Active; 'I' for Inactive)
REMARK    1  A    between atoms: O_3  and  C_1 
REMARK       I    between atoms: N_6  and  C_1 
REMARK    2  A    between atoms: C_5  and  O_3 
ROOT
ATOM      1  C   UNL d   1     -41.192-122.159 -52.193  0.00  0.00     0.105 A 
ATOM      2  C   UNL d   1     -41.177-122.553 -51.471  0.00  0.00     0.030 A 
ATOM      3  C   UNL d   1     -41.227-122.595 -52.908  0.00  0.00     0.122 A 
ATOM      4  N   UNL d   1     -41.172-121.329 -52.217  0.00  0.00    -0.242 NA
ATOM      5  C   UNL d   1     -41.197-123.380 -51.450  0.00  0.00     0.059 A 
ATOM      6  C   UNL d   1     -41.246-123.415 -52.886  0.00  0.00     0.027 A 
ATOM      7  C   UNL d   1     -41.232-123.815 -52.165  0.00  0.00     0.013 A 
ATOM      8 CL   UNL d   1     -41.182-123.781 -50.723  0.00  0.00    -0.082 Cl
ATOM      9  C   UNL d   1     -41.142-122.124 -50.767  0.00  0.00     0.004 A 
ATOM     10  C   UNL d   1     -41.137-120.901 -51.513  0.00  0.00     0.099 A 
ATOM     11  C   UNL d   1     -41.123-121.302 -50.785  0.00  0.00     0.021 A 
ENDROOT
BRANCH   3  12
ATOM     12  O   UNL d   1     -41.242-122.197 -53.642  0.00  0.00    -0.257 OA
BRANCH  12  13
ATOM     13  C   UNL d   1     -41.438-122.607 -54.343  0.00  0.00     0.378 C 
ATOM     14  N   UNL d   1     -41.929-122.269 -54.902  0.00  0.00    -0.249 N 
ATOM     15  C   UNL d   1     -42.120-122.678 -55.592  0.00  0.00     0.104 C 
ATOM     16  C   UNL d   1     -42.236-121.512 -54.777  0.00  0.00     0.104 C 
ATOM     17  O   UNL d   1     -41.127-123.374 -54.469  0.00  0.00    -0.237 OA
ENDBRANCH  12  13
ENDBRANCH   3  12
TORSDOF 2
ENDMDL
MODEL 3
REMARK VINA RESULT:      -2.9      1.907      3.712
REMARK  2 active torsions:
REMARK  status: ('A' for Active; 'I' for Inactive)
REMARK    1  A    between atoms: O_3  and  C_1 
REMARK       I    between atoms: N_6  and  C_1 
REMARK    2  A    between atoms: C_5  and  O_3 
ROOT
ATOM      1  C   UNL d   1     -42.339-122.694 -50.800  0.00  0.00     0.105 A 
ATOM      2  C   UNL d   1     -42.280-122.988 -50.034  0.00  0.00     0.030 A 
ATOM      3  C   UNL d   1     -41.787-122.931 -51.384  0.00  0.00     0.122 A 
ATOM      4  N   UNL d   1     -42.945-122.161 -50.998  0.00  0.00    -0.242 NA
ATOM      5  C   UNL d   1     -41.676-123.518 -49.839  0.00  0.00     0.059 A 
ATOM      6  C   UNL d   1     -41.188-123.457 -51.190  0.00  0.00     0.027 A 
ATOM      7  C   UNL d   1     -41.124-123.755 -50.423  0.00  0.00     0.013 A 
ATOM      8 CL   UNL d   1     -41.614-123.817 -49.067  0.00  0.00    -0.082 Cl
ATOM      9  C   UNL d   1     -42.824-122.754 -49.459  0.00  0.00     0.004 A 
ATOM     10  C   UNL d   1     -43.488-121.928 -50.423  0.00  0.00     0.099 A 
ATOM     11  C   UNL d   1     -43.426-122.227 -49.650  0.00  0.00     0.021 A 
ENDROOT
BRANCH   3  12
ATOM     12  O   UNL d   1     -41.844-122.634 -52.162  0.00  0.00    -0.257 OA
BRANCH  12  13
ATOM     13  C   UNL d   1     -41.498-123.046 -52.801  0.00  0.00     0.378 C 
ATOM     14  N   UNL d   1     -41.465-122.712 -53.546  0.00  0.00    -0.249 N 
ATOM     15  C   UNL d   1     -41.123-123.124 -54.173  0.00  0.00     0.104 C 
ATOM     16  C   UNL d   1     -41.777-121.958 -53.674  0.00  0.00     0.104 C 
ATOM     17  O   UNL d   1     -41.182-123.810 -52.671  0.00  0.00    -0.237 OA
ENDBRANCH  12  13
ENDBRANCH   3  12
TORSDOF 2
ENDMDL
MODEL 4
REMARK VINA RESULT:      -2.6      2.459      4.609
REMARK  2 active torsions:
REMARK  status: ('A' for Active; 'I' for Inactive)
REMARK    1  A    between atoms: O_3  and  C_1 
REMARK       I    between atoms: N_6  and  C_1 
REMARK    2  A    between atoms: C_5  and  O_3 
ROOT
ATOM      1  C   UNL d   1     -42.557-123.408 -49.676  0.00  0.00     0.105 A 
ATOM      2  C   UNL d   1     -42.497-123.354 -48.858  0.00  0.00     0.030 A 
ATOM      3  C   UNL d   1     -41.894-123.228 -50.158  0.00  0.00     0.122 A 
ATOM      4  N   UNL d   1     -43.272-123.640 -50.029  0.00  0.00    -0.242 NA
ATOM      5  C   UNL d   1     -41.785-123.123 -48.508  0.00  0.00     0.059 A 
ATOM      6  C   UNL d   1     -41.187-122.999 -49.810  0.00  0.00     0.027 A 
ATOM      7  C   UNL d   1     -41.123-122.943 -48.989  0.00  0.00     0.013 A 
ATOM      8 CL   UNL d   1     -41.721-123.067 -47.682  0.00  0.00    -0.082 Cl
ATOM      9  C   UNL d   1     -43.149-123.531 -48.384  0.00  0.00     0.004 A 
ATOM     10  C   UNL d   1     -43.923-123.817 -49.555  0.00  0.00     0.099 A 
ATOM     11  C   UNL d   1     -43.860-123.762 -48.729  0.00  0.00     0.021 A 
ENDROOT
BRANCH   3  12
ATOM     12  O   UNL d   1     -41.952-123.282 -50.988  0.00  0.00    -0.257 OA
BRANCH  12  13
ATOM     13  C   UNL d   1     -41.586-122.712 -51.477  0.00  0.00     0.378 C 
ATOM     14  N   UNL d   1     -41.510-122.837 -52.281  0.00  0.00    -0.249 N 
ATOM     15  C   UNL d   1     -41.148-122.271 -52.759  0.00  0.00     0.104 C 
ATOM     16  C   UNL d   1     -41.799-123.533 -52.619  0.00  0.00     0.104 C 
ATOM     17  O   UNL d   1     -41.294-122.007 -51.134  0.00  0.00    -0.237 OA
ENDBRANCH  12  13
ENDBRANCH   3  12
TORSDOF 2
ENDMDL
MODEL 5
REMARK VINA RESULT:      -2.0      2.455      3.179
REMARK  2 active torsions:
REMARK  status: ('A' for Active; 'I' for Inactive)
REMARK    1  A    between atoms: O_3  and  C_1 
REMARK       I    between atoms: N_6  and  C_1 
REMARK    2  A    between atoms: C_5  and  O_3 
ROOT
ATOM      1  C   UNL d   1     -41.299-122.316 -50.582  0.00  0.00     0.105 A 
ATOM      2  C   UNL d   1     -41.219-122.384 -51.398  0.00  0.00     0.030 A 
ATOM      3  C   UNL d   1     -41.387-123.003 -50.111  0.00  0.00     0.122 A 
ATOM      4  N   UNL d   1     -41.291-121.568 -50.223  0.00  0.00    -0.242 NA
ATOM      5  C   UNL d   1     -41.227-123.130 -51.755  0.00  0.00     0.059 A 
ATOM      6  C   UNL d   1     -41.394-123.743 -50.466  0.00  0.00     0.027 A 
ATOM      7  C   UNL d   1     -41.315-123.817 -51.283  0.00  0.00     0.013 A 
ATOM      8 CL   UNL d   1     -41.147-123.203 -52.578  0.00  0.00    -0.082 Cl
ATOM      9  C   UNL d   1     -41.132-121.707 -51.863  0.00  0.00     0.004 A 
ATOM     10  C   UNL d   1     -41.204-120.891 -50.687  0.00  0.00     0.099 A 
ATOM     11  C   UNL d   1     -41.124-120.963 -51.511  0.00  0.00     0.021 A 
ENDROOT
BRANCH   3  12
ATOM     12  O   UNL d   1     -41.467-122.937 -49.283  0.00  0.00    -0.257 OA
BRANCH  12  13
ATOM     13  C   UNL d   1     -42.156-123.215 -48.900  0.00  0.00     0.378 C 
ATOM     14  N   UNL d   1     -42.135-123.444 -48.116  0.00  0.00    -0.249 N 
ATOM     15  C   UNL d   1     -42.818-123.717 -47.742  0.00  0.00     0.104 C 
ATOM     16  C   UNL d   1     -41.427-123.402 -47.693  0.00  0.00     0.104 C 
ATOM     17  O   UNL d   1     -42.873-123.258 -49.329  0.00  0.00    -0.237 OA
ENDBRANCH  12  13
ENDBRANCH   3  12
TORSDOF 2
ENDMDL
