MODEL 1
REMARK VINA RESULT:      -8.0      0.000      0.000
REMARK  4 active torsions:
REMARK  status: ('A' for Active; 'I' for Inactive)
REMARK    1  A    between atoms: C_2  and  S_1 
REMARK    2  A    between atoms: N_5  and  S_1 
REMARK    3  A    between atoms: C_10  and  N_5 
REMARK    4  A    between atoms: C_11  and  C_10 
ROOT
ATOM      1  S   UNL d   1      53.232  31.672  53.395  0.00  0.00     0.291 S 
ATOM      2  O   UNL d   1      52.496  31.706  53.023  0.00  0.00    -0.198 OA
ATOM      3  O   UNL d   1      53.967  31.634  53.768  0.00  0.00    -0.198 OA
ENDROOT
BRANCH   1   4
ATOM      4  C   UNL d   1      53.189  30.848  53.414  0.00  0.00     0.135 A 
ATOM      5  S   UNL d   1      53.370  30.366  54.049  0.00  0.00    -0.074 SA
ATOM      6  C   UNL d   1      53.249  29.583  53.824  0.00  0.00     0.030 A 
ATOM      7  C   UNL d   1      53.364  28.911  54.292  0.00  0.00     0.007 C 
ATOM      8  C   UNL d   1      52.989  29.584  53.041  0.00  0.00     0.008 A 
ATOM      9  C   UNL d   1      52.951  30.365  52.786  0.00  0.00     0.020 A 
ENDBRANCH   1   4
BRANCH   1  10
ATOM     10  N   UNL d   1      53.285  32.487  53.382  0.00  0.00    -0.156 NA
BRANCH  10  11
ATOM     11  C   UNL d   1      52.671  32.945  53.684  0.00  0.00     0.112 C 
BRANCH  11  12
ATOM     12  C   UNL d   1      52.801  33.739  53.870  0.00  0.00     0.020 A 
ATOM     13  C   UNL d   1      52.642  34.327  53.305  0.00  0.00     0.002 A 
ATOM     14  C   UNL d   1      52.772  35.120  53.491  0.00  0.00     0.000 A 
ATOM     15  C   UNL d   1      53.060  35.325  54.242  0.00  0.00     0.000 A 
ATOM     16  C   UNL d   1      53.216  34.736  54.800  0.00  0.00     0.000 A 
ATOM     17  C   UNL d   1      53.190  36.118  54.428  0.00  0.00     0.000 C 
ATOM     18  C   UNL d   1      53.086  33.943  54.613  0.00  0.00     0.002 A 
ENDBRANCH  11  12
ENDBRANCH  10  11
ENDBRANCH   1  10
TORSDOF 4
ENDMDL
MODEL 2
REMARK VINA RESULT:      -8.0      2.310      3.362
REMARK  4 active torsions:
REMARK  status: ('A' for Active; 'I' for Inactive)
REMARK    1  A    between atoms: C_2  and  S_1 
REMARK    2  A    between atoms: N_5  and  S_1 
REMARK    3  A    between atoms: C_10  and  N_5 
REMARK    4  A    between atoms: C_11  and  C_10 
ROOT
ATOM      1  S   UNL d   1      52.783  33.538  53.801  0.00  0.00     0.291 S 
ATOM      2  O   UNL d   1      52.830  34.337  54.001  0.00  0.00    -0.198 OA
ATOM      3  O   UNL d   1      52.739  32.738  53.603  0.00  0.00    -0.198 OA
ENDROOT
BRANCH   1   4
ATOM      4  C   UNL d   1      53.543  33.415  54.097  0.00  0.00     0.135 A 
ATOM      5  S   UNL d   1      53.868  33.759  54.764  0.00  0.00    -0.074 SA
ATOM      6  C   UNL d   1      54.637  33.481  54.852  0.00  0.00     0.030 A 
ATOM      7  C   UNL d   1      55.171  33.682  55.452  0.00  0.00     0.007 C 
ATOM      8  C   UNL d   1      54.788  32.958  54.232  0.00  0.00     0.008 A 
ATOM      9  C   UNL d   1      54.113  32.916  53.765  0.00  0.00     0.020 A 
ENDBRANCH   1   4
BRANCH   1  10
ATOM     10  N   UNL d   1      52.029  33.648  53.506  0.00  0.00    -0.156 NA
BRANCH  10  11
ATOM     11  C   UNL d   1      51.882  34.254  52.968  0.00  0.00     0.112 C 
BRANCH  11  12
ATOM     12  C   UNL d   1      51.139  34.322  52.616  0.00  0.00     0.020 A 
ATOM     13  C   UNL d   1      51.056  34.199  51.798  0.00  0.00     0.002 A 
ATOM     14  C   UNL d   1      50.313  34.267  51.447  0.00  0.00     0.000 A 
ATOM     15  C   UNL d   1      49.653  34.458  51.912  0.00  0.00     0.000 A 
ATOM     16  C   UNL d   1      49.741  34.579  52.724  0.00  0.00     0.000 A 
ATOM     17  C   UNL d   1      48.909  34.526  51.561  0.00  0.00     0.000 C 
ATOM     18  C   UNL d   1      50.484  34.511  53.076  0.00  0.00     0.002 A 
ENDBRANCH  11  12
ENDBRANCH  10  11
ENDBRANCH   1  10
TORSDOF 4
ENDMDL
MODEL 3
REMARK VINA RESULT:      -7.9      1.555      4.355
REMARK  4 active torsions:
REMARK  status: ('A' for Active; 'I' for Inactive)
REMARK    1  A    between atoms: C_2  and  S_1 
REMARK    2  A    between atoms: N_5  and  S_1 
REMARK    3  A    between atoms: C_10  and  N_5 
REMARK    4  A    between atoms: C_11  and  C_10 
ROOT
ATOM      1  S   UNL d   1      52.434  32.786  53.132  0.00  0.00     0.291 S 
ATOM      2  O   UNL d   1      52.466  32.599  52.329  0.00  0.00    -0.198 OA
ATOM      3  O   UNL d   1      52.400  32.976  53.934  0.00  0.00    -0.198 OA
ENDROOT
BRANCH   1   4
ATOM      4  C   UNL d   1      51.976  33.451  52.963  0.00  0.00     0.135 A 
ATOM      5  S   UNL d   1      51.162  33.506  53.012  0.00  0.00    -0.074 SA
ATOM      6  C   UNL d   1      50.939  34.268  52.794  0.00  0.00     0.030 A 
ATOM      7  C   UNL d   1      50.169  34.569  52.763  0.00  0.00     0.007 C 
ATOM      8  C   UNL d   1      51.625  34.687  52.608  0.00  0.00     0.008 A 
ATOM      9  C   UNL d   1      52.267  34.184  52.713  0.00  0.00     0.020 A 
ENDBRANCH   1   4
BRANCH   1  10
ATOM     10  N   UNL d   1      52.887  32.130  53.311  0.00  0.00    -0.156 NA
BRANCH  10  11
ATOM     11  C   UNL d   1      52.721  31.405  52.957  0.00  0.00     0.112 C 
BRANCH  11  12
ATOM     12  C   UNL d   1      52.938  30.703  53.332  0.00  0.00     0.020 A 
ATOM     13  C   UNL d   1      52.410  30.061  53.344  0.00  0.00     0.002 A 
ATOM     14  C   UNL d   1      52.627  29.359  53.719  0.00  0.00     0.000 A 
ATOM     15  C   UNL d   1      53.371  29.299  54.082  0.00  0.00     0.000 A 
ATOM     16  C   UNL d   1      53.891  29.940  54.067  0.00  0.00     0.000 A 
ATOM     17  C   UNL d   1      53.588  28.596  54.457  0.00  0.00     0.000 C 
ATOM     18  C   UNL d   1      53.674  30.642  53.692  0.00  0.00     0.002 A 
ENDBRANCH  11  12
ENDBRANCH  10  11
ENDBRANCH   1  10
TORSDOF 4
ENDMDL
MODEL 4
REMARK VINA RESULT:      -7.5      2.622      4.022
REMARK  4 active torsions:
REMARK  status: ('A' for Active; 'I' for Inactive)
REMARK    1  A    between atoms: C_2  and  S_1 
REMARK    2  A    between atoms: N_5  and  S_1 
REMARK    3  A    between atoms: C_10  and  N_5 
REMARK    4  A    between atoms: C_11  and  C_10 
ROOT
ATOM      1  S   UNL d   1      51.109  33.999  52.889  0.00  0.00     0.291 S 
ATOM      2  O   UNL d   1      51.538  34.517  52.410  0.00  0.00    -0.198 OA
ATOM      3  O   UNL d   1      50.678  33.483  53.367  0.00  0.00    -0.198 OA
ENDROOT
BRANCH   1   4
ATOM      4  C   UNL d   1      50.404  34.266  52.554  0.00  0.00     0.135 A 
ATOM      5  S   UNL d   1      50.156  34.147  51.784  0.00  0.00    -0.074 SA
ATOM      6  C   UNL d   1      49.422  34.508  51.689  0.00  0.00     0.030 A 
ATOM      7  C   UNL d   1      48.966  34.526  50.999  0.00  0.00     0.007 C 
ATOM      8  C   UNL d   1      49.216  34.853  52.409  0.00  0.00     0.008 A 
ATOM      9  C   UNL d   1      49.822  34.705  52.945  0.00  0.00     0.020 A 
ENDBRANCH   1   4
BRANCH   1  10
ATOM     10  N   UNL d   1      51.801  33.728  53.228  0.00  0.00    -0.156 NA
BRANCH  10  11
ATOM     11  C   UNL d   1      52.436  34.241  53.337  0.00  0.00     0.112 C 
BRANCH  11  12
ATOM     12  C   UNL d   1      53.066  34.022  53.822  0.00  0.00     0.020 A 
ATOM     13  C   UNL d   1      53.519  33.351  53.633  0.00  0.00     0.002 A 
ATOM     14  C   UNL d   1      54.149  33.132  54.118  0.00  0.00     0.000 A 
ATOM     15  C   UNL d   1      54.326  33.583  54.793  0.00  0.00     0.000 A 
ATOM     16  C   UNL d   1      53.872  34.248  54.975  0.00  0.00     0.000 A 
ATOM     17  C   UNL d   1      54.956  33.363  55.278  0.00  0.00     0.000 C 
ATOM     18  C   UNL d   1      53.242  34.467  54.490  0.00  0.00     0.002 A 
ENDBRANCH  11  12
ENDBRANCH  10  11
ENDBRANCH   1  10
TORSDOF 4
ENDMDL
