MODEL 1
REMARK VINA RESULT:      43.1      0.000      0.000
REMARK  3 active torsions:
REMARK  status: ('A' for Active; 'I' for Inactive)
REMARK    1  A    between atoms: C_16  and  N_3 
REMARK    2  A    between atoms: C_10  and  C_5 
REMARK    3  A    between atoms: C_26  and  C_16 
ROOT
ATOM      1  C   UNL d   1     -51.506  26.032  33.317  0.00  0.00     0.083 A 
ATOM      2  C   UNL d   1     -52.092  26.611  33.312  0.00  0.00     0.161 A 
ATOM      3  N   UNL d   1     -50.907  27.234  33.316  0.00  0.00    -0.268 N 
ATOM      4  C   UNL d   1     -51.726  27.357  33.311  0.00  0.00     0.288 A 
ATOM      5  C   UNL d   1     -50.771  26.414  33.319  0.00  0.00     0.072 A 
ATOM      6  C   UNL d   1     -51.709  25.234  33.318  0.00  0.00     0.201 A 
ATOM      7  O   UNL d   1     -52.892  26.388  33.309  0.00  0.00    -0.302 OA
ATOM      8  C   UNL d   1     -52.505  25.015  33.315  0.00  0.00     0.062 A 
ATOM      9  C   UNL d   1     -53.092  25.591  33.311  0.00  0.00     0.103 A 
ATOM     10  O   UNL d   1     -52.104  28.083  33.307  0.00  0.00    -0.264 OA
ATOM     11  O   UNL d   1     -51.124  24.654  33.323  0.00  0.00    -0.286 OA
ATOM     12  C   UNL d   1     -52.710  24.213  33.317  0.00  0.00     0.012 A 
ATOM     13  C   UNL d   1     -53.894  25.361  33.308  0.00  0.00     0.025 A 
ATOM     14  C   UNL d   1     -53.500  23.989  33.314  0.00  0.00     0.035 A 
ATOM     15  C   UNL d   1     -54.094  24.565  33.309  0.00  0.00     0.009 A 
ATOM     16 BR   UNL d   1     -53.703  23.196  33.316  0.00  0.00    -0.049 Br
ENDROOT
BRANCH   5  17
ATOM     17  C   UNL d   1     -50.183  25.838  33.324  0.00  0.00     0.019 A 
ATOM     18  C   UNL d   1     -50.381  25.035  33.345  0.00  0.00     0.031 A 
ATOM     19  C   UNL d   1     -49.791  24.463  33.350  0.00  0.00     0.140 A 
ATOM     20  F   UNL d   1     -49.995  23.666  33.372  0.00  0.00    -0.204 F 
ATOM     21  C   UNL d   1     -48.990  24.687  33.333  0.00  0.00     0.030 A 
ATOM     22  C   UNL d   1     -48.791  25.490  33.311  0.00  0.00     0.002 A 
ATOM     23  C   UNL d   1     -49.391  26.065  33.307  0.00  0.00     0.002 A 
ENDBRANCH   5  17
BRANCH   3  24
ATOM     24  C   UNL d   1     -50.328  27.819  33.316  0.00  0.00     0.129 C 
BRANCH  24  25
ATOM     25  C   UNL d   1     -50.547  28.611  33.372  0.00  0.00     0.253 C 
ATOM     26  O   UNL d   1     -51.341  28.822  33.348  0.00  0.00    -0.281 OA
ENDBRANCH  24  25
ENDBRANCH   3  24
TORSDOF 3
ENDMDL
