MODEL 1
REMARK VINA RESULT:      -3.2      0.000      0.000
REMARK  5 active torsions:
REMARK  status: ('A' for Active; 'I' for Inactive)
REMARK    1  A    between atoms: N_3  and  C_1 
REMARK       I    between atoms: C_9  and  N_3 
REMARK    2  A    between atoms: C_12  and  C_7 
REMARK    3  A    between atoms: C_17  and  C_9 
REMARK    4  A    between atoms: C_11  and  S_14 
REMARK    5  A    between atoms: S_14  and  C_17 
ROOT
ATOM      1  N   UNL d   1      32.773  17.820 -22.800  0.00  0.00    -0.146 NA
ATOM      2  N   UNL d   1      32.937  18.553 -22.459  0.00  0.00    -0.141 NA
ATOM      3  C   UNL d   1      32.722  17.749 -23.624  0.00  0.00     0.121 A 
ATOM      4  C   UNL d   1      33.051  19.214 -22.926  0.00  0.00     0.133 A 
ATOM      5  C   UNL d   1      32.837  18.415 -24.100  0.00  0.00     0.025 A 
ATOM      6  C   UNL d   1      33.000  19.145 -23.756  0.00  0.00     0.029 A 
ENDROOT
BRANCH   4   7
ATOM      7  S   UNL d   1      33.214  19.947 -22.585  0.00  0.00    -0.061 SA
BRANCH   7   8
ATOM      8  C   UNL d   1      32.858  20.166 -21.879  0.00  0.00     0.099 C 
BRANCH   8   9
ATOM      9  C   UNL d   1      32.880  20.957 -21.640  0.00  0.00     0.288 C 
ATOM     10  N   UNL d   1      32.542  21.182 -20.923  0.00  0.00    -0.182 NA
ATOM     11  O   UNL d   1      33.239  21.523 -22.116  0.00  0.00    -0.265 OA
BRANCH  10  12
ATOM     12  C   UNL d   1      32.558  21.965 -20.674  0.00  0.00     0.197 A 
ATOM     13  N   UNL d   1      33.034  22.258 -20.075  0.00  0.00    -0.221 NA
ATOM     14  C   UNL d   1      32.880  23.058 -20.004  0.00  0.00     0.090 A 
ATOM     15  C   UNL d   1      33.234  23.582 -19.468  0.00  0.00     0.021 C 
ATOM     16  C   UNL d   1      32.308  23.255 -20.561  0.00  0.00     0.058 A 
ATOM     17  S   UNL d   1      32.110  22.580 -20.974  0.00  0.00    -0.046 SA
ENDBRANCH  10  12
ENDBRANCH   8   9
ENDBRANCH   7   8
ENDBRANCH   4   7
BRANCH   3  18
ATOM     18  C   UNL d   1      32.559  17.016 -23.964  0.00  0.00     0.101 A 
ATOM     19  N   UNL d   1      33.166  16.497 -24.119  0.00  0.00    -0.242 NA
ATOM     20  C   UNL d   1      33.007  15.770 -24.457  0.00  0.00     0.099 A 
ATOM     21  C   UNL d   1      32.224  15.561 -24.643  0.00  0.00     0.021 A 
ATOM     22  C   UNL d   1      31.616  16.085 -24.486  0.00  0.00     0.003 A 
ATOM     23  C   UNL d   1      31.771  16.821 -24.145  0.00  0.00     0.021 A 
ENDBRANCH   3  18
TORSDOF 5
ENDMDL
MODEL 2
REMARK VINA RESULT:      -3.0      1.170      5.994
REMARK  5 active torsions:
REMARK  status: ('A' for Active; 'I' for Inactive)
REMARK    1  A    between atoms: N_3  and  C_1 
REMARK       I    between atoms: C_9  and  N_3 
REMARK    2  A    between atoms: C_12  and  C_7 
REMARK    3  A    between atoms: C_17  and  C_9 
REMARK    4  A    between atoms: C_11  and  S_14 
REMARK    5  A    between atoms: S_14  and  C_17 
ROOT
ATOM      1  N   UNL d   1      32.850  20.985 -20.799  0.00  0.00    -0.146 NA
ATOM      2  N   UNL d   1      32.931  20.368 -21.341  0.00  0.00    -0.141 NA
ATOM      3  C   UNL d   1      32.964  21.769 -21.043  0.00  0.00     0.121 A 
ATOM      4  C   UNL d   1      33.125  20.521 -22.120  0.00  0.00     0.133 A 
ATOM      5  C   UNL d   1      33.160  21.927 -21.830  0.00  0.00     0.025 A 
ATOM      6  C   UNL d   1      33.241  21.310 -22.368  0.00  0.00     0.029 A 
ENDROOT
BRANCH   4   7
ATOM      7  S   UNL d   1      33.207  19.904 -22.662  0.00  0.00    -0.061 SA
BRANCH   7   8
ATOM      8  C   UNL d   1      32.969  19.144 -22.465  0.00  0.00     0.099 C 
BRANCH   8   9
ATOM      9  C   UNL d   1      32.891  18.575 -23.060  0.00  0.00     0.288 C 
ATOM     10  N   UNL d   1      32.635  17.815 -22.873  0.00  0.00    -0.182 NA
ATOM     11  O   UNL d   1      33.068  18.765 -23.839  0.00  0.00    -0.265 OA
BRANCH  10  12
ATOM     12  C   UNL d   1      32.554  17.240 -23.455  0.00  0.00     0.197 A 
ATOM     13  N   UNL d   1      31.847  17.030 -23.812  0.00  0.00    -0.221 NA
ATOM     14  C   UNL d   1      32.009  16.441 -24.356  0.00  0.00     0.090 A 
ATOM     15  C   UNL d   1      31.460  16.060 -24.847  0.00  0.00     0.021 C 
ATOM     16  C   UNL d   1      32.817  16.292 -24.333  0.00  0.00     0.058 A 
ATOM     17  S   UNL d   1      33.152  16.786 -23.777  0.00  0.00    -0.046 SA
ENDBRANCH  10  12
ENDBRANCH   8   9
ENDBRANCH   7   8
ENDBRANCH   4   7
BRANCH   3  18
ATOM     18  C   UNL d   1      32.883  22.384 -20.502  0.00  0.00     0.101 A 
ATOM     19  N   UNL d   1      33.160  22.294 -19.741  0.00  0.00    -0.242 NA
ATOM     20  C   UNL d   1      33.080  22.904 -19.202  0.00  0.00     0.099 A 
ATOM     21  C   UNL d   1      32.716  23.616 -19.431  0.00  0.00     0.021 A 
ATOM     22  C   UNL d   1      32.439  23.702 -20.195  0.00  0.00     0.003 A 
ATOM     23  C   UNL d   1      32.516  23.090 -20.744  0.00  0.00     0.021 A 
ENDBRANCH   3  18
TORSDOF 5
ENDMDL
MODEL 3
REMARK VINA RESULT:      -2.0      0.899      1.101
REMARK  5 active torsions:
REMARK  status: ('A' for Active; 'I' for Inactive)
REMARK    1  A    between atoms: N_3  and  C_1 
REMARK       I    between atoms: C_9  and  N_3 
REMARK    2  A    between atoms: C_12  and  C_7 
REMARK    3  A    between atoms: C_17  and  C_9 
REMARK    4  A    between atoms: C_11  and  S_14 
REMARK    5  A    between atoms: S_14  and  C_17 
ROOT
ATOM      1  N   UNL d   1      32.353  17.136 -23.289  0.00  0.00    -0.146 NA
ATOM      2  N   UNL d   1      32.792  17.750 -22.958  0.00  0.00    -0.141 NA
ATOM      3  C   UNL d   1      31.850  17.285 -23.930  0.00  0.00     0.121 A 
ATOM      4  C   UNL d   1      32.737  18.510 -23.256  0.00  0.00     0.133 A 
ATOM      5  C   UNL d   1      31.792  18.052 -24.235  0.00  0.00     0.025 A 
ATOM      6  C   UNL d   1      32.232  18.662 -23.902  0.00  0.00     0.029 A 
ENDROOT
BRANCH   4   7
ATOM      7  S   UNL d   1      33.177  19.124 -22.925  0.00  0.00    -0.061 SA
BRANCH   7   8
ATOM      8  C   UNL d   1      33.037  19.367 -22.153  0.00  0.00     0.099 C 
BRANCH   8   9
ATOM      9  C   UNL d   1      33.041  20.174 -21.973  0.00  0.00     0.288 C 
ATOM     10  N   UNL d   1      32.844  20.428 -21.214  0.00  0.00    -0.182 NA
ATOM     11  O   UNL d   1      33.241  20.725 -22.548  0.00  0.00    -0.265 OA
BRANCH  10  12
ATOM     12  C   UNL d   1      32.844  21.228 -21.023  0.00  0.00     0.197 A 
ATOM     13  N   UNL d   1      32.983  21.531 -20.274  0.00  0.00    -0.221 NA
ATOM     14  C   UNL d   1      32.934  22.346 -20.323  0.00  0.00     0.090 A 
ATOM     15  C   UNL d   1      33.035  22.884 -19.701  0.00  0.00     0.021 C 
ATOM     16  C   UNL d   1      32.764  22.541 -21.104  0.00  0.00     0.058 A 
ATOM     17  S   UNL d   1      32.710  21.851 -21.534  0.00  0.00    -0.046 SA
ENDBRANCH  10  12
ENDBRANCH   8   9
ENDBRANCH   7   8
ENDBRANCH   4   7
BRANCH   3  18
ATOM     18  C   UNL d   1      31.411  16.671 -24.261  0.00  0.00     0.101 A 
ATOM     19  N   UNL d   1      31.782  16.111 -24.722  0.00  0.00    -0.242 NA
ATOM     20  C   UNL d   1      31.349  15.501 -25.051  0.00  0.00     0.099 A 
ATOM     21  C   UNL d   1      30.530  15.453 -24.916  0.00  0.00     0.021 A 
ATOM     22  C   UNL d   1      30.161  16.017 -24.453  0.00  0.00     0.003 A 
ATOM     23  C   UNL d   1      30.593  16.636 -24.118  0.00  0.00     0.021 A 
ENDBRANCH   3  18
TORSDOF 5
ENDMDL
MODEL 4
REMARK VINA RESULT:      -0.9      1.439      2.449
REMARK  5 active torsions:
REMARK  status: ('A' for Active; 'I' for Inactive)
REMARK    1  A    between atoms: N_3  and  C_1 
REMARK       I    between atoms: C_9  and  N_3 
REMARK    2  A    between atoms: C_12  and  C_7 
REMARK    3  A    between atoms: C_17  and  C_9 
REMARK    4  A    between atoms: C_11  and  S_14 
REMARK    5  A    between atoms: S_14  and  C_17 
ROOT
ATOM      1  N   UNL d   1      32.439  19.532 -21.662  0.00  0.00    -0.146 NA
ATOM      2  N   UNL d   1      32.336  20.200 -21.189  0.00  0.00    -0.141 NA
ATOM      3  C   UNL d   1      32.891  19.580 -22.354  0.00  0.00     0.121 A 
ATOM      4  C   UNL d   1      32.678  20.914 -21.396  0.00  0.00     0.133 A 
ATOM      5  C   UNL d   1      33.238  20.300 -22.567  0.00  0.00     0.025 A 
ATOM      6  C   UNL d   1      33.134  20.964 -22.093  0.00  0.00     0.029 A 
ENDROOT
BRANCH   4   7
ATOM      7  S   UNL d   1      32.575  21.582 -20.923  0.00  0.00    -0.061 SA
BRANCH   7   8
ATOM      8  C   UNL d   1      33.225  21.981 -20.620  0.00  0.00     0.099 C 
BRANCH   8   9
ATOM      9  C   UNL d   1      33.128  22.478 -19.966  0.00  0.00     0.288 C 
ATOM     10  N   UNL d   1      33.208  22.178 -19.203  0.00  0.00    -0.182 NA
ATOM     11  O   UNL d   1      32.953  23.273 -20.075  0.00  0.00    -0.265 OA
BRANCH  10  12
ATOM     12  C   UNL d   1      33.115  22.663 -18.546  0.00  0.00     0.197 A 
ATOM     13  N   UNL d   1      33.241  22.431 -17.770  0.00  0.00    -0.221 NA
ATOM     14  C   UNL d   1      33.088  23.075 -17.290  0.00  0.00     0.090 A 
ATOM     15  C   UNL d   1      33.143  23.097 -16.463  0.00  0.00     0.021 C 
ATOM     16  C   UNL d   1      32.867  23.702 -17.774  0.00  0.00     0.058 A 
ATOM     17  S   UNL d   1      32.884  23.446 -18.548  0.00  0.00    -0.046 SA
ENDBRANCH  10  12
ENDBRANCH   8   9
ENDBRANCH   7   8
ENDBRANCH   4   7
BRANCH   3  18
ATOM     18  C   UNL d   1      32.994  18.913 -22.826  0.00  0.00     0.101 A 
ATOM     19  N   UNL d   1      33.071  18.180 -22.480  0.00  0.00    -0.242 NA
ATOM     20  C   UNL d   1      33.172  17.516 -22.946  0.00  0.00     0.099 A 
ATOM     21  C   UNL d   1      33.198  17.590 -23.774  0.00  0.00     0.021 A 
ATOM     22  C   UNL d   1      33.120  18.328 -24.119  0.00  0.00     0.003 A 
ATOM     23  C   UNL d   1      33.017  19.002 -23.653  0.00  0.00     0.021 A 
ENDBRANCH   3  18
TORSDOF 5
ENDMDL
