MODEL 1
REMARK VINA RESULT:      60.5      0.000      0.000
REMARK  5 active torsions:
REMARK  status: ('A' for Active; 'I' for Inactive)
REMARK    1  A    between atoms: C_3  and  C_2 
REMARK    2  A    between atoms: C_7  and  C_3 
REMARK    3  A    between atoms: C_10  and  C_4 
REMARK    4  A    between atoms: C_12  and  C_7 
REMARK    5  A    between atoms: C_18  and  C_11 
ROOT
ATOM      1  C   UNL d   1     -50.239  27.275  33.585  0.00  0.00     0.092 C 
ATOM      2  C   UNL d   1     -50.896  27.694  33.858  0.00  0.00     0.103 C 
ATOM      3  N   UNL d   1     -51.551  28.113  34.130  0.00  0.00    -0.191 NA
ENDROOT
BRANCH   1   4
ATOM      4  C   UNL d   1     -50.289  26.458  33.486  0.00  0.00     0.120 A 
ATOM      5  N   UNL d   1     -51.020  26.087  33.493  0.00  0.00    -0.238 NA
ATOM      6  C   UNL d   1     -50.891  25.272  33.381  0.00  0.00     0.088 A 
ATOM      7  C   UNL d   1     -50.090  25.164  33.308  0.00  0.00     0.056 A 
ATOM      8  S   UNL d   1     -49.712  25.880  33.370  0.00  0.00    -0.065 SA
BRANCH   6   9
ATOM      9  C   UNL d   1     -51.538  24.758  33.363  0.00  0.00     0.018 A 
ATOM     10  C   UNL d   1     -51.444  23.949  33.324  0.00  0.00     0.005 A 
ATOM     11  C   UNL d   1     -52.084  23.461  33.308  0.00  0.00     0.042 A 
ATOM     12  C   UNL d   1     -52.855  23.755  33.331  0.00  0.00     0.196 A 
ATOM     13  C   UNL d   1     -52.964  24.571  33.371  0.00  0.00     0.042 A 
ATOM     14  O   UNL d   1     -53.548  23.445  33.324  0.00  0.00    -0.287 OA
ATOM     15  C   UNL d   1     -52.306  25.067  33.387  0.00  0.00     0.005 A 
ENDBRANCH   6   9
ENDBRANCH   1   4
BRANCH   1  16
ATOM     16  C   UNL d   1     -49.534  27.668  33.412  0.00  0.00     0.012 C 
BRANCH  16  17
ATOM     17  C   UNL d   1     -49.148  28.130  34.002  0.00  0.00     0.001 A 
ATOM     18  C   UNL d   1     -49.089  27.807  34.755  0.00  0.00     0.000 A 
ATOM     19  C   UNL d   1     -48.696  28.268  35.370  0.00  0.00     0.000 A 
ATOM     20  C   UNL d   1     -48.395  29.019  35.173  0.00  0.00     0.000 A 
ATOM     21  C   UNL d   1     -48.468  29.320  34.408  0.00  0.00     0.000 A 
ATOM     22  C   UNL d   1     -48.835  28.893  33.823  0.00  0.00     0.000 A 
BRANCH  20  23
ATOM     23  C   UNL d   1     -48.013  29.454  35.794  0.00  0.00     0.000 C 
ATOM     24  C   UNL d   1     -47.709  30.204  35.664  0.00  0.00     0.000 C 
ATOM     25  C   UNL d   1     -47.953  29.102  36.541  0.00  0.00     0.000 C 
ENDBRANCH  20  23
ENDBRANCH  16  17
ENDBRANCH   1  16
TORSDOF 5
ENDMDL
