MODEL 1
REMARK VINA RESULT:      67.4      0.000      0.000
REMARK  6 active torsions:
REMARK  status: ('A' for Active; 'I' for Inactive)
REMARK    1  A    between atoms: N_7  and  C_1 
REMARK    2  A    between atoms: C_6  and  C_4 
REMARK    3  A    between atoms: C_19  and  N_9 
REMARK    4  A    between atoms: C_21  and  C_13 
REMARK    5  A    between atoms: O_20  and  C_21 
REMARK    6  A    between atoms: C_22  and  O_20 
ROOT
ATOM      1  C   UNL d   1      13.975  15.774  -4.586  0.00  0.00     0.198 A 
ATOM      2  C   UNL d   1      14.241  15.592  -3.787  0.00  0.00     0.191 A 
ATOM      3  O   UNL d   1      13.659  15.069  -4.894  0.00  0.00    -0.268 OA
ATOM      4  C   UNL d   1      13.726  14.500  -4.327  0.00  0.00     0.208 A 
ATOM      5  N   UNL d   1      14.068  14.800  -3.673  0.00  0.00    -0.206 NA
ATOM      6  C   UNL d   1      14.594  16.132  -3.273  0.00  0.00     0.124 C 
ATOM      7  N   UNL d   1      14.952  16.654  -2.732  0.00  0.00    -0.190 NA
ENDROOT
BRANCH   1   8
ATOM      8  N   UNL d   1      14.066  16.527  -4.881  0.00  0.00    -0.280 N 
ATOM      9  C   UNL d   1      13.641  16.787  -5.534  0.00  0.00     0.101 A 
ATOM     10  C   UNL d   1      13.732  17.539  -5.829  0.00  0.00     0.100 A 
ATOM     11  N   UNL d   1      14.267  18.051  -5.460  0.00  0.00    -0.301 N 
ATOM     12  C   UNL d   1      14.707  17.804  -4.796  0.00  0.00     0.100 A 
ATOM     13  C   UNL d   1      14.601  17.039  -4.512  0.00  0.00     0.101 A 
BRANCH  11  14
ATOM     14  C   UNL d   1      14.373  18.817  -5.745  0.00  0.00     0.064 A 
ATOM     15  C   UNL d   1      13.746  19.242  -6.104  0.00  0.00     0.018 A 
ATOM     16  C   UNL d   1      13.852  20.007  -6.388  0.00  0.00     0.002 A 
ATOM     17  C   UNL d   1      14.598  20.363  -6.316  0.00  0.00     0.000 A 
ATOM     18  C   UNL d   1      15.223  19.958  -5.965  0.00  0.00     0.002 A 
ATOM     19  C   UNL d   1      15.118  19.173  -5.672  0.00  0.00     0.018 A 
ENDBRANCH  11  14
ENDBRANCH   1   8
BRANCH   4  20
ATOM     20  C   UNL d   1      13.668  13.771  -3.965  0.00  0.00     0.141 A 
ATOM     21  O   UNL d   1      13.871  13.228  -3.353  0.00  0.00    -0.301 OA
ATOM     22  C   UNL d   1      13.465  12.521  -3.486  0.00  0.00     0.125 A 
ATOM     23  C   UNL d   1      13.018  12.591  -4.150  0.00  0.00     0.029 A 
ATOM     24  C   UNL d   1      13.156  13.376  -4.436  0.00  0.00     0.030 A 
BRANCH  22  25
ATOM     25  C   UNL d   1      13.487  11.829  -3.036  0.00  0.00     0.147 C 
BRANCH  25  26
ATOM     26  O   UNL d   1      13.129  11.779  -2.291  0.00  0.00    -0.303 OA
BRANCH  26  27
ATOM     27  C   UNL d   1      13.559  11.780  -1.599  0.00  0.00     0.100 A 
ATOM     28  C   UNL d   1      14.379  11.780  -1.580  0.00  0.00     0.025 A 
ATOM     29  C   UNL d   1      14.794  11.780  -0.873  0.00  0.00     0.002 A 
ATOM     30  C   UNL d   1      15.625  11.781  -0.835  0.00  0.00     0.000 C 
ATOM     31  C   UNL d   1      14.377  11.780  -0.168  0.00  0.00     0.000 A 
ATOM     32  C   UNL d   1      13.529  11.779  -0.172  0.00  0.00     0.002 A 
ATOM     33  C   UNL d   1      13.126  11.779  -0.879  0.00  0.00     0.025 A 
ENDBRANCH  26  27
ENDBRANCH  25  26
ENDBRANCH  22  25
ENDBRANCH   4  20
TORSDOF 6
ENDMDL
