MODEL 1
REMARK VINA RESULT:      -2.9      0.000      0.000
REMARK  6 active torsions:
REMARK  status: ('A' for Active; 'I' for Inactive)
REMARK    1  A    between atoms: C_2  and  S_1 
REMARK    2  A    between atoms: N_3  and  S_1 
REMARK    3  A    between atoms: C_11  and  N_3 
REMARK    4  A    between atoms: O_13  and  C_5 
REMARK    5  A    between atoms: C_14  and  C_11 
REMARK    6  A    between atoms: C_15  and  O_13 
ROOT
ATOM      1  S   UNL d   1      32.983  19.422 -22.636  0.00  0.00     0.285 S 
ATOM      2  O   UNL d   1      32.725  19.124 -21.912  0.00  0.00    -0.198 OA
ATOM      3  O   UNL d   1      33.241  19.720 -23.361  0.00  0.00    -0.198 OA
ENDROOT
BRANCH   1   4
ATOM      4  C   UNL d   1      32.852  18.686 -22.985  0.00  0.00     0.107 A 
ATOM      5  C   UNL d   1      32.331  18.617 -23.620  0.00  0.00     0.040 A 
ATOM      6  C   UNL d   1      32.199  17.881 -23.969  0.00  0.00     0.128 A 
ATOM      7  C   UNL d   1      32.589  17.214 -23.684  0.00  0.00     0.163 A 
ATOM      8  C   UNL d   1      33.110  17.283 -23.050  0.00  0.00     0.032 A 
ATOM      9  F   UNL d   1      32.458  16.478 -24.033  0.00  0.00    -0.202 F 
ATOM     10  C   UNL d   1      33.241  18.019 -22.701  0.00  0.00     0.015 A 
BRANCH   6  11
ATOM     11  O   UNL d   1      31.679  17.812 -24.602  0.00  0.00    -0.303 OA
BRANCH  11  12
ATOM     12  C   UNL d   1      30.900  17.580 -24.471  0.00  0.00     0.123 C 
ATOM     13  C   UNL d   1      30.317  17.729 -25.043  0.00  0.00     0.029 C 
ENDBRANCH  11  12
ENDBRANCH   6  11
ENDBRANCH   1   4
BRANCH   1  14
ATOM     14  N   UNL d   1      33.114  20.158 -22.287  0.00  0.00    -0.157 NA
BRANCH  14  15
ATOM     15  C   UNL d   1      32.605  20.429 -21.695  0.00  0.00     0.112 C 
BRANCH  15  16
ATOM     16  C   UNL d   1      32.744  21.159 -21.336  0.00  0.00     0.020 A 
ATOM     17  C   UNL d   1      32.533  21.850 -21.730  0.00  0.00     0.002 A 
ATOM     18  C   UNL d   1      32.672  22.576 -21.373  0.00  0.00     0.000 A 
ATOM     19  C   UNL d   1      33.019  22.614 -20.626  0.00  0.00     0.000 A 
ATOM     20  C   UNL d   1      33.229  21.915 -20.236  0.00  0.00     0.000 A 
ATOM     21  C   UNL d   1      33.089  21.185 -20.594  0.00  0.00     0.002 A 
ENDBRANCH  15  16
ENDBRANCH  14  15
ENDBRANCH   1  14
TORSDOF 6
ENDMDL
MODEL 2
REMARK VINA RESULT:      -2.8      2.834      4.348
REMARK  6 active torsions:
REMARK  status: ('A' for Active; 'I' for Inactive)
REMARK    1  A    between atoms: C_2  and  S_1 
REMARK    2  A    between atoms: N_3  and  S_1 
REMARK    3  A    between atoms: C_11  and  N_3 
REMARK    4  A    between atoms: O_13  and  C_5 
REMARK    5  A    between atoms: C_14  and  C_11 
REMARK    6  A    between atoms: C_15  and  O_13 
ROOT
ATOM      1  S   UNL d   1      32.501  23.092 -20.862  0.00  0.00     0.285 S 
ATOM      2  O   UNL d   1      31.764  22.733 -20.947  0.00  0.00    -0.198 OA
ATOM      3  O   UNL d   1      33.239  23.452 -20.777  0.00  0.00    -0.198 OA
ENDROOT
BRANCH   1   4
ATOM      4  C   UNL d   1      32.673  22.927 -21.652  0.00  0.00     0.107 A 
ATOM      5  C   UNL d   1      32.871  22.160 -21.880  0.00  0.00     0.040 A 
ATOM      6  C   UNL d   1      33.043  21.995 -22.670  0.00  0.00     0.128 A 
ATOM      7  C   UNL d   1      33.017  22.596 -23.232  0.00  0.00     0.163 A 
ATOM      8  C   UNL d   1      32.819  23.362 -23.005  0.00  0.00     0.032 A 
ATOM      9  F   UNL d   1      33.188  22.431 -24.021  0.00  0.00    -0.202 F 
ATOM     10  C   UNL d   1      32.647  23.527 -22.215  0.00  0.00     0.015 A 
BRANCH   6  11
ATOM     11  O   UNL d   1      33.241  21.229 -22.897  0.00  0.00    -0.303 OA
BRANCH  11  12
ATOM     12  C   UNL d   1      33.011  20.591 -22.431  0.00  0.00     0.123 C 
ATOM     13  C   UNL d   1      33.194  19.815 -22.665  0.00  0.00     0.029 C 
ENDBRANCH  11  12
ENDBRANCH   6  11
ENDBRANCH   1   4
BRANCH   1  14
ATOM     14  N   UNL d   1      32.330  23.258 -20.072  0.00  0.00    -0.157 NA
BRANCH  14  15
ATOM     15  C   UNL d   1      32.684  22.813 -19.472  0.00  0.00     0.112 C 
BRANCH  15  16
ATOM     16  C   UNL d   1      32.622  23.059 -18.687  0.00  0.00     0.020 A 
ATOM     17  C   UNL d   1      33.238  22.903 -18.165  0.00  0.00     0.002 A 
ATOM     18  C   UNL d   1      33.177  23.148 -17.384  0.00  0.00     0.000 A 
ATOM     19  C   UNL d   1      32.504  23.548 -17.124  0.00  0.00     0.000 A 
ATOM     20  C   UNL d   1      31.888  23.702 -17.655  0.00  0.00     0.000 A 
ATOM     21  C   UNL d   1      31.949  23.455 -18.439  0.00  0.00     0.002 A 
ENDBRANCH  15  16
ENDBRANCH  14  15
ENDBRANCH   1  14
TORSDOF 6
ENDMDL
MODEL 3
REMARK VINA RESULT:      -2.3      1.822      4.626
REMARK  6 active torsions:
REMARK  status: ('A' for Active; 'I' for Inactive)
REMARK    1  A    between atoms: C_2  and  S_1 
REMARK    2  A    between atoms: N_3  and  S_1 
REMARK    3  A    between atoms: C_11  and  N_3 
REMARK    4  A    between atoms: O_13  and  C_5 
REMARK    5  A    between atoms: C_14  and  C_11 
REMARK    6  A    between atoms: C_15  and  O_13 
ROOT
ATOM      1  S   UNL d   1      33.183  19.717 -22.613  0.00  0.00     0.285 S 
ATOM      2  O   UNL d   1      33.126  19.127 -22.040  0.00  0.00    -0.198 OA
ATOM      3  O   UNL d   1      33.241  20.307 -23.187  0.00  0.00    -0.198 OA
ENDROOT
BRANCH   1   4
ATOM      4  C   UNL d   1      33.198  20.291 -22.021  0.00  0.00     0.107 A 
ATOM      5  C   UNL d   1      33.195  21.091 -22.220  0.00  0.00     0.040 A 
ATOM      6  C   UNL d   1      33.209  21.664 -21.628  0.00  0.00     0.128 A 
ATOM      7  C   UNL d   1      33.227  21.439 -20.836  0.00  0.00     0.163 A 
ATOM      8  C   UNL d   1      33.230  20.641 -20.637  0.00  0.00     0.032 A 
ATOM      9  F   UNL d   1      33.241  22.013 -20.244  0.00  0.00    -0.202 F 
ATOM     10  C   UNL d   1      33.215  20.067 -21.229  0.00  0.00     0.015 A 
BRANCH   6  11
ATOM     11  O   UNL d   1      33.206  22.463 -21.827  0.00  0.00    -0.303 OA
BRANCH  11  12
ATOM     12  C   UNL d   1      32.494  22.841 -21.996  0.00  0.00     0.123 C 
ATOM     13  C   UNL d   1      32.493  23.616 -22.295  0.00  0.00     0.029 C 
ENDBRANCH  11  12
ENDBRANCH   6  11
ENDBRANCH   1   4
BRANCH   1  14
ATOM     14  N   UNL d   1      33.169  19.143 -23.206  0.00  0.00    -0.157 NA
BRANCH  14  15
ATOM     15  C   UNL d   1      32.522  18.631 -23.268  0.00  0.00     0.112 C 
BRANCH  15  16
ATOM     16  C   UNL d   1      32.525  18.033 -23.836  0.00  0.00     0.020 A 
ATOM     17  C   UNL d   1      32.031  18.095 -24.491  0.00  0.00     0.002 A 
ATOM     18  C   UNL d   1      32.034  17.500 -25.056  0.00  0.00     0.000 A 
ATOM     19  C   UNL d   1      32.527  16.844 -24.968  0.00  0.00     0.000 A 
ATOM     20  C   UNL d   1      33.020  16.788 -24.306  0.00  0.00     0.000 A 
ATOM     21  C   UNL d   1      33.018  17.386 -23.739  0.00  0.00     0.002 A 
ENDBRANCH  15  16
ENDBRANCH  14  15
ENDBRANCH   1  14
TORSDOF 6
ENDMDL
MODEL 4
REMARK VINA RESULT:      -1.9      1.972      4.733
REMARK  6 active torsions:
REMARK  status: ('A' for Active; 'I' for Inactive)
REMARK    1  A    between atoms: C_2  and  S_1 
REMARK    2  A    between atoms: N_3  and  S_1 
REMARK    3  A    between atoms: C_11  and  N_3 
REMARK    4  A    between atoms: O_13  and  C_5 
REMARK    5  A    between atoms: C_14  and  C_11 
REMARK    6  A    between atoms: C_15  and  O_13 
ROOT
ATOM      1  S   UNL d   1      33.228  20.187 -23.048  0.00  0.00     0.285 S 
ATOM      2  O   UNL d   1      33.217  20.006 -22.243  0.00  0.00    -0.198 OA
ATOM      3  O   UNL d   1      33.238  20.368 -23.853  0.00  0.00    -0.198 OA
ENDROOT
BRANCH   1   4
ATOM      4  C   UNL d   1      33.231  20.992 -22.867  0.00  0.00     0.107 A 
ATOM      5  C   UNL d   1      33.227  21.238 -22.080  0.00  0.00     0.040 A 
ATOM      6  C   UNL d   1      33.230  22.043 -21.899  0.00  0.00     0.128 A 
ATOM      7  C   UNL d   1      33.237  22.602 -22.504  0.00  0.00     0.163 A 
ATOM      8  C   UNL d   1      33.241  22.356 -23.289  0.00  0.00     0.032 A 
ATOM      9  F   UNL d   1      33.240  23.407 -22.323  0.00  0.00    -0.202 F 
ATOM     10  C   UNL d   1      33.238  21.551 -23.470  0.00  0.00     0.015 A 
BRANCH   6  11
ATOM     11  O   UNL d   1      33.226  22.289 -21.114  0.00  0.00    -0.303 OA
BRANCH  11  12
ATOM     12  C   UNL d   1      32.574  22.130 -20.637  0.00  0.00     0.123 C 
ATOM     13  C   UNL d   1      32.507  22.482 -19.888  0.00  0.00     0.029 C 
ENDBRANCH  11  12
ENDBRANCH   6  11
ENDBRANCH   1   4
BRANCH   1  14
ATOM     14  N   UNL d   1      33.224  19.382 -23.229  0.00  0.00    -0.157 NA
BRANCH  14  15
ATOM     15  C   UNL d   1      32.621  18.897 -22.939  0.00  0.00     0.112 C 
BRANCH  15  16
ATOM     16  C   UNL d   1      32.574  18.110 -23.181  0.00  0.00     0.020 A 
ATOM     17  C   UNL d   1      33.158  17.579 -22.945  0.00  0.00     0.002 A 
ATOM     18  C   UNL d   1      33.111  16.796 -23.187  0.00  0.00     0.000 A 
ATOM     19  C   UNL d   1      32.486  16.542 -23.661  0.00  0.00     0.000 A 
ATOM     20  C   UNL d   1      31.903  17.081 -23.895  0.00  0.00     0.000 A 
ATOM     21  C   UNL d   1      31.950  17.868 -23.652  0.00  0.00     0.002 A 
ENDBRANCH  15  16
ENDBRANCH  14  15
ENDBRANCH   1  14
TORSDOF 6
ENDMDL
MODEL 5
REMARK VINA RESULT:      -1.1      3.264      4.498
REMARK  6 active torsions:
REMARK  status: ('A' for Active; 'I' for Inactive)
REMARK    1  A    between atoms: C_2  and  S_1 
REMARK    2  A    between atoms: N_3  and  S_1 
REMARK    3  A    between atoms: C_11  and  N_3 
REMARK    4  A    between atoms: O_13  and  C_5 
REMARK    5  A    between atoms: C_14  and  C_11 
REMARK    6  A    between atoms: C_15  and  O_13 
ROOT
ATOM      1  S   UNL d   1      32.852  22.329 -19.841  0.00  0.00     0.285 S 
ATOM      2  O   UNL d   1      33.189  22.994 -20.194  0.00  0.00    -0.198 OA
ATOM      3  O   UNL d   1      32.514  21.665 -19.487  0.00  0.00    -0.198 OA
ENDROOT
BRANCH   1   4
ATOM      4  C   UNL d   1      32.858  21.940 -20.568  0.00  0.00     0.107 A 
ATOM      5  C   UNL d   1      32.787  22.369 -21.267  0.00  0.00     0.040 A 
ATOM      6  C   UNL d   1      32.794  21.979 -21.994  0.00  0.00     0.128 A 
ATOM      7  C   UNL d   1      32.872  21.160 -22.022  0.00  0.00     0.163 A 
ATOM      8  C   UNL d   1      32.943  20.731 -21.323  0.00  0.00     0.032 A 
ATOM      9  F   UNL d   1      32.879  20.770 -22.749  0.00  0.00    -0.202 F 
ATOM     10  C   UNL d   1      32.937  21.121 -20.596  0.00  0.00     0.015 A 
BRANCH   6  11
ATOM     11  O   UNL d   1      32.722  22.408 -22.692  0.00  0.00    -0.303 OA
BRANCH  11  12
ATOM     12  C   UNL d   1      33.040  23.166 -22.743  0.00  0.00     0.123 C 
ATOM     13  C   UNL d   1      33.208  23.501 -23.485  0.00  0.00     0.029 C 
ENDBRANCH  11  12
ENDBRANCH   6  11
ENDBRANCH   1   4
BRANCH   1  14
ATOM     14  N   UNL d   1      32.845  22.719 -19.114  0.00  0.00    -0.157 NA
BRANCH  14  15
ATOM     15  C   UNL d   1      32.941  22.289 -18.414  0.00  0.00     0.112 C 
BRANCH  15  16
ATOM     16  C   UNL d   1      32.850  22.663 -17.685  0.00  0.00     0.020 A 
ATOM     17  C   UNL d   1      32.370  23.329 -17.630  0.00  0.00     0.002 A 
ATOM     18  C   UNL d   1      32.280  23.702 -16.904  0.00  0.00     0.000 A 
ATOM     19  C   UNL d   1      32.667  23.413 -16.235  0.00  0.00     0.000 A 
ATOM     20  C   UNL d   1      33.149  22.743 -16.299  0.00  0.00     0.000 A 
ATOM     21  C   UNL d   1      33.240  22.368 -17.028  0.00  0.00     0.002 A 
ENDBRANCH  15  16
ENDBRANCH  14  15
ENDBRANCH   1  14
TORSDOF 6
ENDMDL
MODEL 6
REMARK VINA RESULT:      -0.5      0.935      1.425
REMARK  6 active torsions:
REMARK  status: ('A' for Active; 'I' for Inactive)
REMARK    1  A    between atoms: C_2  and  S_1 
REMARK    2  A    between atoms: N_3  and  S_1 
REMARK    3  A    between atoms: C_11  and  N_3 
REMARK    4  A    between atoms: O_13  and  C_5 
REMARK    5  A    between atoms: C_14  and  C_11 
REMARK    6  A    between atoms: C_15  and  O_13 
ROOT
ATOM      1  S   UNL d   1      33.170  19.902 -22.870  0.00  0.00     0.285 S 
ATOM      2  O   UNL d   1      33.195  20.459 -23.478  0.00  0.00    -0.198 OA
ATOM      3  O   UNL d   1      33.145  19.345 -22.262  0.00  0.00    -0.198 OA
ENDROOT
BRANCH   1   4
ATOM      4  C   UNL d   1      33.099  19.298 -23.427  0.00  0.00     0.107 A 
ATOM      5  C   UNL d   1      32.887  18.539 -23.187  0.00  0.00     0.040 A 
ATOM      6  C   UNL d   1      32.816  17.934 -23.744  0.00  0.00     0.128 A 
ATOM      7  C   UNL d   1      32.958  18.088 -24.540  0.00  0.00     0.163 A 
ATOM      8  C   UNL d   1      33.170  18.846 -24.780  0.00  0.00     0.032 A 
ATOM      9  F   UNL d   1      32.887  17.484 -25.097  0.00  0.00    -0.202 F 
ATOM     10  C   UNL d   1      33.241  19.451 -24.223  0.00  0.00     0.015 A 
BRANCH   6  11
ATOM     11  O   UNL d   1      32.604  17.176 -23.504  0.00  0.00    -0.303 OA
BRANCH  11  12
ATOM     12  C   UNL d   1      31.813  16.998 -23.358  0.00  0.00     0.123 C 
ATOM     13  C   UNL d   1      31.587  16.220 -23.176  0.00  0.00     0.029 C 
ENDBRANCH  11  12
ENDBRANCH   6  11
ENDBRANCH   1   4
BRANCH   1  14
ATOM     14  N   UNL d   1      33.241  20.507 -22.313  0.00  0.00    -0.157 NA
BRANCH  14  15
ATOM     15  C   UNL d   1      32.674  20.586 -21.716  0.00  0.00     0.112 C 
BRANCH  15  16
ATOM     16  C   UNL d   1      32.703  21.233 -21.205  0.00  0.00     0.020 A 
ATOM     17  C   UNL d   1      33.165  21.190 -20.525  0.00  0.00     0.002 A 
ATOM     18  C   UNL d   1      33.193  21.833 -20.016  0.00  0.00     0.000 A 
ATOM     19  C   UNL d   1      32.764  22.517 -20.184  0.00  0.00     0.000 A 
ATOM     20  C   UNL d   1      32.302  22.553 -20.870  0.00  0.00     0.000 A 
ATOM     21  C   UNL d   1      32.273  21.906 -21.381  0.00  0.00     0.002 A 
ENDBRANCH  15  16
ENDBRANCH  14  15
ENDBRANCH   1  14
TORSDOF 6
ENDMDL
