MODEL 1
REMARK VINA RESULT:      28.1      0.000      0.000
REMARK  4 active torsions:
REMARK  status: ('A' for Active; 'I' for Inactive)
REMARK    1  A    between atoms: C_2  and  S_1 
REMARK    2  A    between atoms: N_9  and  S_1 
REMARK    3  A    between atoms: C_18  and  N_9 
REMARK    4  A    between atoms: C_19  and  N_9 
ROOT
ATOM      1  C   UNL d   1      13.934  12.481  -2.514  0.00  0.00     0.104 A 
ATOM      2  C   UNL d   1      15.253  13.716  -0.433  0.00  0.00     0.225 A 
ATOM      3  S   UNL d   1      15.074  12.644  -0.365  0.00  0.00    -0.046 SA
ATOM      4  C   UNL d   1      14.613  13.202  -1.476  0.00  0.00     0.010 A 
ATOM      5  C   UNL d   1      14.688  12.474  -1.048  0.00  0.00     0.033 A 
ATOM      6  C   UNL d   1      14.237  13.210  -2.208  0.00  0.00     0.013 A 
ATOM      7  C   UNL d   1      14.913  13.894  -1.163  0.00  0.00     0.046 A 
ATOM      8  C   UNL d   1      14.006  11.784  -2.104  0.00  0.00     0.013 A 
ATOM      9  C   UNL d   1      14.383  11.785  -1.371  0.00  0.00     0.007 A 
ATOM     10  O   UNL d   1      15.595  14.357  -0.019  0.00  0.00    -0.279 OA
ATOM     11  C   UNL d   1      14.163  13.937  -2.636  0.00  0.00     0.001 A 
ATOM     12  C   UNL d   1      14.838  14.621  -1.591  0.00  0.00     0.004 A 
ATOM     13  C   UNL d   1      14.467  14.627  -2.314  0.00  0.00     0.000 A 
ENDROOT
BRANCH   1  14
ATOM     14  S   UNL d   1      13.546  12.470  -3.263  0.00  0.00     0.271 S 
ATOM     15  O   UNL d   1      14.190  12.039  -3.554  0.00  0.00    -0.200 OA
ATOM     16  O   UNL d   1      12.892  12.916  -2.939  0.00  0.00    -0.200 OA
BRANCH  14  17
ATOM     17  N   UNL d   1      13.147  12.465  -4.013  0.00  0.00    -0.229 N 
BRANCH  17  18
ATOM     18  C   UNL d   1      12.868  13.203  -4.273  0.00  0.00     0.092 C 
ATOM     19  C   UNL d   1      12.888  13.447  -5.047  0.00  0.00     0.021 C 
ENDBRANCH  17  18
BRANCH  17  20
ATOM     20  C   UNL d   1      13.044  11.785  -4.447  0.00  0.00     0.092 C 
ATOM     21  C   UNL d   1      12.853  11.835  -5.253  0.00  0.00     0.021 C 
ENDBRANCH  17  20
ENDBRANCH  14  17
ENDBRANCH   1  14
TORSDOF 4
ENDMDL
