MODEL 1
REMARK VINA RESULT:      25.0      0.000      0.000
REMARK  3 active torsions:
REMARK  status: ('A' for Active; 'I' for Inactive)
REMARK    1  A    between atoms: N_3  and  C_2 
REMARK       I    between atoms: C_4  and  N_3 
REMARK    2  A    between atoms: C_10  and  N_3 
REMARK    3  A    between atoms: C_12  and  C_4 
ROOT
ATOM      1  N   UNL d   1     -51.589  24.809  33.385  0.00  0.00    -0.274 N 
ATOM      2  C   UNL d   1     -52.679  24.191  33.369  0.00  0.00     0.265 C 
ATOM      3  O   UNL d   1     -52.577  23.397  33.394  0.00  0.00    -0.267 OA
ENDROOT
BRANCH   1   4
ATOM      4  C   UNL d   1     -51.639  25.595  33.362  0.00  0.00     0.079 A 
ATOM      5  C   UNL d   1     -51.034  26.097  33.377  0.00  0.00     0.116 A 
ATOM      6  S   UNL d   1     -51.325  26.825  33.345  0.00  0.00     0.213 S 
ATOM      7  C   UNL d   1     -52.108  26.767  33.310  0.00  0.00     0.100 A 
ATOM      8  O   UNL d   1     -51.617  27.554  33.313  0.00  0.00    -0.217 OA
ATOM      9  O   UNL d   1     -50.551  26.919  33.379  0.00  0.00    -0.217 OA
ATOM     10  C   UNL d   1     -52.300  26.012  33.321  0.00  0.00     0.030 A 
ENDBRANCH   1   4
BRANCH   1  11
ATOM     11  C   UNL d   1     -50.864  24.413  33.417  0.00  0.00     0.067 A 
ATOM     12  C   UNL d   1     -50.171  24.839  33.317  0.00  0.00     0.020 A 
ATOM     13  C   UNL d   1     -49.428  24.440  33.348  0.00  0.00     0.031 A 
ATOM     14  C   UNL d   1     -49.407  23.623  33.480  0.00  0.00     0.140 A 
ATOM     15  C   UNL d   1     -50.107  23.199  33.580  0.00  0.00     0.031 A 
ATOM     16  F   UNL d   1     -48.686  23.229  33.512  0.00  0.00    -0.204 F 
ATOM     17  C   UNL d   1     -50.840  23.575  33.551  0.00  0.00     0.020 A 
ENDBRANCH   1  11
BRANCH   2  18
ATOM     18  C   UNL d   1     -53.418  24.565  33.338  0.00  0.00     0.057 C 
ATOM     19  C   UNL d   1     -53.473  25.402  33.336  0.00  0.00     0.005 C 
ATOM     20  C   UNL d   1     -54.122  24.100  33.307  0.00  0.00     0.005 C 
ENDBRANCH   2  18
TORSDOF 3
ENDMDL
MODEL 2
REMARK VINA RESULT:      27.4      1.860      2.902
REMARK  3 active torsions:
REMARK  status: ('A' for Active; 'I' for Inactive)
REMARK    1  A    between atoms: N_3  and  C_2 
REMARK       I    between atoms: C_4  and  N_3 
REMARK    2  A    between atoms: C_10  and  N_3 
REMARK    3  A    between atoms: C_12  and  C_4 
ROOT
ATOM      1  N   UNL d   1     -51.617  24.986  33.652  0.00  0.00    -0.274 N 
ATOM      2  C   UNL d   1     -52.780  24.540  33.791  0.00  0.00     0.265 C 
ATOM      3  O   UNL d   1     -53.318  25.125  33.891  0.00  0.00    -0.267 OA
ENDROOT
BRANCH   1   4
ATOM      4  C   UNL d   1     -51.053  24.445  33.551  0.00  0.00     0.079 A 
ATOM      5  C   UNL d   1     -50.279  24.585  33.522  0.00  0.00     0.116 A 
ATOM      6  S   UNL d   1     -49.915  23.898  33.415  0.00  0.00     0.213 S 
ATOM      7  C   UNL d   1     -50.466  23.339  33.378  0.00  0.00     0.100 A 
ATOM      8  O   UNL d   1     -49.550  23.212  33.307  0.00  0.00    -0.217 OA
ATOM      9  O   UNL d   1     -49.342  24.428  33.446  0.00  0.00    -0.217 OA
ATOM     10  C   UNL d   1     -51.164  23.676  33.462  0.00  0.00     0.030 A 
ENDBRANCH   1   4
BRANCH   1  11
ATOM     11  C   UNL d   1     -51.456  25.796  33.667  0.00  0.00     0.067 A 
ATOM     12  C   UNL d   1     -50.773  26.061  34.033  0.00  0.00     0.020 A 
ATOM     13  C   UNL d   1     -50.603  26.888  34.050  0.00  0.00     0.031 A 
ATOM     14  C   UNL d   1     -51.129  27.422  33.697  0.00  0.00     0.140 A 
ATOM     15  C   UNL d   1     -51.814  27.149  33.330  0.00  0.00     0.031 A 
ATOM     16  F   UNL d   1     -50.968  28.228  33.711  0.00  0.00    -0.204 F 
ATOM     17  C   UNL d   1     -51.993  26.345  33.306  0.00  0.00     0.020 A 
ENDBRANCH   1  11
BRANCH   2  18
ATOM     18  C   UNL d   1     -52.967  23.733  33.781  0.00  0.00     0.057 C 
ATOM     19  C   UNL d   1     -53.598  23.446  33.309  0.00  0.00     0.005 C 
ATOM     20  C   UNL d   1     -52.517  23.193  34.249  0.00  0.00     0.005 C 
ENDBRANCH   2  18
TORSDOF 3
ENDMDL
