MODEL 1
REMARK VINA RESULT:      55.8      0.000      0.000
REMARK  6 active torsions:
REMARK  status: ('A' for Active; 'I' for Inactive)
REMARK    1  A    between atoms: C_7  and  C_1 
REMARK    2  A    between atoms: C_9  and  N_10 
REMARK       I    between atoms: N_10  and  C_11 
REMARK    3  A    between atoms: C_11  and  C_19 
REMARK    4  A    between atoms: S_15  and  C_12 
REMARK    5  A    between atoms: O_24  and  C_13 
REMARK    6  A    between atoms: C_19  and  S_15 
ROOT
ATOM      1  S   UNL d   1      14.163  15.893  -5.533  0.00  0.00    -0.061 SA
ENDROOT
BRANCH   1   2
ATOM      2  C   UNL d   1      14.174  16.727  -5.633  0.00  0.00     0.133 A 
ATOM      3  C   UNL d   1      13.796  17.064  -6.283  0.00  0.00     0.029 A 
ATOM      4  C   UNL d   1      13.805  17.880  -6.384  0.00  0.00     0.024 A 
ATOM      5  C   UNL d   1      14.190  18.361  -5.836  0.00  0.00     0.111 A 
ATOM      6  N   UNL d   1      14.567  18.025  -5.186  0.00  0.00    -0.147 NA
ATOM      7  N   UNL d   1      14.559  17.208  -5.084  0.00  0.00    -0.141 NA
BRANCH   5   8
ATOM      8  C   UNL d   1      14.198  19.178  -5.938  0.00  0.00     0.068 A 
ATOM      9  C   UNL d   1      13.583  19.678  -6.187  0.00  0.00     0.089 A 
ATOM     10  N   UNL d   1      13.868  20.453  -6.200  0.00  0.00    -0.238 NA
ATOM     11  C   UNL d   1      12.816  19.442  -6.389  0.00  0.00     0.021 C 
ATOM     12  C   UNL d   1      14.657  20.432  -5.960  0.00  0.00     0.111 A 
ATOM     13  S   UNL d   1      14.863  19.649  -5.797  0.00  0.00    -0.065 SA
ATOM     14  C   UNL d   1      15.169  21.092  -5.889  0.00  0.00     0.028 C 
ENDBRANCH   5   8
ENDBRANCH   1   2
BRANCH   1  15
ATOM     15  C   UNL d   1      13.665  15.554  -4.969  0.00  0.00     0.099 C 
BRANCH  15  16
ATOM     16  C   UNL d   1      13.677  14.738  -4.855  0.00  0.00     0.286 C 
ATOM     17  N   UNL d   1      13.413  14.413  -4.135  0.00  0.00    -0.206 NA
ATOM     18  O   UNL d   1      13.953  14.237  -5.457  0.00  0.00    -0.265 OA
BRANCH  17  19
ATOM     19  C   UNL d   1      13.426  13.598  -4.020  0.00  0.00     0.107 A 
ATOM     20  C   UNL d   1      13.772  13.279  -3.336  0.00  0.00     0.112 A 
ATOM     21  C   UNL d   1      13.785  12.463  -3.221  0.00  0.00     0.026 A 
ATOM     22  C   UNL d   1      13.452  11.959  -3.788  0.00  0.00     0.002 A 
ATOM     23  C   UNL d   1      13.105  12.278  -4.471  0.00  0.00     0.002 A 
ATOM     24  C   UNL d   1      13.093  13.094  -4.587  0.00  0.00     0.021 A 
ATOM     25  C   UNL d   1      12.773  11.779  -5.038  0.00  0.00     0.000 C 
BRANCH  20  26
ATOM     26  O   UNL d   1      14.104  13.782  -2.771  0.00  0.00    -0.327 OA
ATOM     27  C   UNL d   1      14.279  13.497  -2.019  0.00  0.00     0.181 C 
ENDBRANCH  20  26
ENDBRANCH  17  19
ENDBRANCH  15  16
ENDBRANCH   1  15
TORSDOF 6
ENDMDL
