MODEL 1
REMARK VINA RESULT:      -7.5      0.000      0.000
REMARK  1 active torsions:
REMARK  status: ('A' for Active; 'I' for Inactive)
REMARK       I    between atoms: N_2  and  C_1 
REMARK       I    between atoms: N_4  and  C_1 
REMARK    1  A    between atoms: C_5  and  N_2 
ROOT
ATOM      1  N   UNL d   1     -48.087  12.713  21.841  0.00  0.00    -0.242 NA
ATOM      2  C   UNL d   1     -48.658  11.916  22.913  0.00  0.00     0.105 A 
ATOM      3  C   UNL d   1     -47.409  12.607  23.128  0.00  0.00     0.019 A 
ATOM      4  C   UNL d   1     -47.445  12.910  22.346  0.00  0.00     0.082 A 
ATOM      5  C   UNL d   1     -48.022  12.111  23.407  0.00  0.00     0.022 A 
ATOM      6  C   UNL d   1     -48.687  12.216  22.129  0.00  0.00     0.118 A 
ATOM      7  C   UNL d   1     -46.774  12.811  23.622  0.00  0.00     0.002 A 
ATOM      8  C   UNL d   1     -46.843  13.403  22.064  0.00  0.00     0.019 A 
ATOM      9  C   UNL d   1     -46.166  13.310  23.336  0.00  0.00     0.000 A 
ATOM     10  C   UNL d   1     -46.196  13.605  22.562  0.00  0.00     0.002 A 
ENDROOT
BRANCH   2  11
ATOM     11  N   UNL d   1     -49.258  11.415  23.187  0.00  0.00    -0.191 NA
ATOM     12  C   UNL d   1     -49.994  11.726  23.412  0.00  0.00     0.354 C 
ATOM     13  N   UNL d   1     -50.137  12.547  23.358  0.00  0.00    -0.253 N 
ATOM     14  O   UNL d   1     -50.602  11.218  23.698  0.00  0.00    -0.244 OA
ATOM     15  C   UNL d   1     -49.533  13.052  23.087  0.00  0.00     0.104 C 
ATOM     16  C   UNL d   1     -50.874  12.856  23.593  0.00  0.00     0.104 C 
ENDBRANCH   2  11
TORSDOF 1
ENDMDL
MODEL 2
REMARK VINA RESULT:      -7.5      1.781      2.227
REMARK  1 active torsions:
REMARK  status: ('A' for Active; 'I' for Inactive)
REMARK       I    between atoms: N_2  and  C_1 
REMARK       I    between atoms: N_4  and  C_1 
REMARK    1  A    between atoms: C_5  and  N_2 
ROOT
ATOM      1  N   UNL d   1     -48.373  12.977  23.310  0.00  0.00    -0.242 NA
ATOM      2  C   UNL d   1     -48.889  14.309  23.042  0.00  0.00     0.105 A 
ATOM      3  C   UNL d   1     -47.486  14.035  22.839  0.00  0.00     0.019 A 
ATOM      4  C   UNL d   1     -47.608  13.242  23.081  0.00  0.00     0.082 A 
ATOM      5  C   UNL d   1     -48.133  14.565  22.820  0.00  0.00     0.022 A 
ATOM      6  C   UNL d   1     -49.007  13.515  23.290  0.00  0.00     0.118 A 
ATOM      7  C   UNL d   1     -46.729  14.286  22.610  0.00  0.00     0.002 A 
ATOM      8  C   UNL d   1     -46.973  12.711  23.101  0.00  0.00     0.019 A 
ATOM      9  C   UNL d   1     -46.087  13.749  22.630  0.00  0.00     0.000 A 
ATOM     10  C   UNL d   1     -46.205  12.966  22.875  0.00  0.00     0.002 A 
ENDROOT
BRANCH   2  11
ATOM     11  N   UNL d   1     -49.527  14.838  23.033  0.00  0.00    -0.191 NA
ATOM     12  C   UNL d   1     -50.132  14.756  22.471  0.00  0.00     0.354 C 
ATOM     13  N   UNL d   1     -50.106  14.134  21.914  0.00  0.00    -0.253 N 
ATOM     14  O   UNL d   1     -50.776  15.298  22.457  0.00  0.00    -0.244 OA
ATOM     15  C   UNL d   1     -49.464  13.605  21.920  0.00  0.00     0.104 C 
ATOM     16  C   UNL d   1     -50.712  14.061  21.348  0.00  0.00     0.104 C 
ENDBRANCH   2  11
TORSDOF 1
ENDMDL
MODEL 3
REMARK VINA RESULT:      -7.5      1.762      3.276
REMARK  1 active torsions:
REMARK  status: ('A' for Active; 'I' for Inactive)
REMARK       I    between atoms: N_2  and  C_1 
REMARK       I    between atoms: N_4  and  C_1 
REMARK    1  A    between atoms: C_5  and  N_2 
ROOT
ATOM      1  N   UNL d   1     -48.646  14.003  22.915  0.00  0.00    -0.242 NA
ATOM      2  C   UNL d   1     -47.837  12.818  23.146  0.00  0.00     0.105 A 
ATOM      3  C   UNL d   1     -49.027  12.721  22.333  0.00  0.00     0.019 A 
ATOM      4  C   UNL d   1     -49.168  13.540  22.446  0.00  0.00     0.082 A 
ATOM      5  C   UNL d   1     -48.356  12.366  22.685  0.00  0.00     0.022 A 
ATOM      6  C   UNL d   1     -47.986  13.637  23.263  0.00  0.00     0.118 A 
ATOM      7  C   UNL d   1     -49.544  12.272  21.865  0.00  0.00     0.002 A 
ATOM      8  C   UNL d   1     -49.828  13.899  22.100  0.00  0.00     0.019 A 
ATOM      9  C   UNL d   1     -50.211  12.636  21.514  0.00  0.00     0.000 A 
ATOM     10  C   UNL d   1     -50.356  13.444  21.630  0.00  0.00     0.002 A 
ENDROOT
BRANCH   2  11
ATOM     11  N   UNL d   1     -47.180  12.462  23.503  0.00  0.00    -0.191 NA
ATOM     12  C   UNL d   1     -46.416  12.603  23.211  0.00  0.00     0.354 C 
ATOM     13  N   UNL d   1     -46.304  13.111  22.557  0.00  0.00    -0.253 N 
ATOM     14  O   UNL d   1     -45.749  12.235  23.568  0.00  0.00    -0.244 OA
ATOM     15  C   UNL d   1     -46.964  13.466  22.195  0.00  0.00     0.104 C 
ATOM     16  C   UNL d   1     -45.536  13.242  22.262  0.00  0.00     0.104 C 
ENDBRANCH   2  11
TORSDOF 1
ENDMDL
MODEL 4
REMARK VINA RESULT:      -4.6      1.875      3.097
REMARK  1 active torsions:
REMARK  status: ('A' for Active; 'I' for Inactive)
REMARK       I    between atoms: N_2  and  C_1 
REMARK       I    between atoms: N_4  and  C_1 
REMARK    1  A    between atoms: C_5  and  N_2 
ROOT
ATOM      1  N   UNL d   1     -48.679  13.306  21.638  0.00  0.00    -0.242 NA
ATOM      2  C   UNL d   1     -47.538  13.561  22.502  0.00  0.00     0.105 A 
ATOM      3  C   UNL d   1     -48.752  14.322  22.682  0.00  0.00     0.019 A 
ATOM      4  C   UNL d   1     -49.108  13.899  22.051  0.00  0.00     0.082 A 
ATOM      5  C   UNL d   1     -47.965  14.146  22.904  0.00  0.00     0.022 A 
ATOM      6  C   UNL d   1     -47.896  13.144  21.866  0.00  0.00     0.118 A 
ATOM      7  C   UNL d   1     -49.185  14.902  23.088  0.00  0.00     0.002 A 
ATOM      8  C   UNL d   1     -49.887  14.065  21.827  0.00  0.00     0.019 A 
ATOM      9  C   UNL d   1     -49.973  15.070  22.861  0.00  0.00     0.000 A 
ATOM     10  C   UNL d   1     -50.324  14.657  22.234  0.00  0.00     0.002 A 
ENDROOT
BRANCH   2  11
ATOM     11  N   UNL d   1     -46.755  13.396  22.716  0.00  0.00    -0.191 NA
ATOM     12  C   UNL d   1     -46.567  12.692  23.112  0.00  0.00     0.354 C 
ATOM     13  N   UNL d   1     -47.168  12.139  23.293  0.00  0.00    -0.253 N 
ATOM     14  O   UNL d   1     -45.773  12.528  23.337  0.00  0.00    -0.244 OA
ATOM     15  C   UNL d   1     -47.955  12.306  23.082  0.00  0.00     0.104 C 
ATOM     16  C   UNL d   1     -46.976  11.438  23.698  0.00  0.00     0.104 C 
ENDBRANCH   2  11
TORSDOF 1
ENDMDL
