MODEL 1
REMARK VINA RESULT:     103.7      0.000      0.000
REMARK  4 active torsions:
REMARK  status: ('A' for Active; 'I' for Inactive)
REMARK    1  A    between atoms: C_6  and  S_1 
REMARK    2  A    between atoms: N_8  and  S_1 
REMARK    3  A    between atoms: C_17  and  N_8 
REMARK    4  A    between atoms: N_16  and  C_15 
ROOT
ATOM      1  N   UNL d   1      61.527  44.147  50.093  0.00  0.00    -0.273 N 
ATOM      2  C   UNL d   1      61.673  44.040  49.272  0.00  0.00     0.265 A 
ATOM      3  C   UNL d   1      61.450  44.957  50.230  0.00  0.00     0.067 A 
ATOM      4  C   UNL d   1      61.520  45.482  49.608  0.00  0.00     0.022 A 
ATOM      5  C   UNL d   1      61.295  46.569  50.508  0.00  0.00     0.105 A 
ATOM      6  C   UNL d   1      61.302  45.233  50.993  0.00  0.00     0.017 A 
ATOM      7  C   UNL d   1      61.668  45.047  48.906  0.00  0.00     0.063 A 
ATOM      8  C   UNL d   1      61.443  46.292  49.745  0.00  0.00     0.015 A 
ATOM      9  C   UNL d   1      61.224  46.035  51.134  0.00  0.00     0.014 A 
ATOM     10  O   UNL d   1      61.775  43.276  48.969  0.00  0.00    -0.267 OA
ATOM     11  C   UNL d   1      61.456  43.612  50.718  0.00  0.00     0.083 A 
ATOM     12  C   UNL d   1      61.234  44.695  51.606  0.00  0.00     0.003 A 
ATOM     13  C   UNL d   1      61.309  43.889  51.481  0.00  0.00     0.019 A 
ENDROOT
BRANCH   5  14
ATOM     14  S   UNL d   1      61.218  47.387  50.643  0.00  0.00     0.285 S 
ATOM     15  O   UNL d   1      61.735  47.525  50.014  0.00  0.00    -0.198 OA
ATOM     16  O   UNL d   1      60.697  47.233  51.275  0.00  0.00    -0.198 OA
BRANCH  14  17
ATOM     17  N   UNL d   1      61.141  48.196  50.776  0.00  0.00    -0.158 NA
BRANCH  17  18
ATOM     18  C   UNL d   1      60.390  48.531  50.842  0.00  0.00     0.094 A 
ATOM     19  C   UNL d   1      59.815  48.367  50.279  0.00  0.00     0.021 A 
ATOM     20  C   UNL d   1      59.064  48.701  50.345  0.00  0.00     0.019 A 
ATOM     21  C   UNL d   1      58.887  49.199  50.973  0.00  0.00     0.064 A 
ATOM     22  C   UNL d   1      59.464  49.365  51.540  0.00  0.00     0.019 A 
ATOM     23  C   UNL d   1      60.216  49.031  51.474  0.00  0.00     0.021 A 
BRANCH  21  24
ATOM     24  N   UNL d   1      58.136  49.534  51.039  0.00  0.00    -0.301 N 
ATOM     25  C   UNL d   1      57.698  49.700  50.360  0.00  0.00     0.100 C 
ATOM     26  C   UNL d   1      57.823  49.702  51.784  0.00  0.00     0.100 C 
ENDBRANCH  21  24
ENDBRANCH  17  18
ENDBRANCH  14  17
ENDBRANCH   5  14
TORSDOF 4
ENDMDL
