MODEL 1
REMARK VINA RESULT:      -3.4      0.000      0.000
REMARK  3 active torsions:
REMARK  status: ('A' for Active; 'I' for Inactive)
REMARK    1  A    between atoms: N_3  and  S_1 
REMARK    2  A    between atoms: C_8  and  S_1 
REMARK    3  A    between atoms: C_2  and  N_3 
ROOT
ATOM      1  S   UNL d   1      33.033  19.868 -22.422  0.00  0.00     0.287 S 
ATOM      2  O   UNL d   1      33.062  19.475 -21.696  0.00  0.00    -0.198 OA
ATOM      3  O   UNL d   1      33.003  20.252 -23.154  0.00  0.00    -0.198 OA
ENDROOT
BRANCH   1   4
ATOM      4  N   UNL d   1      33.126  20.594 -22.039  0.00  0.00    -0.131 NA
BRANCH   4   5
ATOM      5  C   UNL d   1      32.660  21.052 -21.533  0.00  0.00     0.219 A 
ATOM      6  C   UNL d   1      32.713  21.869 -21.437  0.00  0.00     0.064 A 
ATOM      7  C   UNL d   1      32.144  22.095 -20.878  0.00  0.00     0.112 A 
ATOM      8  C   UNL d   1      33.241  22.376 -21.827  0.00  0.00     0.005 C 
ATOM      9  C   UNL d   1      32.005  22.867 -20.615  0.00  0.00     0.023 C 
ATOM     10  N   UNL d   1      31.743  21.415 -20.633  0.00  0.00    -0.125 NA
ATOM     11  O   UNL d   1      32.062  20.767 -21.039  0.00  0.00    -0.191 OA
ENDBRANCH   4   5
ENDBRANCH   1   4
BRANCH   1  12
ATOM     12  C   UNL d   1      32.940  19.141 -22.806  0.00  0.00     0.105 A 
ATOM     13  C   UNL d   1      33.230  18.451 -22.460  0.00  0.00     0.015 A 
ATOM     14  C   UNL d   1      33.138  17.735 -22.838  0.00  0.00     0.022 A 
ATOM     15  C   UNL d   1      32.761  17.694 -23.558  0.00  0.00     0.103 A 
ATOM     16  C   UNL d   1      32.471  18.380 -23.906  0.00  0.00     0.022 A 
ATOM     17  N   UNL d   1      32.668  16.968 -23.941  0.00  0.00    -0.148 N 
ATOM     18  C   UNL d   1      32.563  19.100 -23.526  0.00  0.00     0.015 A 
ENDBRANCH   1  12
TORSDOF 3
ENDMDL
MODEL 2
REMARK VINA RESULT:      -2.9      1.345      4.180
REMARK  3 active torsions:
REMARK  status: ('A' for Active; 'I' for Inactive)
REMARK    1  A    between atoms: N_3  and  S_1 
REMARK    2  A    between atoms: C_8  and  S_1 
REMARK    3  A    between atoms: C_2  and  N_3 
ROOT
ATOM      1  S   UNL d   1      33.095  19.115 -22.941  0.00  0.00     0.287 S 
ATOM      2  O   UNL d   1      33.087  19.529 -23.656  0.00  0.00    -0.198 OA
ATOM      3  O   UNL d   1      33.103  18.711 -22.220  0.00  0.00    -0.198 OA
ENDROOT
BRANCH   1   4
ATOM      4  N   UNL d   1      33.059  18.398 -23.349  0.00  0.00    -0.131 NA
BRANCH   4   5
ATOM      5  C   UNL d   1      32.452  17.885 -23.577  0.00  0.00     0.219 A 
ATOM      6  C   UNL d   1      32.536  17.080 -23.736  0.00  0.00     0.064 A 
ATOM      7  C   UNL d   1      31.789  16.785 -23.944  0.00  0.00     0.112 A 
ATOM      8  C   UNL d   1      33.239  16.643 -23.696  0.00  0.00     0.005 C 
ATOM      9  C   UNL d   1      31.620  16.001 -24.147  0.00  0.00     0.023 C 
ATOM     10  N   UNL d   1      31.250  17.411 -23.911  0.00  0.00    -0.125 NA
ATOM     11  O   UNL d   1      31.660  18.094 -23.684  0.00  0.00    -0.191 OA
ENDBRANCH   4   5
ENDBRANCH   1   4
BRANCH   1  12
ATOM     12  C   UNL d   1      33.132  19.834 -22.532  0.00  0.00     0.105 A 
ATOM     13  C   UNL d   1      33.191  20.543 -22.948  0.00  0.00     0.015 A 
ATOM     14  C   UNL d   1      33.227  21.251 -22.546  0.00  0.00     0.022 A 
ATOM     15  C   UNL d   1      33.205  21.265 -21.733  0.00  0.00     0.103 A 
ATOM     16  C   UNL d   1      33.146  20.559 -21.314  0.00  0.00     0.022 A 
ATOM     17  N   UNL d   1      33.241  21.982 -21.324  0.00  0.00    -0.148 N 
ATOM     18  C   UNL d   1      33.109  19.848 -21.719  0.00  0.00     0.015 A 
ENDBRANCH   1  12
TORSDOF 3
ENDMDL
MODEL 3
REMARK VINA RESULT:      -2.8      3.330      4.550
REMARK  3 active torsions:
REMARK  status: ('A' for Active; 'I' for Inactive)
REMARK    1  A    between atoms: N_3  and  S_1 
REMARK    2  A    between atoms: C_8  and  S_1 
REMARK    3  A    between atoms: C_2  and  N_3 
ROOT
ATOM      1  S   UNL d   1      30.429  17.021 -24.298  0.00  0.00     0.287 S 
ATOM      2  O   UNL d   1      30.844  16.318 -24.170  0.00  0.00    -0.198 OA
ATOM      3  O   UNL d   1      30.004  17.719 -24.424  0.00  0.00    -0.198 OA
ENDROOT
BRANCH   1   4
ATOM      4  N   UNL d   1      31.133  17.409 -24.485  0.00  0.00    -0.131 NA
BRANCH   4   5
ATOM      5  C   UNL d   1      31.711  17.813 -24.053  0.00  0.00     0.219 A 
ATOM      6  C   UNL d   1      32.179  18.432 -24.334  0.00  0.00     0.064 A 
ATOM      7  C   UNL d   1      32.679  18.670 -23.717  0.00  0.00     0.112 A 
ATOM      8  C   UNL d   1      32.155  18.757 -25.096  0.00  0.00     0.005 C 
ATOM      9  C   UNL d   1      33.241  19.275 -23.758  0.00  0.00     0.023 C 
ATOM     10  N   UNL d   1      32.516  18.196 -23.059  0.00  0.00    -0.125 NA
ATOM     11  O   UNL d   1      31.915  17.664 -23.266  0.00  0.00    -0.191 OA
ENDBRANCH   4   5
ENDBRANCH   1   4
BRANCH   1  12
ATOM     12  C   UNL d   1      29.723  16.632 -24.111  0.00  0.00     0.105 A 
ATOM     13  C   UNL d   1      29.003  17.030 -24.172  0.00  0.00     0.015 A 
ATOM     14  C   UNL d   1      28.308  16.646 -23.988  0.00  0.00     0.022 A 
ATOM     15  C   UNL d   1      28.317  15.870 -23.744  0.00  0.00     0.103 A 
ATOM     16  C   UNL d   1      29.033  15.470 -23.682  0.00  0.00     0.022 A 
ATOM     17  N   UNL d   1      27.612  15.482 -23.557  0.00  0.00    -0.148 N 
ATOM     18  C   UNL d   1      29.732  15.856 -23.867  0.00  0.00     0.015 A 
ENDBRANCH   1  12
TORSDOF 3
ENDMDL
MODEL 4
REMARK VINA RESULT:      -2.6      3.740      5.376
REMARK  3 active torsions:
REMARK  status: ('A' for Active; 'I' for Inactive)
REMARK    1  A    between atoms: N_3  and  S_1 
REMARK    2  A    between atoms: C_8  and  S_1 
REMARK    3  A    between atoms: C_2  and  N_3 
ROOT
ATOM      1  S   UNL d   1      30.650  16.914 -24.534  0.00  0.00     0.287 S 
ATOM      2  O   UNL d   1      31.105  16.330 -24.166  0.00  0.00    -0.198 OA
ATOM      3  O   UNL d   1      30.203  17.504 -24.901  0.00  0.00    -0.198 OA
ENDROOT
BRANCH   1   4
ATOM      4  N   UNL d   1      30.002  16.402 -24.557  0.00  0.00    -0.131 NA
BRANCH   4   5
ATOM      5  C   UNL d   1      29.345  16.267 -24.074  0.00  0.00     0.219 A 
ATOM      6  C   UNL d   1      28.676  15.832 -24.281  0.00  0.00     0.064 A 
ATOM      7  C   UNL d   1      28.159  15.841 -23.633  0.00  0.00     0.112 A 
ATOM      8  C   UNL d   1      28.543  15.453 -25.006  0.00  0.00     0.005 C 
ATOM      9  C   UNL d   1      27.419  15.472 -23.600  0.00  0.00     0.023 C 
ATOM     10  N   UNL d   1      28.513  16.283 -23.030  0.00  0.00    -0.125 NA
ATOM     11  O   UNL d   1      29.249  16.548 -23.303  0.00  0.00    -0.191 OA
ENDBRANCH   4   5
ENDBRANCH   1   4
BRANCH   1  12
ATOM     12  C   UNL d   1      31.299  17.426 -24.510  0.00  0.00     0.105 A 
ATOM     13  C   UNL d   1      31.909  17.296 -23.971  0.00  0.00     0.015 A 
ATOM     14  C   UNL d   1      32.548  17.801 -23.947  0.00  0.00     0.022 A 
ATOM     15  C   UNL d   1      32.591  18.437 -24.454  0.00  0.00     0.103 A 
ATOM     16  C   UNL d   1      31.984  18.569 -24.994  0.00  0.00     0.022 A 
ATOM     17  N   UNL d   1      33.238  18.949 -24.431  0.00  0.00    -0.148 N 
ATOM     18  C   UNL d   1      31.341  18.061 -25.017  0.00  0.00     0.015 A 
ENDBRANCH   1  12
TORSDOF 3
ENDMDL
MODEL 5
REMARK VINA RESULT:      -2.6      1.252      1.783
REMARK  3 active torsions:
REMARK  status: ('A' for Active; 'I' for Inactive)
REMARK    1  A    between atoms: N_3  and  S_1 
REMARK    2  A    between atoms: C_8  and  S_1 
REMARK    3  A    between atoms: C_2  and  N_3 
ROOT
ATOM      1  S   UNL d   1      32.850  18.507 -23.259  0.00  0.00     0.287 S 
ATOM      2  O   UNL d   1      33.241  18.181 -22.609  0.00  0.00    -0.198 OA
ATOM      3  O   UNL d   1      32.456  18.825 -23.913  0.00  0.00    -0.198 OA
ENDROOT
BRANCH   1   4
ATOM      4  N   UNL d   1      33.145  19.254 -23.068  0.00  0.00    -0.131 NA
BRANCH   4   5
ATOM      5  C   UNL d   1      33.068  19.766 -22.423  0.00  0.00     0.219 A 
ATOM      6  C   UNL d   1      33.111  20.589 -22.453  0.00  0.00     0.064 A 
ATOM      7  C   UNL d   1      33.003  20.876 -21.683  0.00  0.00     0.112 A 
ATOM      8  C   UNL d   1      33.240  21.049 -23.131  0.00  0.00     0.005 C 
ATOM      9  C   UNL d   1      33.006  21.673 -21.460  0.00  0.00     0.023 C 
ATOM     10  N   UNL d   1      32.894  20.227 -21.182  0.00  0.00    -0.125 NA
ATOM     11  O   UNL d   1      32.933  19.538 -21.641  0.00  0.00    -0.191 OA
ENDBRANCH   4   5
ENDBRANCH   1   4
BRANCH   1  12
ATOM     12  C   UNL d   1      32.555  17.759 -23.451  0.00  0.00     0.105 A 
ATOM     13  C   UNL d   1      31.796  17.682 -23.766  0.00  0.00     0.015 A 
ATOM     14  C   UNL d   1      31.505  16.945 -23.955  0.00  0.00     0.022 A 
ATOM     15  C   UNL d   1      31.958  16.279 -23.836  0.00  0.00     0.103 A 
ATOM     16  C   UNL d   1      32.715  16.352 -23.522  0.00  0.00     0.022 A 
ATOM     17  N   UNL d   1      31.663  15.532 -24.027  0.00  0.00    -0.148 N 
ATOM     18  C   UNL d   1      33.008  17.093 -23.332  0.00  0.00     0.015 A 
ENDBRANCH   1  12
TORSDOF 3
ENDMDL
