MODEL 1
REMARK VINA RESULT:      72.5      0.000      0.000
REMARK  5 active torsions:
REMARK  status: ('A' for Active; 'I' for Inactive)
REMARK    1  A    between atoms: S_2  and  C_1 
REMARK    2  A    between atoms: N_3  and  C_1 
REMARK    3  A    between atoms: C_4  and  C_1 
REMARK    4  A    between atoms: C_6  and  S_2 
REMARK       I    between atoms: C_5  and  N_3 
REMARK    5  A    between atoms: C_9  and  C_5 
ROOT
ATOM      1  C   UNL d   1      60.377  48.572  50.616  0.00  0.00     0.193 C 
ENDROOT
BRANCH   1   2
ATOM      2  S   UNL d   1      59.622  48.837  50.679  0.00  0.00     0.228 S 
ATOM      3  O   UNL d   1      59.862  49.616  50.534  0.00  0.00    -0.216 OA
ATOM      4  O   UNL d   1      59.410  48.149  50.806  0.00  0.00    -0.216 OA
BRANCH   2   5
ATOM      5  C   UNL d   1      58.955  49.033  50.739  0.00  0.00     0.090 A 
ATOM      6  C   UNL d   1      58.626  49.291  51.480  0.00  0.00     0.012 A 
ATOM      7  C   UNL d   1      57.806  49.527  51.532  0.00  0.00     0.012 A 
ATOM      8  C   UNL d   1      57.321  49.504  50.841  0.00  0.00     0.058 A 
ATOM      9  C   UNL d   1      57.638  49.252  50.112  0.00  0.00     0.012 A 
ATOM     10 CL   UNL d   1      56.725  49.681  50.905  0.00  0.00    -0.082 Cl
ATOM     11  C   UNL d   1      58.458  49.015  50.061  0.00  0.00     0.012 A 
ENDBRANCH   2   5
ENDBRANCH   1   2
BRANCH   1  12
ATOM     12  N   UNL d   1      60.540  47.853  50.190  0.00  0.00    -0.195 NA
ATOM     13  C   UNL d   1      61.208  47.347  50.364  0.00  0.00     0.280 C 
ATOM     14  O   UNL d   1      61.750  47.581  51.012  0.00  0.00    -0.265 OA
BRANCH  13  15
ATOM     15  C   UNL d   1      61.435  46.727  50.071  0.00  0.00     0.058 A 
ATOM     16  C   UNL d   1      61.874  46.888  49.393  0.00  0.00     0.005 A 
ATOM     17  C   UNL d   1      62.200  46.276  48.950  0.00  0.00     0.000 A 
ATOM     18  C   UNL d   1      62.081  45.498  49.197  0.00  0.00     0.000 A 
ATOM     19  C   UNL d   1      61.642  45.337  49.875  0.00  0.00     0.000 A 
ATOM     20  C   UNL d   1      62.345  45.081  48.831  0.00  0.00     0.000 C 
ATOM     21  C   UNL d   1      61.322  45.954  50.309  0.00  0.00     0.005 A 
ENDBRANCH  13  15
ENDBRANCH   1  12
BRANCH   1  22
ATOM     22  C   UNL d   1      60.976  49.018  50.975  0.00  0.00     0.144 C 
ATOM     23 CL   UNL d   1      61.275  48.780  51.756  0.00  0.00    -0.068 Cl
ATOM     24 CL   UNL d   1      61.310  49.705  50.604  0.00  0.00    -0.068 Cl
ENDBRANCH   1  22
TORSDOF 5
ENDMDL
MODEL 2
REMARK VINA RESULT:      74.1      2.168      3.019
REMARK  5 active torsions:
REMARK  status: ('A' for Active; 'I' for Inactive)
REMARK    1  A    between atoms: S_2  and  C_1 
REMARK    2  A    between atoms: N_3  and  C_1 
REMARK    3  A    between atoms: C_4  and  C_1 
REMARK    4  A    between atoms: C_6  and  S_2 
REMARK       I    between atoms: C_5  and  N_3 
REMARK    5  A    between atoms: C_9  and  C_5 
ROOT
ATOM      1  C   UNL d   1      59.842  49.187  50.573  0.00  0.00     0.193 C 
ENDROOT
BRANCH   1   2
ATOM      2  S   UNL d   1      59.052  49.233  50.436  0.00  0.00     0.228 S 
ATOM      3  O   UNL d   1      59.175  49.704  49.766  0.00  0.00    -0.216 OA
ATOM      4  O   UNL d   1      58.944  48.817  51.028  0.00  0.00    -0.216 OA
BRANCH   2   5
ATOM      5  C   UNL d   1      58.361  49.252  50.346  0.00  0.00     0.090 A 
ATOM      6  C   UNL d   1      58.004  49.181  49.577  0.00  0.00     0.012 A 
ATOM      7  C   UNL d   1      57.153  49.207  49.489  0.00  0.00     0.012 A 
ATOM      8  C   UNL d   1      56.667  49.304  50.172  0.00  0.00     0.058 A 
ATOM      9  C   UNL d   1      57.011  49.375  50.929  0.00  0.00     0.012 A 
ATOM     10 CL   UNL d   1      56.048  49.320  50.082  0.00  0.00    -0.082 Cl
ATOM     11  C   UNL d   1      57.861  49.348  51.016  0.00  0.00     0.012 A 
ENDBRANCH   2   5
ENDBRANCH   1   2
BRANCH   1  12
ATOM     12  N   UNL d   1      60.138  49.253  51.369  0.00  0.00    -0.195 NA
ATOM     13  C   UNL d   1      60.972  49.275  51.558  0.00  0.00     0.280 C 
ATOM     14  O   UNL d   1      61.550  49.229  50.899  0.00  0.00    -0.265 OA
BRANCH  13  15
ATOM     15  C   UNL d   1      61.326  49.328  52.185  0.00  0.00     0.058 A 
ATOM     16  C   UNL d   1      62.094  49.594  52.046  0.00  0.00     0.005 A 
ATOM     17  C   UNL d   1      62.618  49.702  52.670  0.00  0.00     0.000 A 
ATOM     18  C   UNL d   1      62.364  49.541  53.438  0.00  0.00     0.000 A 
ATOM     19  C   UNL d   1      61.596  49.274  53.577  0.00  0.00     0.000 A 
ATOM     20  C   UNL d   1      62.795  49.639  53.865  0.00  0.00     0.000 C 
ATOM     21  C   UNL d   1      61.082  49.170  52.948  0.00  0.00     0.005 A 
ENDBRANCH  13  15
ENDBRANCH   1  12
BRANCH   1  22
ATOM     22  C   UNL d   1      60.343  49.077  49.923  0.00  0.00     0.144 C 
ATOM     23 CL   UNL d   1      60.174  49.495  49.178  0.00  0.00    -0.068 Cl
ATOM     24 CL   UNL d   1      61.021  48.567  49.957  0.00  0.00    -0.068 Cl
ENDBRANCH   1  22
TORSDOF 5
ENDMDL
