MODEL 1
REMARK VINA RESULT:      18.0      0.000      0.000
REMARK  2 active torsions:
REMARK  status: ('A' for Active; 'I' for Inactive)
REMARK       I    between atoms: N_2  and  C_1 
REMARK       I    between atoms: N_3  and  C_1 
REMARK    1  A    between atoms: C_6  and  N_2 
REMARK    2  A    between atoms: C_5  and  N_3 
ROOT
ATOM      1  C   UNL d   1      58.261  49.662  51.456  0.00  0.00     0.369 C 
ATOM      2  N   UNL d   1      57.458  49.652  51.337  0.00  0.00    -0.191 NA
ATOM      3  N   UNL d   1      58.764  49.642  50.822  0.00  0.00    -0.191 NA
ATOM      4  O   UNL d   1      58.629  49.692  52.229  0.00  0.00    -0.242 OA
ENDROOT
BRANCH   2   5
ATOM      5  C   UNL d   1      57.164  49.623  50.577  0.00  0.00     0.086 A 
ATOM      6  C   UNL d   1      56.359  49.704  50.444  0.00  0.00     0.019 A 
ATOM      7  C   UNL d   1      56.041  49.677  49.677  0.00  0.00     0.002 A 
ATOM      8  C   UNL d   1      56.555  49.564  49.029  0.00  0.00     0.000 A 
ATOM      9  C   UNL d   1      57.371  49.482  49.167  0.00  0.00     0.002 A 
ATOM     10  C   UNL d   1      57.673  49.511  49.935  0.00  0.00     0.019 A 
ENDBRANCH   2   5
BRANCH   3  11
ATOM     11  C   UNL d   1      59.570  49.651  50.937  0.00  0.00     0.086 A 
ATOM     12  C   UNL d   1      60.076  49.624  50.293  0.00  0.00     0.019 A 
ATOM     13  C   UNL d   1      60.894  49.633  50.400  0.00  0.00     0.002 A 
ATOM     14  C   UNL d   1      61.208  49.671  51.173  0.00  0.00     0.000 A 
ATOM     15  C   UNL d   1      60.695  49.698  51.819  0.00  0.00     0.002 A 
ATOM     16  C   UNL d   1      59.879  49.689  51.700  0.00  0.00     0.019 A 
ENDBRANCH   3  11
TORSDOF 2
ENDMDL
