MODEL 1
REMARK VINA RESULT:      -4.7      0.000      0.000
REMARK  0 active torsions:
REMARK  status: ('A' for Active; 'I' for Inactive)
ROOT
ATOM      1  N   UNL d   1     -46.190  12.811  23.379  0.00  0.00    -0.219 NA
ATOM      2  C   UNL d   1     -46.739  12.197  23.430  0.00  0.00     0.215 A 
ATOM      3  S   UNL d   1     -47.465  12.476  23.173  0.00  0.00    -0.045 SA
ATOM      4  C   UNL d   1     -46.584  13.475  23.087  0.00  0.00     0.090 A 
ATOM      5  C   UNL d   1     -47.378  13.271  22.958  0.00  0.00     0.050 A 
ATOM      6  N   UNL d   1     -46.582  11.429  23.696  0.00  0.00    -0.120 N 
ATOM      7  C   UNL d   1     -46.252  14.216  22.947  0.00  0.00     0.021 C 
ATOM      8  C   UNL d   1     -47.969  13.761  22.670  0.00  0.00     0.009 C 
ENDROOT
TORSDOF 0
ENDMDL
MODEL 2
REMARK VINA RESULT:      -4.3      1.758      2.272
REMARK  0 active torsions:
REMARK  status: ('A' for Active; 'I' for Inactive)
ROOT
ATOM      1  N   UNL d   1     -47.431  14.726  22.673  0.00  0.00    -0.219 NA
ATOM      2  C   UNL d   1     -48.253  14.654  22.635  0.00  0.00     0.215 A 
ATOM      3  S   UNL d   1     -48.453  13.876  22.793  0.00  0.00    -0.045 SA
ATOM      4  C   UNL d   1     -47.124  13.983  22.857  0.00  0.00     0.090 A 
ATOM      5  C   UNL d   1     -47.756  13.451  22.933  0.00  0.00     0.050 A 
ATOM      6  N   UNL d   1     -48.784  15.266  22.464  0.00  0.00    -0.120 N 
ATOM      7  C   UNL d   1     -46.327  13.795  22.951  0.00  0.00     0.021 C 
ATOM      8  C   UNL d   1     -47.705  12.652  23.112  0.00  0.00     0.009 C 
ENDROOT
TORSDOF 0
ENDMDL
MODEL 3
REMARK VINA RESULT:      -4.3      2.306      2.880
REMARK  0 active torsions:
REMARK  status: ('A' for Active; 'I' for Inactive)
ROOT
ATOM      1  N   UNL d   1     -49.165  11.528  23.695  0.00  0.00    -0.219 NA
ATOM      2  C   UNL d   1     -48.463  11.572  23.264  0.00  0.00     0.215 A 
ATOM      3  S   UNL d   1     -48.627  11.902  22.533  0.00  0.00    -0.045 SA
ATOM      4  C   UNL d   1     -49.768  11.834  23.222  0.00  0.00     0.090 A 
ATOM      5  C   UNL d   1     -49.438  12.068  22.498  0.00  0.00     0.050 A 
ATOM      6  N   UNL d   1     -47.717  11.325  23.527  0.00  0.00    -0.120 N 
ATOM      7  C   UNL d   1     -50.564  11.898  23.428  0.00  0.00     0.021 C 
ATOM      8  C   UNL d   1     -49.836  12.402  21.863  0.00  0.00     0.009 C 
ENDROOT
TORSDOF 0
ENDMDL
MODEL 4
REMARK VINA RESULT:      -4.1      1.504      1.918
REMARK  0 active torsions:
REMARK  status: ('A' for Active; 'I' for Inactive)
ROOT
ATOM      1  N   UNL d   1     -48.239  12.782  23.128  0.00  0.00    -0.219 NA
ATOM      2  C   UNL d   1     -48.575  12.046  23.288  0.00  0.00     0.215 A 
ATOM      3  S   UNL d   1     -47.979  11.533  23.518  0.00  0.00    -0.045 SA
ATOM      4  C   UNL d   1     -47.427  12.720  23.261  0.00  0.00     0.090 A 
ATOM      5  C   UNL d   1     -47.260  11.945  23.505  0.00  0.00     0.050 A 
ATOM      6  N   UNL d   1     -49.379  11.857  23.226  0.00  0.00    -0.120 N 
ATOM      7  C   UNL d   1     -46.871  13.323  23.171  0.00  0.00     0.021 C 
ATOM      8  C   UNL d   1     -46.525  11.639  23.697  0.00  0.00     0.009 C 
ENDROOT
TORSDOF 0
ENDMDL
MODEL 5
REMARK VINA RESULT:      -3.9      2.851      3.314
REMARK  0 active torsions:
REMARK  status: ('A' for Active; 'I' for Inactive)
ROOT
ATOM      1  N   UNL d   1     -48.642  14.134  21.975  0.00  0.00    -0.219 NA
ATOM      2  C   UNL d   1     -49.277  14.562  22.284  0.00  0.00     0.215 A 
ATOM      3  S   UNL d   1     -49.961  14.125  22.179  0.00  0.00    -0.045 SA
ATOM      4  C   UNL d   1     -48.942  13.425  21.678  0.00  0.00     0.090 A 
ATOM      5  C   UNL d   1     -49.762  13.414  21.803  0.00  0.00     0.050 A 
ATOM      6  N   UNL d   1     -49.229  15.309  22.639  0.00  0.00    -0.120 N 
ATOM      7  C   UNL d   1     -48.506  12.825  21.317  0.00  0.00     0.021 C 
ATOM      8  C   UNL d   1     -50.282  12.816  21.594  0.00  0.00     0.009 C 
ENDROOT
TORSDOF 0
ENDMDL
MODEL 6
REMARK VINA RESULT:      -3.8      8.815      9.257
REMARK  0 active torsions:
REMARK  status: ('A' for Active; 'I' for Inactive)
ROOT
ATOM      1  N   UNL d   1     -41.145  14.887  17.245  0.00  0.00    -0.219 NA
ATOM      2  C   UNL d   1     -41.151  15.595  16.822  0.00  0.00     0.215 A 
ATOM      3  S   UNL d   1     -40.400  15.922  16.850  0.00  0.00    -0.045 SA
ATOM      4  C   UNL d   1     -40.380  14.778  17.536  0.00  0.00     0.090 A 
ATOM      5  C   UNL d   1     -39.913  15.419  17.293  0.00  0.00     0.050 A 
ATOM      6  N   UNL d   1     -41.807  15.921  16.434  0.00  0.00    -0.120 N 
ATOM      7  C   UNL d   1     -40.119  14.141  17.991  0.00  0.00     0.021 C 
ATOM      8  C   UNL d   1     -39.119  15.537  17.457  0.00  0.00     0.009 C 
ENDROOT
TORSDOF 0
ENDMDL
MODEL 7
REMARK VINA RESULT:      -3.5      1.012      1.402
REMARK  0 active torsions:
REMARK  status: ('A' for Active; 'I' for Inactive)
ROOT
ATOM      1  N   UNL d   1     -46.919  13.492  23.362  0.00  0.00    -0.219 NA
ATOM      2  C   UNL d   1     -46.672  12.704  23.333  0.00  0.00     0.215 A 
ATOM      3  S   UNL d   1     -45.982  12.664  22.894  0.00  0.00    -0.045 SA
ATOM      4  C   UNL d   1     -46.373  13.939  22.935  0.00  0.00     0.090 A 
ATOM      5  C   UNL d   1     -45.789  13.429  22.641  0.00  0.00     0.050 A 
ATOM      6  N   UNL d   1     -47.058  12.064  23.689  0.00  0.00    -0.120 N 
ATOM      7  C   UNL d   1     -46.399  14.755  22.816  0.00  0.00     0.021 C 
ATOM      8  C   UNL d   1     -45.139  13.637  22.187  0.00  0.00     0.009 C 
ENDROOT
TORSDOF 0
ENDMDL
MODEL 8
REMARK VINA RESULT:      -3.4      8.295      8.856
REMARK  0 active torsions:
REMARK  status: ('A' for Active; 'I' for Inactive)
ROOT
ATOM      1  N   UNL d   1     -41.054  14.873  17.923  0.00  0.00    -0.219 NA
ATOM      2  C   UNL d   1     -40.502  14.428  18.345  0.00  0.00     0.215 A 
ATOM      3  S   UNL d   1     -39.816  14.376  17.900  0.00  0.00    -0.045 SA
ATOM      4  C   UNL d   1     -40.702  15.097  17.211  0.00  0.00     0.090 A 
ATOM      5  C   UNL d   1     -39.932  14.791  17.192  0.00  0.00     0.050 A 
ATOM      6  N   UNL d   1     -40.621  14.090  19.091  0.00  0.00    -0.120 N 
ATOM      7  C   UNL d   1     -41.052  15.549  16.616  0.00  0.00     0.021 C 
ATOM      8  C   UNL d   1     -39.384  14.878  16.588  0.00  0.00     0.009 C 
ENDROOT
TORSDOF 0
ENDMDL
MODEL 9
REMARK VINA RESULT:      -3.3      8.829      9.360
REMARK  0 active torsions:
REMARK  status: ('A' for Active; 'I' for Inactive)
ROOT
ATOM      1  N   UNL d   1     -39.735  14.828  16.682  0.00  0.00    -0.219 NA
ATOM      2  C   UNL d   1     -39.206  14.257  16.956  0.00  0.00     0.215 A 
ATOM      3  S   UNL d   1     -39.457  14.003  17.693  0.00  0.00    -0.045 SA
ATOM      4  C   UNL d   1     -40.318  14.925  17.258  0.00  0.00     0.090 A 
ATOM      5  C   UNL d   1     -40.149  14.414  17.890  0.00  0.00     0.050 A 
ATOM      6  N   UNL d   1     -38.535  13.986  16.553  0.00  0.00    -0.120 N 
ATOM      7  C   UNL d   1     -40.960  15.441  17.219  0.00  0.00     0.021 C 
ATOM      8  C   UNL d   1     -40.582  14.329  18.580  0.00  0.00     0.009 C 
ENDROOT
TORSDOF 0
ENDMDL
