MODEL 1
REMARK VINA RESULT:      -3.4      0.000      0.000
REMARK  2 active torsions:
REMARK  status: ('A' for Active; 'I' for Inactive)
REMARK    1  A    between atoms: N_2  and  S_1 
REMARK    2  A    between atoms: C_3  and  S_1 
ROOT
ATOM      1  N   UNL d   1      57.304   0.122  32.248  0.00  0.00    -0.231 N 
ATOM      2  C   UNL d   1      56.748  -0.433  32.489  0.00  0.00     0.075 A 
ATOM      3  C   UNL d   1      56.487  -0.434  33.272  0.00  0.00     0.017 A 
ATOM      4  C   UNL d   1      57.607   0.682  32.782  0.00  0.00     0.092 A 
ATOM      5  C   UNL d   1      56.442  -0.995  31.957  0.00  0.00     0.018 A 
ATOM      6  C   UNL d   1      57.347   0.679  33.560  0.00  0.00     0.020 A 
ATOM      7  C   UNL d   1      56.783   0.118  33.807  0.00  0.00     0.003 A 
ATOM      8  C   UNL d   1      55.921  -1.000  33.513  0.00  0.00     0.002 A 
ATOM      9  C   UNL d   1      55.882  -1.556  32.192  0.00  0.00     0.002 A 
ATOM     10  C   UNL d   1      55.619  -1.561  32.974  0.00  0.00     0.000 A 
ENDROOT
BRANCH   1  11
ATOM     11  S   UNL d   1      57.563   0.121  31.466  0.00  0.00     0.277 S 
ATOM     12  O   UNL d   1      56.922   0.596  31.253  0.00  0.00    -0.199 OA
ATOM     13  O   UNL d   1      58.195  -0.347  31.675  0.00  0.00    -0.199 OA
BRANCH  11  14
ATOM     14  C   UNL d   1      57.818   0.120  30.697  0.00  0.00     0.133 A 
ATOM     15  S   UNL d   1      57.596   0.670  30.126  0.00  0.00    -0.074 SA
ATOM     16  C   UNL d   1      57.995   0.457  29.402  0.00  0.00     0.036 A 
ATOM     17  C   UNL d   1      58.438  -0.211  29.572  0.00  0.00     0.008 A 
ATOM     18  C   UNL d   1      58.358  -0.441  30.335  0.00  0.00     0.020 A 
ENDBRANCH  11  14
ENDBRANCH   1  11
TORSDOF 2
ENDMDL
MODEL 2
REMARK VINA RESULT:      -3.2      1.353      3.674
REMARK  2 active torsions:
REMARK  status: ('A' for Active; 'I' for Inactive)
REMARK    1  A    between atoms: N_2  and  S_1 
REMARK    2  A    between atoms: C_3  and  S_1 
ROOT
ATOM      1  N   UNL d   1      58.513  -0.013  29.857  0.00  0.00    -0.231 N 
ATOM      2  C   UNL d   1      58.698  -0.753  29.553  0.00  0.00     0.075 A 
ATOM      3  C   UNL d   1      59.125  -0.808  28.849  0.00  0.00     0.017 A 
ATOM      4  C   UNL d   1      58.750   0.681  29.466  0.00  0.00     0.092 A 
ATOM      5  C   UNL d   1      58.462  -1.449  29.941  0.00  0.00     0.018 A 
ATOM      6  C   UNL d   1      59.175   0.624  28.767  0.00  0.00     0.020 A 
ATOM      7  C   UNL d   1      59.364  -0.125  28.455  0.00  0.00     0.003 A 
ATOM      8  C   UNL d   1      59.311  -1.564  28.542  0.00  0.00     0.002 A 
ATOM      9  C   UNL d   1      58.644  -2.198  29.642  0.00  0.00     0.002 A 
ATOM     10  C   UNL d   1      59.071  -2.257  28.938  0.00  0.00     0.000 A 
ENDROOT
BRANCH   1  11
ATOM     11  S   UNL d   1      58.086   0.040  30.560  0.00  0.00     0.277 S 
ATOM     12  O   UNL d   1      58.789   0.153  30.978  0.00  0.00    -0.199 OA
ATOM     13  O   UNL d   1      57.393  -0.071  30.148  0.00  0.00    -0.199 OA
BRANCH  11  14
ATOM     14  C   UNL d   1      57.666   0.092  31.250  0.00  0.00     0.133 A 
ATOM     15  S   UNL d   1      57.863   0.575  31.887  0.00  0.00    -0.074 SA
ATOM     16  C   UNL d   1      57.272   0.453  32.490  0.00  0.00     0.036 A 
ATOM     17  C   UNL d   1      56.746  -0.098  32.187  0.00  0.00     0.008 A 
ATOM     18  C   UNL d   1      56.949  -0.336  31.450  0.00  0.00     0.020 A 
ENDBRANCH  11  14
ENDBRANCH   1  11
TORSDOF 2
ENDMDL
MODEL 3
REMARK VINA RESULT:      -3.1      2.672      3.989
REMARK  2 active torsions:
REMARK  status: ('A' for Active; 'I' for Inactive)
REMARK    1  A    between atoms: N_2  and  S_1 
REMARK    2  A    between atoms: C_3  and  S_1 
ROOT
ATOM      1  N   UNL d   1      59.065  -0.950  28.983  0.00  0.00    -0.231 N 
ATOM      2  C   UNL d   1      58.601  -0.634  29.583  0.00  0.00     0.075 A 
ATOM      3  C   UNL d   1      58.559   0.184  29.677  0.00  0.00     0.017 A 
ATOM      4  C   UNL d   1      59.494  -0.457  28.470  0.00  0.00     0.092 A 
ATOM      5  C   UNL d   1      58.171  -1.125  30.098  0.00  0.00     0.018 A 
ATOM      6  C   UNL d   1      59.451   0.357  28.565  0.00  0.00     0.020 A 
ATOM      7  C   UNL d   1      58.981   0.681  29.172  0.00  0.00     0.003 A 
ATOM      8  C   UNL d   1      58.085   0.502  30.288  0.00  0.00     0.002 A 
ATOM      9  C   UNL d   1      57.701  -0.815  30.704  0.00  0.00     0.002 A 
ATOM     10  C   UNL d   1      57.657   0.003  30.801  0.00  0.00     0.000 A 
ENDROOT
BRANCH   1  11
ATOM     11  S   UNL d   1      59.105  -1.768  28.892  0.00  0.00     0.277 S 
ATOM     12  O   UNL d   1      59.808  -1.782  29.323  0.00  0.00    -0.199 OA
ATOM     13  O   UNL d   1      58.411  -1.754  28.466  0.00  0.00    -0.199 OA
BRANCH  11  14
ATOM     14  C   UNL d   1      59.143  -2.572  28.801  0.00  0.00     0.133 A 
ATOM     15  S   UNL d   1      59.778  -3.042  29.030  0.00  0.00    -0.074 SA
ATOM     16  C   UNL d   1      59.582  -3.849  28.831  0.00  0.00     0.036 A 
ATOM     17  C   UNL d   1      58.836  -3.825  28.489  0.00  0.00     0.008 A 
ATOM     18  C   UNL d   1      58.544  -3.080  28.455  0.00  0.00     0.020 A 
ENDBRANCH  11  14
ENDBRANCH   1  11
TORSDOF 2
ENDMDL
MODEL 4
REMARK VINA RESULT:      -2.7      3.161      4.485
REMARK  2 active torsions:
REMARK  status: ('A' for Active; 'I' for Inactive)
REMARK    1  A    between atoms: N_2  and  S_1 
REMARK    2  A    between atoms: C_3  and  S_1 
ROOT
ATOM      1  N   UNL d   1      59.824  -1.722  29.178  0.00  0.00    -0.231 N 
ATOM      2  C   UNL d   1      59.534  -2.454  28.940  0.00  0.00     0.075 A 
ATOM      3  C   UNL d   1      60.039  -3.106  28.927  0.00  0.00     0.017 A 
ATOM      4  C   UNL d   1      60.618  -1.631  29.405  0.00  0.00     0.092 A 
ATOM      5  C   UNL d   1      58.740  -2.549  28.713  0.00  0.00     0.018 A 
ATOM      6  C   UNL d   1      61.118  -2.281  29.391  0.00  0.00     0.020 A 
ATOM      7  C   UNL d   1      60.828  -3.024  29.151  0.00  0.00     0.003 A 
ATOM      8  C   UNL d   1      59.741  -3.849  28.685  0.00  0.00     0.002 A 
ATOM      9  C   UNL d   1      58.441  -3.282  28.472  0.00  0.00     0.002 A 
ATOM     10  C   UNL d   1      58.943  -3.936  28.458  0.00  0.00     0.000 A 
ENDROOT
BRANCH   1  11
ATOM     11  S   UNL d   1      59.318  -1.072  29.190  0.00  0.00     0.277 S 
ATOM     12  O   UNL d   1      59.035  -1.306  29.929  0.00  0.00    -0.199 OA
ATOM     13  O   UNL d   1      59.597  -0.841  28.461  0.00  0.00    -0.199 OA
BRANCH  11  14
ATOM     14  C   UNL d   1      58.821  -0.433  29.201  0.00  0.00     0.133 A 
ATOM     15  S   UNL d   1      58.602   0.006  28.540  0.00  0.00    -0.074 SA
ATOM     16  C   UNL d   1      58.076   0.622  28.808  0.00  0.00     0.036 A 
ATOM     17  C   UNL d   1      58.003   0.525  29.619  0.00  0.00     0.008 A 
ATOM     18  C   UNL d   1      58.433  -0.094  29.889  0.00  0.00     0.020 A 
ENDBRANCH  11  14
ENDBRANCH   1  11
TORSDOF 2
ENDMDL
MODEL 5
REMARK VINA RESULT:      -2.4      2.015      4.035
REMARK  2 active torsions:
REMARK  status: ('A' for Active; 'I' for Inactive)
REMARK    1  A    between atoms: N_2  and  S_1 
REMARK    2  A    between atoms: C_3  and  S_1 
ROOT
ATOM      1  N   UNL d   1      59.334  -0.334  29.476  0.00  0.00    -0.231 N 
ATOM      2  C   UNL d   1      59.318  -1.117  29.227  0.00  0.00     0.075 A 
ATOM      3  C   UNL d   1      59.905  -1.392  28.716  0.00  0.00     0.017 A 
ATOM      4  C   UNL d   1      59.931   0.184  29.221  0.00  0.00     0.092 A 
ATOM      5  C   UNL d   1      58.722  -1.637  29.481  0.00  0.00     0.018 A 
ATOM      6  C   UNL d   1      60.513  -0.092  28.713  0.00  0.00     0.020 A 
ATOM      7  C   UNL d   1      60.500  -0.885  28.458  0.00  0.00     0.003 A 
ATOM      8  C   UNL d   1      59.886  -2.189  28.464  0.00  0.00     0.002 A 
ATOM      9  C   UNL d   1      58.699  -2.427  29.234  0.00  0.00     0.002 A 
ATOM     10  C   UNL d   1      59.284  -2.705  28.723  0.00  0.00     0.000 A 
ENDROOT
BRANCH   1  11
ATOM     11  S   UNL d   1      58.748  -0.061  29.987  0.00  0.00     0.277 S 
ATOM     12  O   UNL d   1      59.219  -0.258  30.634  0.00  0.00    -0.199 OA
ATOM     13  O   UNL d   1      58.282   0.134  29.348  0.00  0.00    -0.199 OA
BRANCH  11  14
ATOM     14  C   UNL d   1      58.171   0.208  30.488  0.00  0.00     0.133 A 
ATOM     15  S   UNL d   1      58.248   0.271  31.305  0.00  0.00    -0.074 SA
ATOM     16  C   UNL d   1      57.510   0.577  31.607  0.00  0.00     0.036 A 
ATOM     17  C   UNL d   1      57.023   0.682  30.955  0.00  0.00     0.008 A 
ATOM     18  C   UNL d   1      57.383   0.472  30.272  0.00  0.00     0.020 A 
ENDBRANCH  11  14
ENDBRANCH   1  11
TORSDOF 2
ENDMDL
