MODEL 1
REMARK VINA RESULT:      36.4      0.000      0.000
REMARK  6 active torsions:
REMARK  status: ('A' for Active; 'I' for Inactive)
REMARK    1  A    between atoms: C_5  and  C_1 
REMARK    2  A    between atoms: N_6  and  C_5 
REMARK    3  A    between atoms: C_9  and  C_5 
REMARK    4  A    between atoms: C_8  and  C_11 
REMARK    5  A    between atoms: O_18  and  C_8 
REMARK    6  A    between atoms: C_23  and  O_18 
ROOT
ATOM      1  C   UNL d   1      46.010 -18.601  43.202  0.00  0.00     0.083 C 
ENDROOT
BRANCH   1   2
ATOM      2  C   UNL d   1      46.213 -18.833  42.426  0.00  0.00     0.037 A 
ATOM      3  C   UNL d   1      46.507 -19.572  42.204  0.00  0.00     0.083 A 
ATOM      4  N   UNL d   1      46.638 -19.588  41.408  0.00  0.00    -0.245 NA
ATOM      5  C   UNL d   1      46.647 -20.212  42.737  0.00  0.00     0.021 C 
ATOM      6  C   UNL d   1      46.432 -18.865  41.108  0.00  0.00     0.081 A 
ATOM      7  C   UNL d   1      46.170 -18.399  41.736  0.00  0.00     0.021 A 
ATOM      8  C   UNL d   1      46.443 -18.555  40.344  0.00  0.00     0.019 A 
ATOM      9  C   UNL d   1      45.921 -17.625  41.598  0.00  0.00     0.002 A 
ATOM     10  C   UNL d   1      45.933 -17.315  40.833  0.00  0.00     0.000 A 
ATOM     11  C   UNL d   1      46.195 -17.781  40.205  0.00  0.00     0.002 A 
ENDBRANCH   1   2
BRANCH   1  12
ATOM     12  N   UNL d   1      45.912 -17.789  43.387  0.00  0.00    -0.302 N 
ATOM     13  C   UNL d   1      45.327 -17.361  43.019  0.00  0.00     0.080 A 
ATOM     14  C   UNL d   1      45.231 -16.563  43.203  0.00  0.00     0.024 A 
ATOM     15  C   UNL d   1      45.736 -16.215  43.760  0.00  0.00     0.067 A 
ATOM     16  C   UNL d   1      46.322 -16.647  44.128  0.00  0.00     0.024 A 
ATOM     17  C   UNL d   1      46.417 -17.445  43.944  0.00  0.00     0.080 A 
BRANCH  15  18
ATOM     18  C   UNL d   1      45.649 -15.405  43.956  0.00  0.00     0.300 C 
ATOM     19  O   UNL d   1      45.117 -15.172  44.548  0.00  0.00    -0.259 OA
BRANCH  18  20
ATOM     20  O   UNL d   1      46.096 -14.854  43.554  0.00  0.00    -0.271 OA
BRANCH  20  21
ATOM     21  C   UNL d   1      45.873 -14.062  43.564  0.00  0.00     0.126 C 
ATOM     22  C   UNL d   1      46.060 -13.601  44.207  0.00  0.00     0.029 C 
ENDBRANCH  20  21
ENDBRANCH  18  20
ENDBRANCH  15  18
ENDBRANCH   1  12
BRANCH   1  23
ATOM     23  C   UNL d   1      45.905 -19.185  43.795  0.00  0.00     0.098 A 
ATOM     24  N   UNL d   1      45.202 -19.595  43.850  0.00  0.00    -0.243 NA
ATOM     25  C   UNL d   1      45.096 -20.163  44.425  0.00  0.00     0.099 A 
ATOM     26  C   UNL d   1      45.703 -20.323  44.954  0.00  0.00     0.021 A 
ATOM     27  C   UNL d   1      46.414 -19.919  44.910  0.00  0.00     0.003 A 
ATOM     28  C   UNL d   1      46.534 -19.342  44.333  0.00  0.00     0.021 A 
ENDBRANCH   1  23
TORSDOF 6
ENDMDL
MODEL 2
REMARK VINA RESULT:      36.5      1.004      2.761
REMARK  6 active torsions:
REMARK  status: ('A' for Active; 'I' for Inactive)
REMARK    1  A    between atoms: C_5  and  C_1 
REMARK    2  A    between atoms: N_6  and  C_5 
REMARK    3  A    between atoms: C_9  and  C_5 
REMARK    4  A    between atoms: C_8  and  C_11 
REMARK    5  A    between atoms: O_18  and  C_8 
REMARK    6  A    between atoms: C_23  and  O_18 
ROOT
ATOM      1  C   UNL d   1      45.937 -17.345  43.205  0.00  0.00     0.083 C 
ENDROOT
BRANCH   1   2
ATOM      2  C   UNL d   1      45.997 -17.953  43.774  0.00  0.00     0.037 A 
ATOM      3  C   UNL d   1      45.835 -17.875  44.580  0.00  0.00     0.083 A 
ATOM      4  N   UNL d   1      45.955 -18.581  44.953  0.00  0.00    -0.245 NA
ATOM      5  C   UNL d   1      45.583 -17.161  44.952  0.00  0.00     0.021 C 
ATOM      6  C   UNL d   1      46.193 -19.118  44.397  0.00  0.00     0.081 A 
ATOM      7  C   UNL d   1      46.219 -18.730  43.669  0.00  0.00     0.021 A 
ATOM      8  C   UNL d   1      46.394 -19.916  44.443  0.00  0.00     0.019 A 
ATOM      9  C   UNL d   1      46.445 -19.142  42.991  0.00  0.00     0.002 A 
ATOM     10  C   UNL d   1      46.647 -19.941  43.038  0.00  0.00     0.000 A 
ATOM     11  C   UNL d   1      46.621 -20.329  43.766  0.00  0.00     0.002 A 
ENDBRANCH   1   2
BRANCH   1  12
ATOM     12  N   UNL d   1      45.945 -16.541  43.443  0.00  0.00    -0.302 N 
ATOM     13  C   UNL d   1      45.448 -16.294  44.038  0.00  0.00     0.080 A 
ATOM     14  C   UNL d   1      45.457 -15.503  44.271  0.00  0.00     0.024 A 
ATOM     15  C   UNL d   1      45.973 -14.977  43.893  0.00  0.00     0.067 A 
ATOM     16  C   UNL d   1      46.470 -15.228  43.297  0.00  0.00     0.024 A 
ATOM     17  C   UNL d   1      46.461 -16.019  43.064  0.00  0.00     0.080 A 
BRANCH  15  18
ATOM     18  C   UNL d   1      45.991 -14.171  44.121  0.00  0.00     0.300 C 
ATOM     19  O   UNL d   1      46.138 -13.963  44.911  0.00  0.00    -0.259 OA
BRANCH  18  20
ATOM     20  O   UNL d   1      45.863 -13.600  43.554  0.00  0.00    -0.271 OA
BRANCH  20  21
ATOM     21  C   UNL d   1      45.504 -12.889  43.765  0.00  0.00     0.126 C 
ATOM     22  C   UNL d   1      44.881 -12.610  43.324  0.00  0.00     0.029 C 
ENDBRANCH  20  21
ENDBRANCH  18  20
ENDBRANCH  15  18
ENDBRANCH   1  12
BRANCH   1  23
ATOM     23  C   UNL d   1      45.870 -17.543  42.391  0.00  0.00     0.098 A 
ATOM     24  N   UNL d   1      45.156 -17.795  42.087  0.00  0.00    -0.243 NA
ATOM     25  C   UNL d   1      45.087 -17.988  41.298  0.00  0.00     0.099 A 
ATOM     26  C   UNL d   1      45.740 -17.928  40.806  0.00  0.00     0.021 A 
ATOM     27  C   UNL d   1      46.463 -17.676  41.099  0.00  0.00     0.003 A 
ATOM     28  C   UNL d   1      46.547 -17.478  41.896  0.00  0.00     0.021 A 
ENDBRANCH   1  23
TORSDOF 6
ENDMDL
