MODEL 1
REMARK VINA RESULT:       4.3      0.000      0.000
REMARK  7 active torsions:
REMARK  status: ('A' for Active; 'I' for Inactive)
REMARK    1  A    between atoms: N_3  and  S_1 
REMARK    2  A    between atoms: C_7  and  S_1 
REMARK    3  A    between atoms: N_2  and  C_6 
REMARK    4  A    between atoms: C_5  and  N_3 
REMARK    5  A    between atoms: C_10  and  N_4 
REMARK    6  A    between atoms: C_6  and  C_5 
REMARK    7  A    between atoms: C_11  and  C_6 
ROOT
ATOM      1  C   UNL d   1      31.835  17.550 -23.206  0.00  0.00     0.086 C 
ENDROOT
BRANCH   1   2
ATOM      2  N   UNL d   1      32.040  18.313 -22.920  0.00  0.00    -0.300 N 
ATOM      3  C   UNL d   1      32.441  18.397 -22.199  0.00  0.00     0.100 A 
ATOM      4  C   UNL d   1      32.640  19.146 -21.922  0.00  0.00     0.100 A 
ATOM      5  N   UNL d   1      32.439  19.812 -22.363  0.00  0.00    -0.301 N 
ATOM      6  C   UNL d   1      32.038  19.729 -23.083  0.00  0.00     0.100 A 
ATOM      7  C   UNL d   1      31.839  18.979 -23.361  0.00  0.00     0.100 A 
BRANCH   5   8
ATOM      8  C   UNL d   1      32.637  20.561 -22.085  0.00  0.00     0.064 A 
ATOM      9  C   UNL d   1      32.632  20.713 -21.275  0.00  0.00     0.020 A 
ATOM     10  C   UNL d   1      32.831  21.464 -20.995  0.00  0.00     0.031 A 
ATOM     11  C   UNL d   1      33.035  22.062 -21.526  0.00  0.00     0.140 A 
ATOM     12  C   UNL d   1      33.040  21.908 -22.337  0.00  0.00     0.031 A 
ATOM     13  F   UNL d   1      33.238  22.825 -21.249  0.00  0.00    -0.204 F 
ATOM     14  C   UNL d   1      32.841  21.159 -22.616  0.00  0.00     0.020 A 
ENDBRANCH   5   8
ENDBRANCH   1   2
BRANCH   1  15
ATOM     15  C   UNL d   1      31.167  17.155 -22.913  0.00  0.00     0.130 C 
BRANCH  15  16
ATOM     16  N   UNL d   1      30.530  16.979 -23.421  0.00  0.00    -0.155 NA
BRANCH  16  17
ATOM     17  S   UNL d   1      29.953  16.444 -23.194  0.00  0.00     0.285 S 
ATOM     18  O   UNL d   1      29.365  15.900 -22.963  0.00  0.00    -0.198 OA
ATOM     19  O   UNL d   1      30.501  16.047 -22.719  0.00  0.00    -0.198 OA
BRANCH  17  20
ATOM     20  C   UNL d   1      29.397  16.841 -23.672  0.00  0.00     0.105 A 
ATOM     21  C   UNL d   1      29.368  16.683 -24.482  0.00  0.00     0.015 A 
ATOM     22  C   UNL d   1      28.822  17.072 -24.959  0.00  0.00     0.030 A 
ATOM     23  C   UNL d   1      28.295  17.629 -24.620  0.00  0.00     0.140 A 
ATOM     24  C   UNL d   1      28.327  17.785 -23.807  0.00  0.00     0.030 A 
ATOM     25  F   UNL d   1      27.730  18.035 -25.096  0.00  0.00    -0.204 F 
ATOM     26  C   UNL d   1      28.880  17.390 -23.333  0.00  0.00     0.015 A 
ENDBRANCH  17  20
ENDBRANCH  16  17
ENDBRANCH  15  16
ENDBRANCH   1  15
BRANCH   1  27
ATOM     27  C   UNL d   1      32.309  17.189 -23.789  0.00  0.00     0.037 A 
ATOM     28  C   UNL d   1      32.411  17.565 -24.515  0.00  0.00     0.100 A 
ATOM     29  N   UNL d   1      32.878  17.214 -25.097  0.00  0.00    -0.242 NA
ATOM     30  C   UNL d   1      33.241  16.487 -24.945  0.00  0.00     0.099 A 
ATOM     31  C   UNL d   1      33.140  16.111 -24.220  0.00  0.00     0.021 A 
ATOM     32  C   UNL d   1      32.671  16.465 -23.640  0.00  0.00     0.005 A 
ENDBRANCH   1  27
TORSDOF 7
ENDMDL
MODEL 2
REMARK VINA RESULT:       5.4      1.820      2.352
REMARK  7 active torsions:
REMARK  status: ('A' for Active; 'I' for Inactive)
REMARK    1  A    between atoms: N_3  and  S_1 
REMARK    2  A    between atoms: C_7  and  S_1 
REMARK    3  A    between atoms: N_2  and  C_6 
REMARK    4  A    between atoms: C_5  and  N_3 
REMARK    5  A    between atoms: C_10  and  N_4 
REMARK    6  A    between atoms: C_6  and  C_5 
REMARK    7  A    between atoms: C_11  and  C_6 
ROOT
ATOM      1  C   UNL d   1      32.806  18.464 -22.781  0.00  0.00     0.086 C 
ENDROOT
BRANCH   1   2
ATOM      2  N   UNL d   1      32.868  19.059 -22.191  0.00  0.00    -0.300 N 
ATOM      3  C   UNL d   1      32.669  19.844 -22.364  0.00  0.00     0.100 A 
ATOM      4  C   UNL d   1      32.731  20.424 -21.784  0.00  0.00     0.100 A 
ATOM      5  N   UNL d   1      32.992  20.222 -21.029  0.00  0.00    -0.301 N 
ATOM      6  C   UNL d   1      33.191  19.436 -20.855  0.00  0.00     0.100 A 
ATOM      7  C   UNL d   1      33.129  18.856 -21.437  0.00  0.00     0.100 A 
BRANCH   5   8
ATOM      8  C   UNL d   1      33.054  20.802 -20.448  0.00  0.00     0.064 A 
ATOM      9  C   UNL d   1      33.131  20.583 -19.658  0.00  0.00     0.020 A 
ATOM     10  C   UNL d   1      33.193  21.164 -19.073  0.00  0.00     0.031 A 
ATOM     11  C   UNL d   1      33.178  21.962 -19.282  0.00  0.00     0.140 A 
ATOM     12  C   UNL d   1      33.100  22.179 -20.075  0.00  0.00     0.031 A 
ATOM     13  F   UNL d   1      33.241  22.556 -18.695  0.00  0.00    -0.204 F 
ATOM     14  C   UNL d   1      33.038  21.600 -20.657  0.00  0.00     0.020 A 
ENDBRANCH   5   8
ENDBRANCH   1   2
BRANCH   1  15
ATOM     15  C   UNL d   1      32.941  17.667 -22.592  0.00  0.00     0.130 C 
BRANCH  15  16
ATOM     16  N   UNL d   1      32.406  17.081 -22.849  0.00  0.00    -0.155 NA
BRANCH  16  17
ATOM     17  S   UNL d   1      32.530  16.294 -22.660  0.00  0.00     0.285 S 
ATOM     18  O   UNL d   1      32.656  15.492 -22.468  0.00  0.00    -0.198 OA
ATOM     19  O   UNL d   1      33.204  16.499 -22.226  0.00  0.00    -0.198 OA
BRANCH  17  20
ATOM     20  C   UNL d   1      31.852  16.083 -23.097  0.00  0.00     0.105 A 
ATOM     21  C   UNL d   1      31.928  15.861 -23.888  0.00  0.00     0.015 A 
ATOM     22  C   UNL d   1      31.263  15.651 -24.324  0.00  0.00     0.030 A 
ATOM     23  C   UNL d   1      30.507  15.664 -23.962  0.00  0.00     0.140 A 
ATOM     24  C   UNL d   1      30.434  15.888 -23.167  0.00  0.00     0.030 A 
ATOM     25  F   UNL d   1      29.815  15.453 -24.396  0.00  0.00    -0.204 F 
ATOM     26  C   UNL d   1      31.108  16.097 -22.735  0.00  0.00     0.015 A 
ENDBRANCH  17  20
ENDBRANCH  16  17
ENDBRANCH  15  16
ENDBRANCH   1  15
BRANCH   1  27
ATOM     27  C   UNL d   1      32.608  18.678 -23.561  0.00  0.00     0.037 A 
ATOM     28  C   UNL d   1      31.817  18.788 -23.760  0.00  0.00     0.100 A 
ATOM     29  N   UNL d   1      31.613  19.000 -24.531  0.00  0.00    -0.242 NA
ATOM     30  C   UNL d   1      32.208  19.101 -25.097  0.00  0.00     0.099 A 
ATOM     31  C   UNL d   1      32.999  18.992 -24.898  0.00  0.00     0.021 A 
ATOM     32  C   UNL d   1      33.198  18.780 -24.127  0.00  0.00     0.005 A 
ENDBRANCH   1  27
TORSDOF 7
ENDMDL
MODEL 3
REMARK VINA RESULT:       5.5      2.040      3.486
REMARK  7 active torsions:
REMARK  status: ('A' for Active; 'I' for Inactive)
REMARK    1  A    between atoms: N_3  and  S_1 
REMARK    2  A    between atoms: C_7  and  S_1 
REMARK    3  A    between atoms: N_2  and  C_6 
REMARK    4  A    between atoms: C_5  and  N_3 
REMARK    5  A    between atoms: C_10  and  N_4 
REMARK    6  A    between atoms: C_6  and  C_5 
REMARK    7  A    between atoms: C_11  and  C_6 
ROOT
ATOM      1  C   UNL d   1      32.960  20.771 -22.946  0.00  0.00     0.086 C 
ENDROOT
BRANCH   1   2
ATOM      2  N   UNL d   1      32.895  21.198 -22.225  0.00  0.00    -0.300 N 
ATOM      3  C   UNL d   1      33.154  21.984 -22.178  0.00  0.00     0.100 A 
ATOM      4  C   UNL d   1      33.089  22.399 -21.471  0.00  0.00     0.100 A 
ATOM      5  N   UNL d   1      32.765  22.031 -20.808  0.00  0.00    -0.301 N 
ATOM      6  C   UNL d   1      32.505  21.245 -20.855  0.00  0.00     0.100 A 
ATOM      7  C   UNL d   1      32.571  20.830 -21.564  0.00  0.00     0.100 A 
BRANCH   5   8
ATOM      8  C   UNL d   1      32.699  22.446 -20.101  0.00  0.00     0.064 A 
ATOM      9  C   UNL d   1      33.027  22.135 -19.412  0.00  0.00     0.020 A 
ATOM     10  C   UNL d   1      32.962  22.550 -18.700  0.00  0.00     0.031 A 
ATOM     11  C   UNL d   1      32.570  23.276 -18.680  0.00  0.00     0.140 A 
ATOM     12  C   UNL d   1      32.242  23.585 -19.372  0.00  0.00     0.031 A 
ATOM     13  F   UNL d   1      32.500  23.702 -17.963  0.00  0.00    -0.204 F 
ATOM     14  C   UNL d   1      32.306  23.171 -20.081  0.00  0.00     0.020 A 
ENDBRANCH   5   8
ENDBRANCH   1   2
BRANCH   1  15
ATOM     15  C   UNL d   1      33.139  19.961 -22.941  0.00  0.00     0.130 C 
BRANCH  15  16
ATOM     16  N   UNL d   1      32.565  19.405 -23.183  0.00  0.00    -0.155 NA
BRANCH  16  17
ATOM     17  S   UNL d   1      32.635  18.618 -22.970  0.00  0.00     0.285 S 
ATOM     18  O   UNL d   1      32.705  17.816 -22.755  0.00  0.00    -0.198 OA
ATOM     19  O   UNL d   1      33.240  18.809 -22.439  0.00  0.00    -0.198 OA
BRANCH  17  20
ATOM     20  C   UNL d   1      32.025  18.421 -23.504  0.00  0.00     0.105 A 
ATOM     21  C   UNL d   1      32.216  18.122 -24.249  0.00  0.00     0.015 A 
ATOM     22  C   UNL d   1      31.620  17.925 -24.781  0.00  0.00     0.030 A 
ATOM     23  C   UNL d   1      30.817  18.030 -24.563  0.00  0.00     0.140 A 
ATOM     24  C   UNL d   1      30.629  18.331 -23.814  0.00  0.00     0.030 A 
ATOM     25  F   UNL d   1      30.194  17.834 -25.096  0.00  0.00    -0.204 F 
ATOM     26  C   UNL d   1      31.235  18.526 -23.284  0.00  0.00     0.015 A 
ENDBRANCH  17  20
ENDBRANCH  16  17
ENDBRANCH  15  16
ENDBRANCH   1  15
BRANCH   1  27
ATOM     27  C   UNL d   1      32.844  21.167 -23.670  0.00  0.00     0.037 A 
ATOM     28  C   UNL d   1      32.329  21.808 -23.700  0.00  0.00     0.100 A 
ATOM     29  N   UNL d   1      32.209  22.205 -24.413  0.00  0.00    -0.242 NA
ATOM     30  C   UNL d   1      32.609  21.954 -25.092  0.00  0.00     0.099 A 
ATOM     31  C   UNL d   1      33.123  21.313 -25.062  0.00  0.00     0.021 A 
ATOM     32  C   UNL d   1      33.241  20.919 -24.347  0.00  0.00     0.005 A 
ENDBRANCH   1  27
TORSDOF 7
ENDMDL
