MODEL 1
REMARK VINA RESULT:      -6.9      0.000      0.000
REMARK  4 active torsions:
REMARK  status: ('A' for Active; 'I' for Inactive)
REMARK    1  A    between atoms: C_6  and  C_2 
REMARK    2  A    between atoms: C_8  and  C_6 
REMARK    3  A    between atoms: C_7  and  C_9 
REMARK    4  A    between atoms: C_9  and  C_8 
ROOT
ATOM      1  C   UNL d   1     -47.573  14.040  22.621  0.00  0.00     0.006 C 
ENDROOT
BRANCH   1   2
ATOM      2  C   UNL d   1     -47.071  13.437  22.861  0.00  0.00     0.039 A 
ATOM      3  C   UNL d   1     -46.250  13.366  22.851  0.00  0.00     0.103 A 
ATOM      4  N   UNL d   1     -46.055  12.631  23.164  0.00  0.00    -0.165 NA
ATOM      5  C   UNL d   1     -45.755  13.964  22.565  0.00  0.00     0.022 C 
ATOM      6  N   UNL d   1     -46.749  12.251  23.365  0.00  0.00    -0.225 N 
ATOM      7  C   UNL d   1     -47.377  12.746  23.179  0.00  0.00     0.102 A 
ATOM      8  C   UNL d   1     -46.799  11.497  23.698  0.00  0.00     0.121 C 
ENDBRANCH   1   2
BRANCH   1   9
ATOM      9  C   UNL d   1     -48.325  14.109  22.954  0.00  0.00     0.043 C 
BRANCH   9  10
ATOM     10  C   UNL d   1     -48.805  14.761  22.763  0.00  0.00     0.202 C 
ATOM     11  O   UNL d   1     -48.537  15.322  22.227  0.00  0.00    -0.286 OA
BRANCH  10  12
ATOM     12  C   UNL d   1     -49.555  14.840  23.116  0.00  0.00     0.068 A 
ATOM     13  S   UNL d   1     -50.247  14.467  23.355  0.00  0.00    -0.083 SA
ATOM     14  C   UNL d   1     -50.742  15.036  23.689  0.00  0.00     0.035 A 
ATOM     15  C   UNL d   1     -50.354  15.764  23.656  0.00  0.00     0.008 A 
ATOM     16  C   UNL d   1     -49.616  15.642  23.300  0.00  0.00     0.010 A 
ENDBRANCH  10  12
ENDBRANCH   9  10
ENDBRANCH   1   9
TORSDOF 4
ENDMDL
MODEL 2
REMARK VINA RESULT:      -6.5      2.011      2.531
REMARK  4 active torsions:
REMARK  status: ('A' for Active; 'I' for Inactive)
REMARK    1  A    between atoms: C_6  and  C_2 
REMARK    2  A    between atoms: C_8  and  C_6 
REMARK    3  A    between atoms: C_7  and  C_9 
REMARK    4  A    between atoms: C_9  and  C_8 
ROOT
ATOM      1  C   UNL d   1     -47.643  11.858  23.400  0.00  0.00     0.006 C 
ENDROOT
BRANCH   1   2
ATOM      2  C   UNL d   1     -46.930  12.241  23.268  0.00  0.00     0.039 A 
ATOM      3  C   UNL d   1     -46.148  12.006  23.379  0.00  0.00     0.103 A 
ATOM      4  N   UNL d   1     -45.661  12.627  23.148  0.00  0.00    -0.165 NA
ATOM      5  C   UNL d   1     -45.946  11.261  23.675  0.00  0.00     0.022 C 
ATOM      6  N   UNL d   1     -46.137  13.241  22.896  0.00  0.00    -0.225 N 
ATOM      7  C   UNL d   1     -46.921  13.006  22.969  0.00  0.00     0.102 A 
ATOM      8  C   UNL d   1     -45.866  13.969  22.618  0.00  0.00     0.121 C 
ENDBRANCH   1   2
BRANCH   1   9
ATOM      9  C   UNL d   1     -48.347  12.288  23.418  0.00  0.00     0.043 C 
BRANCH   9  10
ATOM     10  C   UNL d   1     -49.069  11.898  23.551  0.00  0.00     0.202 C 
ATOM     11  O   UNL d   1     -49.075  11.090  23.696  0.00  0.00    -0.286 OA
BRANCH  10  12
ATOM     12  C   UNL d   1     -49.781  12.328  23.535  0.00  0.00     0.068 A 
ATOM     13  S   UNL d   1     -50.161  13.039  23.697  0.00  0.00    -0.083 SA
ATOM     14  C   UNL d   1     -50.954  12.960  23.484  0.00  0.00     0.035 A 
ATOM     15  C   UNL d   1     -51.064  12.197  23.189  0.00  0.00     0.008 A 
ATOM     16  C   UNL d   1     -50.336  11.803  23.221  0.00  0.00     0.010 A 
ENDBRANCH  10  12
ENDBRANCH   9  10
ENDBRANCH   1   9
TORSDOF 4
ENDMDL
MODEL 3
REMARK VINA RESULT:      -6.2      2.462      4.223
REMARK  4 active torsions:
REMARK  status: ('A' for Active; 'I' for Inactive)
REMARK    1  A    between atoms: C_6  and  C_2 
REMARK    2  A    between atoms: C_8  and  C_6 
REMARK    3  A    between atoms: C_7  and  C_9 
REMARK    4  A    between atoms: C_9  and  C_8 
ROOT
ATOM      1  C   UNL d   1     -49.803  12.887  22.950  0.00  0.00     0.006 C 
ENDROOT
BRANCH   1   2
ATOM      2  C   UNL d   1     -50.199  13.596  22.831  0.00  0.00     0.039 A 
ATOM      3  C   UNL d   1     -50.678  13.864  22.216  0.00  0.00     0.103 A 
ATOM      4  N   UNL d   1     -50.924  14.627  22.400  0.00  0.00    -0.165 NA
ATOM      5  C   UNL d   1     -50.848  13.403  21.552  0.00  0.00     0.022 C 
ATOM      6  N   UNL d   1     -50.600  14.829  23.122  0.00  0.00    -0.225 N 
ATOM      7  C   UNL d   1     -50.152  14.195  23.391  0.00  0.00     0.102 A 
ATOM      8  C   UNL d   1     -50.710  15.551  23.508  0.00  0.00     0.121 C 
ENDBRANCH   1   2
BRANCH   1   9
ATOM      9  C   UNL d   1     -49.010  12.889  23.178  0.00  0.00     0.043 C 
BRANCH   9  10
ATOM     10  C   UNL d   1     -48.597  12.171  23.250  0.00  0.00     0.202 C 
ATOM     11  O   UNL d   1     -49.013  11.464  23.283  0.00  0.00    -0.286 OA
BRANCH  10  12
ATOM     12  C   UNL d   1     -47.766  12.173  23.288  0.00  0.00     0.068 A 
ATOM     13  S   UNL d   1     -47.070  12.580  23.128  0.00  0.00    -0.083 SA
ATOM     14  C   UNL d   1     -46.438  12.114  23.380  0.00  0.00     0.035 A 
ATOM     15  C   UNL d   1     -46.745  11.416  23.698  0.00  0.00     0.008 A 
ATOM     16  C   UNL d   1     -47.571  11.453  23.641  0.00  0.00     0.010 A 
ENDBRANCH  10  12
ENDBRANCH   9  10
ENDBRANCH   1   9
TORSDOF 4
ENDMDL
MODEL 4
REMARK VINA RESULT:      -5.2      8.141      9.553
REMARK  4 active torsions:
REMARK  status: ('A' for Active; 'I' for Inactive)
REMARK    1  A    between atoms: C_6  and  C_2 
REMARK    2  A    between atoms: C_8  and  C_6 
REMARK    3  A    between atoms: C_7  and  C_9 
REMARK    4  A    between atoms: C_9  and  C_8 
ROOT
ATOM      1  C   UNL d   1     -40.595  14.585  19.663  0.00  0.00     0.006 C 
ENDROOT
BRANCH   1   2
ATOM      2  C   UNL d   1     -40.373  14.819  20.418  0.00  0.00     0.039 A 
ATOM      3  C   UNL d   1     -40.652  15.413  20.916  0.00  0.00     0.103 A 
ATOM      4  N   UNL d   1     -40.215  15.387  21.612  0.00  0.00    -0.165 NA
ATOM      5  C   UNL d   1     -41.268  15.920  20.702  0.00  0.00     0.022 C 
ATOM      6  N   UNL d   1     -39.670  14.781  21.545  0.00  0.00    -0.225 N 
ATOM      7  C   UNL d   1     -39.766  14.429  20.810  0.00  0.00     0.102 A 
ATOM      8  C   UNL d   1     -39.122  14.569  22.124  0.00  0.00     0.121 C 
ENDBRANCH   1   2
BRANCH   1   9
ATOM      9  C   UNL d   1     -40.033  14.549  19.060  0.00  0.00     0.043 C 
BRANCH   9  10
ATOM     10  C   UNL d   1     -40.251  14.273  18.306  0.00  0.00     0.202 C 
ATOM     11  O   UNL d   1     -40.908  13.787  18.225  0.00  0.00    -0.286 OA
BRANCH  10  12
ATOM     12  C   UNL d   1     -39.802  14.489  17.640  0.00  0.00     0.068 A 
ATOM     13  S   UNL d   1     -39.568  15.092  17.133  0.00  0.00    -0.083 SA
ATOM     14  C   UNL d   1     -39.061  14.768  16.568  0.00  0.00     0.035 A 
ATOM     15  C   UNL d   1     -38.982  13.962  16.727  0.00  0.00     0.008 A 
ATOM     16  C   UNL d   1     -39.443  13.788  17.394  0.00  0.00     0.010 A 
ENDBRANCH  10  12
ENDBRANCH   9  10
ENDBRANCH   1   9
TORSDOF 4
ENDMDL
MODEL 5
REMARK VINA RESULT:      -5.1      8.652     10.098
REMARK  4 active torsions:
REMARK  status: ('A' for Active; 'I' for Inactive)
REMARK    1  A    between atoms: C_6  and  C_2 
REMARK    2  A    between atoms: C_8  and  C_6 
REMARK    3  A    between atoms: C_7  and  C_9 
REMARK    4  A    between atoms: C_9  and  C_8 
ROOT
ATOM      1  C   UNL d   1     -39.661  13.680  17.756  0.00  0.00     0.006 C 
ENDROOT
BRANCH   1   2
ATOM      2  C   UNL d   1     -39.030  13.678  17.232  0.00  0.00     0.039 A 
ATOM      3  C   UNL d   1     -38.410  13.147  17.116  0.00  0.00     0.103 A 
ATOM      4  N   UNL d   1     -37.940  13.435  16.506  0.00  0.00    -0.165 NA
ATOM      5  C   UNL d   1     -38.326  12.458  17.564  0.00  0.00     0.022 C 
ATOM      6  N   UNL d   1     -38.265  14.139  16.248  0.00  0.00    -0.225 N 
ATOM      7  C   UNL d   1     -38.938  14.291  16.694  0.00  0.00     0.102 A 
ATOM      8  C   UNL d   1     -37.961  14.609  15.641  0.00  0.00     0.121 C 
ENDBRANCH   1   2
BRANCH   1   9
ATOM      9  C   UNL d   1     -39.785  14.328  18.252  0.00  0.00     0.043 C 
BRANCH   9  10
ATOM     10  C   UNL d   1     -40.456  14.352  18.743  0.00  0.00     0.202 C 
ATOM     11  O   UNL d   1     -41.083  13.842  18.601  0.00  0.00    -0.286 OA
BRANCH  10  12
ATOM     12  C   UNL d   1     -40.487  14.893  19.374  0.00  0.00     0.068 A 
ATOM     13  S   UNL d   1     -40.348  15.662  19.631  0.00  0.00    -0.083 SA
ATOM     14  C   UNL d   1     -40.563  15.708  20.426  0.00  0.00     0.035 A 
ATOM     15  C   UNL d   1     -40.836  14.966  20.661  0.00  0.00     0.008 A 
ATOM     16  C   UNL d   1     -40.789  14.459  20.008  0.00  0.00     0.010 A 
ENDBRANCH  10  12
ENDBRANCH   9  10
ENDBRANCH   1   9
TORSDOF 4
ENDMDL
MODEL 6
REMARK VINA RESULT:      -5.0      8.665      9.289
REMARK  4 active torsions:
REMARK  status: ('A' for Active; 'I' for Inactive)
REMARK    1  A    between atoms: C_6  and  C_2 
REMARK    2  A    between atoms: C_8  and  C_6 
REMARK    3  A    between atoms: C_7  and  C_9 
REMARK    4  A    between atoms: C_9  and  C_8 
ROOT
ATOM      1  C   UNL d   1     -40.475  14.393  19.009  0.00  0.00     0.006 C 
ENDROOT
BRANCH   1   2
ATOM      2  C   UNL d   1     -40.467  14.628  18.223  0.00  0.00     0.039 A 
ATOM      3  C   UNL d   1     -40.021  14.379  17.576  0.00  0.00     0.103 A 
ATOM      4  N   UNL d   1     -40.257  14.818  16.922  0.00  0.00    -0.165 NA
ATOM      5  C   UNL d   1     -39.449  13.785  17.634  0.00  0.00     0.022 C 
ATOM      6  N   UNL d   1     -40.843  15.334  17.162  0.00  0.00    -0.225 N 
ATOM      7  C   UNL d   1     -40.975  15.219  17.964  0.00  0.00     0.102 A 
ATOM      8  C   UNL d   1     -41.230  15.874  16.672  0.00  0.00     0.121 C 
ENDBRANCH   1   2
BRANCH   1   9
ATOM      9  C   UNL d   1     -40.342  14.945  19.607  0.00  0.00     0.043 C 
BRANCH   9  10
ATOM     10  C   UNL d   1     -40.392  14.713  20.405  0.00  0.00     0.202 C 
ATOM     11  O   UNL d   1     -40.810  14.037  20.607  0.00  0.00    -0.286 OA
BRANCH  10  12
ATOM     12  C   UNL d   1     -40.017  15.169  20.993  0.00  0.00     0.068 A 
ATOM     13  S   UNL d   1     -39.813  15.920  21.257  0.00  0.00    -0.083 SA
ATOM     14  C   UNL d   1     -39.402  15.837  21.967  0.00  0.00     0.035 A 
ATOM     15  C   UNL d   1     -39.353  15.032  22.143  0.00  0.00     0.008 A 
ATOM     16  C   UNL d   1     -39.735  14.616  21.537  0.00  0.00     0.010 A 
ENDBRANCH  10  12
ENDBRANCH   9  10
ENDBRANCH   1   9
TORSDOF 4
ENDMDL
