MODEL 1
REMARK VINA RESULT:      56.2      0.000      0.000
REMARK  6 active torsions:
REMARK  status: ('A' for Active; 'I' for Inactive)
REMARK    1  A    between atoms: S_13  and  C_3 
REMARK    2  A    between atoms: C_21  and  C_4 
REMARK       I    between atoms: N_7  and  C_10 
REMARK    3  A    between atoms: C_10  and  C_20 
REMARK    4  A    between atoms: C_20  and  S_13 
REMARK    5  A    between atoms: O_24  and  C_16 
REMARK    6  A    between atoms: O_25  and  C_17 
ROOT
ATOM      1  N   UNL d   1      45.624 -17.325  39.546  0.00  0.00    -0.272 N 
ATOM      2  C   UNL d   1      45.504 -17.838  40.214  0.00  0.00     0.271 C 
ATOM      3  C   UNL d   1      45.095 -16.565  38.469  0.00  0.00     0.020 A 
ATOM      4  C   UNL d   1      44.976 -17.058  39.111  0.00  0.00     0.083 A 
ATOM      5  C   UNL d   1      45.842 -16.341  38.261  0.00  0.00     0.005 A 
ATOM      6  C   UNL d   1      44.444 -16.293  38.028  0.00  0.00     0.028 A 
ATOM      7  C   UNL d   1      44.560 -15.795  37.379  0.00  0.00     0.116 A 
ATOM      8  C   UNL d   1      45.306 -15.571  37.171  0.00  0.00     0.116 A 
ATOM      9  C   UNL d   1      45.963 -15.837  37.604  0.00  0.00     0.026 A 
ATOM     10  C   UNL d   1      46.371 -17.101  39.338  0.00  0.00     0.083 A 
ATOM     11  O   UNL d   1      44.735 -18.063  40.421  0.00  0.00    -0.266 OA
ATOM     12  C   UNL d   1      46.495 -16.602  38.687  0.00  0.00     0.019 A 
ENDROOT
BRANCH   2  13
ATOM     13  C   UNL d   1      46.153 -18.105  40.648  0.00  0.00     0.099 C 
BRANCH  13  14
ATOM     14  S   UNL d   1      46.061 -18.285  41.442  0.00  0.00    -0.043 SA
BRANCH  14  15
ATOM     15  C   UNL d   1      46.258 -19.048  41.724  0.00  0.00     0.202 A 
ATOM     16  N   UNL d   1      46.355 -19.243  42.499  0.00  0.00    -0.263 N 
ATOM     17  C   UNL d   1      46.544 -20.040  42.525  0.00  0.00     0.202 A 
ATOM     18  C   UNL d   1      46.340 -18.964  43.276  0.00  0.00     0.074 A 
ATOM     19  N   UNL d   1      46.562 -20.330  41.763  0.00  0.00    -0.121 NA
ATOM     20  S   UNL d   1      46.647 -20.259  43.317  0.00  0.00    -0.046 SA
ATOM     21  N   UNL d   1      46.383 -19.707  41.268  0.00  0.00    -0.121 NA
ATOM     22  C   UNL d   1      46.520 -19.589  43.784  0.00  0.00     0.056 A 
BRANCH  18  23
ATOM     23  C   UNL d   1      46.173 -18.194  43.498  0.00  0.00     0.017 A 
ATOM     24  C   UNL d   1      45.556 -18.047  44.041  0.00  0.00     0.002 A 
ATOM     25  C   UNL d   1      45.397 -17.284  44.256  0.00  0.00     0.000 A 
ATOM     26  C   UNL d   1      45.823 -16.650  43.958  0.00  0.00     0.000 A 
ATOM     27  C   UNL d   1      46.438 -16.810  43.416  0.00  0.00     0.000 A 
ATOM     28  C   UNL d   1      46.601 -17.572  43.197  0.00  0.00     0.002 A 
ENDBRANCH  18  23
ENDBRANCH  14  15
ENDBRANCH  13  14
ENDBRANCH   2  13
BRANCH   7  29
ATOM     29  O   UNL d   1      43.903 -15.536  36.954  0.00  0.00    -0.326 OA
ATOM     30  C   UNL d   1      43.203 -16.007  36.942  0.00  0.00     0.181 C 
ENDBRANCH   7  29
BRANCH   8  31
ATOM     31  O   UNL d   1      45.434 -15.076  36.527  0.00  0.00    -0.326 OA
ATOM     32  C   UNL d   1      46.178 -14.701  36.446  0.00  0.00     0.181 C 
ENDBRANCH   8  31
TORSDOF 6
ENDMDL
MODEL 2
REMARK VINA RESULT:      56.8      1.980      6.148
REMARK  6 active torsions:
REMARK  status: ('A' for Active; 'I' for Inactive)
REMARK    1  A    between atoms: S_13  and  C_3 
REMARK    2  A    between atoms: C_21  and  C_4 
REMARK       I    between atoms: N_7  and  C_10 
REMARK    3  A    between atoms: C_10  and  C_20 
REMARK    4  A    between atoms: C_20  and  S_13 
REMARK    5  A    between atoms: O_24  and  C_16 
REMARK    6  A    between atoms: O_25  and  C_17 
ROOT
ATOM      1  N   UNL d   1      45.639 -17.939  39.931  0.00  0.00    -0.272 N 
ATOM      2  C   UNL d   1      45.343 -17.322  39.426  0.00  0.00     0.271 C 
ATOM      3  C   UNL d   1      45.789 -18.501  41.226  0.00  0.00     0.020 A 
ATOM      4  C   UNL d   1      45.502 -17.906  40.743  0.00  0.00     0.083 A 
ATOM      5  C   UNL d   1      46.204 -19.117  40.911  0.00  0.00     0.005 A 
ATOM      6  C   UNL d   1      45.653 -18.472  42.047  0.00  0.00     0.028 A 
ATOM      7  C   UNL d   1      45.940 -19.071  42.538  0.00  0.00     0.116 A 
ATOM      8  C   UNL d   1      46.355 -19.687  42.222  0.00  0.00     0.116 A 
ATOM      9  C   UNL d   1      46.497 -19.726  41.405  0.00  0.00     0.026 A 
ATOM     10  C   UNL d   1      46.054 -18.555  39.615  0.00  0.00     0.083 A 
ATOM     11  O   UNL d   1      44.919 -16.694  39.757  0.00  0.00    -0.266 OA
ATOM     12  C   UNL d   1      46.346 -19.160  40.102  0.00  0.00     0.019 A 
ENDROOT
BRANCH   2  13
ATOM     13  C   UNL d   1      45.481 -17.355  38.613  0.00  0.00     0.099 C 
BRANCH  13  14
ATOM     14  S   UNL d   1      45.151 -16.787  38.123  0.00  0.00    -0.043 SA
BRANCH  14  15
ATOM     15  C   UNL d   1      45.622 -16.157  37.837  0.00  0.00     0.202 A 
ATOM     16  N   UNL d   1      45.369 -15.584  37.331  0.00  0.00    -0.263 N 
ATOM     17  C   UNL d   1      46.004 -15.084  37.198  0.00  0.00     0.202 A 
ATOM     18  C   UNL d   1      44.729 -15.299  36.895  0.00  0.00     0.074 A 
ATOM     19  N   UNL d   1      46.645 -15.353  37.623  0.00  0.00    -0.121 NA
ATOM     20  S   UNL d   1      45.761 -14.486  36.678  0.00  0.00    -0.046 SA
ATOM     21  N   UNL d   1      46.401 -16.023  38.020  0.00  0.00    -0.121 NA
ATOM     22  C   UNL d   1      44.967 -14.620  36.490  0.00  0.00     0.056 A 
BRANCH  18  23
ATOM     23  C   UNL d   1      43.984 -15.638  36.872  0.00  0.00     0.017 A 
ATOM     24  C   UNL d   1      43.390 -15.359  37.389  0.00  0.00     0.002 A 
ATOM     25  C   UNL d   1      42.656 -15.699  37.361  0.00  0.00     0.000 A 
ATOM     26  C   UNL d   1      42.478 -16.307  36.842  0.00  0.00     0.000 A 
ATOM     27  C   UNL d   1      43.081 -16.578  36.330  0.00  0.00     0.000 A 
ATOM     28  C   UNL d   1      43.817 -16.241  36.354  0.00  0.00     0.002 A 
ENDBRANCH  18  23
ENDBRANCH  14  15
ENDBRANCH  13  14
ENDBRANCH   2  13
BRANCH   7  29
ATOM     29  O   UNL d   1      45.796 -19.025  43.348  0.00  0.00    -0.326 OA
ATOM     30  C   UNL d   1      45.774 -18.270  43.724  0.00  0.00     0.181 C 
ENDBRANCH   7  29
BRANCH   8  31
ATOM     31  O   UNL d   1      46.646 -20.289  42.701  0.00  0.00    -0.326 OA
ATOM     32  C   UNL d   1      46.544 -20.230  43.530  0.00  0.00     0.181 C 
ENDBRANCH   8  31
TORSDOF 6
ENDMDL
