MODEL 1
REMARK VINA RESULT:      38.5      0.000      0.000
REMARK  4 active torsions:
REMARK  status: ('A' for Active; 'I' for Inactive)
REMARK    1  A    between atoms: S_6  and  C_1 
REMARK    2  A    between atoms: C_19  and  S_6 
REMARK    3  A    between atoms: C_7  and  C_19 
REMARK       I    between atoms: N_10  and  C_7 
REMARK    4  A    between atoms: C_14  and  N_10 
ROOT
ATOM      1  C   UNL d   1      13.169  12.147  -3.158  0.00  0.00     0.286 C 
ATOM      2  N   UNL d   1      13.838  11.803  -2.829  0.00  0.00    -0.207 NA
ATOM      3  O   UNL d   1      12.783  12.755  -2.751  0.00  0.00    -0.265 OA
ENDROOT
BRANCH   1   4
ATOM      4  C   UNL d   1      12.886  11.892  -3.883  0.00  0.00     0.099 C 
BRANCH   4   5
ATOM      5  S   UNL d   1      12.769  12.427  -4.492  0.00  0.00    -0.062 SA
BRANCH   5   6
ATOM      6  C   UNL d   1      13.306  12.471  -5.118  0.00  0.00     0.114 A 
ATOM      7  C   UNL d   1      13.582  13.201  -5.376  0.00  0.00     0.042 A 
ATOM      8  C   UNL d   1      14.119  13.245  -6.004  0.00  0.00     0.085 A 
ATOM      9  C   UNL d   1      13.321  13.891  -5.006  0.00  0.00     0.004 A 
ATOM     10  C   UNL d   1      14.395  13.978  -6.261  0.00  0.00     0.019 A 
ATOM     11  N   UNL d   1      14.380  12.559  -6.373  0.00  0.00    -0.224 NA
ATOM     12  C   UNL d   1      14.134  14.668  -5.891  0.00  0.00     0.002 A 
ATOM     13  C   UNL d   1      13.597  14.624  -5.264  0.00  0.00     0.000 A 
ATOM     14  C   UNL d   1      14.104  11.825  -6.116  0.00  0.00     0.200 A 
ATOM     15  N   UNL d   1      13.567  11.781  -5.489  0.00  0.00    -0.217 NA
ENDBRANCH   5   6
ENDBRANCH   4   5
ENDBRANCH   1   4
BRANCH   2  16
ATOM     16  C   UNL d   1      14.124  12.057  -2.100  0.00  0.00     0.087 A 
ATOM     17  C   UNL d   1      14.752  12.584  -2.074  0.00  0.00     0.045 A 
ATOM     18  C   UNL d   1      15.041  12.840  -1.343  0.00  0.00     0.121 A 
ATOM     19  O   UNL d   1      15.656  13.359  -1.148  0.00  0.00    -0.299 OA
ATOM     20  C   UNL d   1      14.698  12.566  -0.648  0.00  0.00     0.119 A 
ATOM     21  C   UNL d   1      15.685  13.400  -0.328  0.00  0.00     0.304 A 
ATOM     22  O   UNL d   1      15.097  12.913  -0.014  0.00  0.00    -0.300 OA
ATOM     23  C   UNL d   1      14.068  12.037  -0.686  0.00  0.00     0.028 A 
ATOM     24  C   UNL d   1      13.781  11.783  -1.405  0.00  0.00     0.021 A 
ENDBRANCH   2  16
TORSDOF 4
ENDMDL
