MODEL 1
REMARK VINA RESULT:      -4.5      0.000      0.000
REMARK  4 active torsions:
REMARK  status: ('A' for Active; 'I' for Inactive)
REMARK    1  A    between atoms: C_6  and  N_3 
REMARK    2  A    between atoms: C_13  and  N_4 
REMARK    3  A    between atoms: C_5  and  C_6 
REMARK       I    between atoms: N_10  and  C_5 
REMARK    4  A    between atoms: C_14  and  N_10 
ROOT
ATOM      1  C   UNL d   1      58.338   0.279  29.587  0.00  0.00     0.322 A 
ATOM      2  C   UNL d   1      59.083   0.116  29.272  0.00  0.00     0.322 A 
ATOM      3  N   UNL d   1      58.263   0.518  30.368  0.00  0.00    -0.262 N 
ATOM      4  N   UNL d   1      59.754   0.191  29.738  0.00  0.00    -0.267 N 
ATOM      5  C   UNL d   1      58.936   0.595  30.838  0.00  0.00     0.102 A 
ATOM      6  O   UNL d   1      57.663   0.202  29.114  0.00  0.00    -0.261 OA
ATOM      7  O   UNL d   1      59.154  -0.125  28.483  0.00  0.00    -0.261 OA
ATOM      8  C   UNL d   1      59.681   0.431  30.523  0.00  0.00     0.102 A 
ENDROOT
BRANCH   3   9
ATOM      9  C   UNL d   1      57.522   0.681  30.682  0.00  0.00     0.146 C 
BRANCH   9  10
ATOM     10  C   UNL d   1      57.285   0.309  31.373  0.00  0.00     0.297 C 
ATOM     11  N   UNL d   1      56.561  -0.066  31.425  0.00  0.00    -0.207 NA
ATOM     12  O   UNL d   1      57.792   0.318  32.025  0.00  0.00    -0.264 OA
BRANCH  11  13
ATOM     13  C   UNL d   1      56.330  -0.437  32.123  0.00  0.00     0.085 A 
ATOM     14  C   UNL d   1      56.405  -1.234  32.296  0.00  0.00     0.019 A 
ATOM     15  C   UNL d   1      56.105  -1.358  33.046  0.00  0.00     0.002 A 
ATOM     16  C   UNL d   1      55.845  -0.646  33.341  0.00  0.00     0.002 A 
ATOM     17  C   UNL d   1      55.981  -0.065  32.772  0.00  0.00     0.019 A 
ENDBRANCH  11  13
ENDBRANCH   9  10
ENDBRANCH   3   9
BRANCH   4  18
ATOM     18  C   UNL d   1      60.499   0.028  29.423  0.00  0.00     0.083 C 
ATOM     19  C   UNL d   1      61.121  -0.187  29.924  0.00  0.00     0.021 C 
ENDBRANCH   4  18
TORSDOF 4
ENDMDL
MODEL 2
REMARK VINA RESULT:      -4.2      1.212      1.549
REMARK  4 active torsions:
REMARK  status: ('A' for Active; 'I' for Inactive)
REMARK    1  A    between atoms: C_6  and  N_3 
REMARK    2  A    between atoms: C_13  and  N_4 
REMARK    3  A    between atoms: C_5  and  C_6 
REMARK       I    between atoms: N_10  and  C_5 
REMARK    4  A    between atoms: C_14  and  N_10 
ROOT
ATOM      1  C   UNL d   1      59.471   0.168  30.129  0.00  0.00     0.322 A 
ATOM      2  C   UNL d   1      59.818  -0.325  29.567  0.00  0.00     0.322 A 
ATOM      3  N   UNL d   1      58.660   0.152  30.249  0.00  0.00    -0.262 N 
ATOM      4  N   UNL d   1      59.354  -0.836  29.123  0.00  0.00    -0.267 N 
ATOM      5  C   UNL d   1      58.192  -0.361  29.805  0.00  0.00     0.102 A 
ATOM      6  O   UNL d   1      59.943   0.682  30.575  0.00  0.00    -0.261 OA
ATOM      7  O   UNL d   1      60.637  -0.306  29.449  0.00  0.00    -0.261 OA
ATOM      8  C   UNL d   1      58.539  -0.854  29.242  0.00  0.00     0.102 A 
ENDROOT
BRANCH   3   9
ATOM      9  C   UNL d   1      58.315   0.643  30.809  0.00  0.00     0.146 C 
BRANCH   9  10
ATOM     10  C   UNL d   1      57.607   0.422  31.159  0.00  0.00     0.297 C 
ATOM     11  N   UNL d   1      57.583   0.148  31.929  0.00  0.00    -0.207 NA
ATOM     12  O   UNL d   1      56.909   0.479  30.721  0.00  0.00    -0.264 OA
BRANCH  11  13
ATOM     13  C   UNL d   1      56.868  -0.072  32.274  0.00  0.00     0.085 A 
ATOM     14  C   UNL d   1      56.305   0.434  32.586  0.00  0.00     0.019 A 
ATOM     15  C   UNL d   1      55.687  -0.022  32.868  0.00  0.00     0.002 A 
ATOM     16  C   UNL d   1      55.861  -0.805  32.735  0.00  0.00     0.002 A 
ATOM     17  C   UNL d   1      56.596  -0.846  32.363  0.00  0.00     0.019 A 
ENDBRANCH  11  13
ENDBRANCH   9  10
ENDBRANCH   3   9
BRANCH   4  18
ATOM     18  C   UNL d   1      59.701  -1.330  28.560  0.00  0.00     0.083 C 
ATOM     19  C   UNL d   1      59.433  -2.107  28.471  0.00  0.00     0.021 C 
ENDBRANCH   4  18
TORSDOF 4
ENDMDL
MODEL 3
REMARK VINA RESULT:      -3.7      1.122      4.175
REMARK  4 active torsions:
REMARK  status: ('A' for Active; 'I' for Inactive)
REMARK    1  A    between atoms: C_6  and  N_3 
REMARK    2  A    between atoms: C_13  and  N_4 
REMARK    3  A    between atoms: C_5  and  C_6 
REMARK       I    between atoms: N_10  and  C_5 
REMARK    4  A    between atoms: C_14  and  N_10 
ROOT
ATOM      1  C   UNL d   1      56.993  -0.832  31.471  0.00  0.00     0.322 A 
ATOM      2  C   UNL d   1      56.639  -0.775  32.214  0.00  0.00     0.322 A 
ATOM      3  N   UNL d   1      57.312  -0.167  31.113  0.00  0.00    -0.262 N 
ATOM      4  N   UNL d   1      56.604  -0.052  32.601  0.00  0.00    -0.267 N 
ATOM      5  C   UNL d   1      57.278   0.560  31.500  0.00  0.00     0.102 A 
ATOM      6  O   UNL d   1      57.026  -1.563  31.085  0.00  0.00    -0.261 OA
ATOM      7  O   UNL d   1      56.319  -1.449  32.572  0.00  0.00    -0.261 OA
ATOM      8  C   UNL d   1      56.924   0.618  32.243  0.00  0.00     0.102 A 
ENDROOT
BRANCH   3   9
ATOM      9  C   UNL d   1      57.664  -0.223  30.374  0.00  0.00     0.146 C 
BRANCH   9  10
ATOM     10  C   UNL d   1      58.431   0.044  30.270  0.00  0.00     0.297 C 
ATOM     11  N   UNL d   1      58.932  -0.308  29.728  0.00  0.00    -0.207 NA
ATOM     12  O   UNL d   1      58.697   0.682  30.722  0.00  0.00    -0.264 OA
BRANCH  11  13
ATOM     13  C   UNL d   1      59.703  -0.033  29.629  0.00  0.00     0.085 A 
ATOM     14  C   UNL d   1      59.940   0.575  29.134  0.00  0.00     0.019 A 
ATOM     15  C   UNL d   1      60.750   0.659  29.211  0.00  0.00     0.002 A 
ATOM     16  C   UNL d   1      61.017   0.111  29.749  0.00  0.00     0.002 A 
ATOM     17  C   UNL d   1      60.370  -0.326  30.015  0.00  0.00     0.019 A 
ENDBRANCH  11  13
ENDBRANCH   9  10
ENDBRANCH   3   9
BRANCH   4  18
ATOM     18  C   UNL d   1      56.251   0.005  33.344  0.00  0.00     0.083 C 
ATOM     19  C   UNL d   1      55.795   0.668  33.534  0.00  0.00     0.021 C 
ENDBRANCH   4  18
TORSDOF 4
ENDMDL
MODEL 4
REMARK VINA RESULT:      -3.3      1.348      4.298
REMARK  4 active torsions:
REMARK  status: ('A' for Active; 'I' for Inactive)
REMARK    1  A    between atoms: C_6  and  N_3 
REMARK    2  A    between atoms: C_13  and  N_4 
REMARK    3  A    between atoms: C_5  and  C_6 
REMARK       I    between atoms: N_10  and  C_5 
REMARK    4  A    between atoms: C_14  and  N_10 
ROOT
ATOM      1  C   UNL d   1      57.562   0.547  32.947  0.00  0.00     0.322 A 
ATOM      2  C   UNL d   1      56.927   0.412  33.456  0.00  0.00     0.322 A 
ATOM      3  N   UNL d   1      57.448   0.547  32.135  0.00  0.00    -0.262 N 
ATOM      4  N   UNL d   1      56.176   0.278  33.153  0.00  0.00    -0.267 N 
ATOM      5  C   UNL d   1      56.695   0.412  31.829  0.00  0.00     0.102 A 
ATOM      6  O   UNL d   1      58.318   0.682  33.257  0.00  0.00    -0.261 OA
ATOM      7  O   UNL d   1      57.046   0.413  34.275  0.00  0.00    -0.261 OA
ATOM      8  C   UNL d   1      56.060   0.278  32.337  0.00  0.00     0.102 A 
ENDROOT
BRANCH   3   9
ATOM      9  C   UNL d   1      58.080   0.681  31.629  0.00  0.00     0.146 C 
BRANCH   9  10
ATOM     10  C   UNL d   1      58.082   0.338  30.884  0.00  0.00     0.297 C 
ATOM     11  N   UNL d   1      58.780   0.123  30.519  0.00  0.00    -0.207 NA
ATOM     12  O   UNL d   1      57.361   0.211  30.501  0.00  0.00    -0.264 OA
BRANCH  11  13
ATOM     13  C   UNL d   1      58.774  -0.221  29.770  0.00  0.00     0.085 A 
ATOM     14  C   UNL d   1      58.622  -1.008  29.600  0.00  0.00     0.019 A 
ATOM     15  C   UNL d   1      58.674  -1.103  28.790  0.00  0.00     0.002 A 
ATOM     16  C   UNL d   1      58.855  -0.385  28.455  0.00  0.00     0.002 A 
ATOM     17  C   UNL d   1      58.919   0.172  29.060  0.00  0.00     0.019 A 
ENDBRANCH  11  13
ENDBRANCH   9  10
ENDBRANCH   3   9
BRANCH   4  18
ATOM     18  C   UNL d   1      55.541   0.143  33.661  0.00  0.00     0.083 C 
ATOM     19  C   UNL d   1      54.777   0.372  33.438  0.00  0.00     0.021 C 
ENDBRANCH   4  18
TORSDOF 4
ENDMDL
MODEL 5
REMARK VINA RESULT:      -2.0      1.816      2.113
REMARK  4 active torsions:
REMARK  status: ('A' for Active; 'I' for Inactive)
REMARK    1  A    between atoms: C_6  and  N_3 
REMARK    2  A    between atoms: C_13  and  N_4 
REMARK    3  A    between atoms: C_5  and  C_6 
REMARK       I    between atoms: N_10  and  C_5 
REMARK    4  A    between atoms: C_14  and  N_10 
ROOT
ATOM      1  C   UNL d   1      58.720  -1.776  29.022  0.00  0.00     0.322 A 
ATOM      2  C   UNL d   1      59.245  -2.398  28.886  0.00  0.00     0.322 A 
ATOM      3  N   UNL d   1      58.979  -1.088  29.387  0.00  0.00    -0.262 N 
ATOM      4  N   UNL d   1      60.030  -2.333  29.116  0.00  0.00    -0.267 N 
ATOM      5  C   UNL d   1      59.767  -1.021  29.618  0.00  0.00     0.102 A 
ATOM      6  O   UNL d   1      57.929  -1.845  28.789  0.00  0.00    -0.261 OA
ATOM      7  O   UNL d   1      58.979  -3.089  28.517  0.00  0.00    -0.261 OA
ATOM      8  C   UNL d   1      60.292  -1.643  29.483  0.00  0.00     0.102 A 
ENDROOT
BRANCH   3   9
ATOM      9  C   UNL d   1      58.457  -0.470  29.522  0.00  0.00     0.146 C 
BRANCH   9  10
ATOM     10  C   UNL d   1      58.183  -0.331  30.282  0.00  0.00     0.297 C 
ATOM     11  N   UNL d   1      57.389  -0.199  30.428  0.00  0.00    -0.207 NA
ATOM     12  O   UNL d   1      58.722  -0.326  30.907  0.00  0.00    -0.264 OA
BRANCH  11  13
ATOM     13  C   UNL d   1      57.121  -0.060  31.194  0.00  0.00     0.085 A 
ATOM     14  C   UNL d   1      56.993  -0.626  31.772  0.00  0.00     0.019 A 
ATOM     15  C   UNL d   1      56.729  -0.243  32.444  0.00  0.00     0.002 A 
ATOM     16  C   UNL d   1      56.691   0.555  32.290  0.00  0.00     0.002 A 
ATOM     17  C   UNL d   1      56.934   0.678  31.511  0.00  0.00     0.019 A 
ENDBRANCH  11  13
ENDBRANCH   9  10
ENDBRANCH   3   9
BRANCH   4  18
ATOM     18  C   UNL d   1      60.555  -2.955  28.980  0.00  0.00     0.083 C 
ATOM     19  C   UNL d   1      61.133  -3.137  29.543  0.00  0.00     0.021 C 
ENDBRANCH   4  18
TORSDOF 4
ENDMDL
