MODEL 1
REMARK VINA RESULT:      -2.5      0.000      0.000
REMARK  7 active torsions:
REMARK  status: ('A' for Active; 'I' for Inactive)
REMARK    1  A    between atoms: C_3  and  C_1 
REMARK    2  A    between atoms: C_9  and  N_2 
REMARK    3  A    between atoms: C_6  and  C_3 
REMARK    4  A    between atoms: C_8  and  C_3 
REMARK       I    between atoms: N_11  and  C_6 
REMARK    5  A    between atoms: C_26  and  C_7 
REMARK    6  A    between atoms: C_21  and  N_11 
REMARK    7  A    between atoms: C_12  and  C_21 
ROOT
ATOM      1  C   UNL d   1      32.483  17.980 -23.633  0.00  0.00     0.103 A 
ATOM      2  N   UNL d   1      31.771  17.647 -23.874  0.00  0.00    -0.269 N 
ATOM      3  S   UNL d   1      33.037  17.373 -23.559  0.00  0.00    -0.064 SA
ATOM      4  C   UNL d   1      31.877  16.832 -23.950  0.00  0.00     0.271 A 
ATOM      5  C   UNL d   1      32.662  16.666 -23.754  0.00  0.00     0.087 A 
ATOM      6  O   UNL d   1      31.305  16.288 -24.179  0.00  0.00    -0.266 OA
ENDROOT
BRANCH   1   7
ATOM      7  C   UNL d   1      32.624  18.783 -23.490  0.00  0.00     0.101 C 
BRANCH   7   8
ATOM      8  C   UNL d   1      32.862  19.035 -22.739  0.00  0.00     0.283 C 
ATOM      9  N   UNL d   1      32.725  19.805 -22.501  0.00  0.00    -0.204 NA
ATOM     10  O   UNL d   1      33.241  18.503 -22.230  0.00  0.00    -0.265 OA
BRANCH   9  11
ATOM     11  C   UNL d   1      32.962  20.058 -21.752  0.00  0.00     0.127 C 
BRANCH  11  12
ATOM     12  C   UNL d   1      32.783  20.815 -21.486  0.00  0.00     0.119 A 
ATOM     13  O   UNL d   1      33.241  21.491 -21.577  0.00  0.00    -0.304 OA
ATOM     14  C   UNL d   1      32.845  22.123 -21.225  0.00  0.00     0.123 A 
ATOM     15  C   UNL d   1      32.140  21.836 -20.915  0.00  0.00     0.029 A 
ATOM     16  C   UNL d   1      32.098  21.031 -21.074  0.00  0.00     0.028 A 
ENDBRANCH  11  12
ENDBRANCH   9  11
ENDBRANCH   7   8
BRANCH   7  17
ATOM     17  C   UNL d   1      32.526  19.336 -24.101  0.00  0.00     0.129 C 
ATOM     18  N   UNL d   1      33.190  19.684 -24.440  0.00  0.00    -0.146 N 
ENDBRANCH   7  17
ENDBRANCH   1   7
BRANCH   2  19
ATOM     19  C   UNL d   1      30.981  17.577 -24.102  0.00  0.00     0.067 A 
ATOM     20  C   UNL d   1      30.426  17.289 -23.577  0.00  0.00     0.018 A 
ATOM     21  C   UNL d   1      29.642  17.218 -23.803  0.00  0.00     0.008 A 
ATOM     22  C   UNL d   1      29.412  17.441 -24.567  0.00  0.00     0.035 A 
ATOM     23  C   UNL d   1      29.975  17.732 -25.094  0.00  0.00     0.008 A 
ATOM     24 BR   UNL d   1      28.628  17.373 -24.801  0.00  0.00    -0.049 Br
ATOM     25  C   UNL d   1      30.758  17.800 -24.864  0.00  0.00     0.018 A 
ENDBRANCH   2  19
BRANCH   5  26
ATOM     26  C   UNL d   1      33.006  15.915 -23.756  0.00  0.00     0.011 C 
ATOM     27  C   UNL d   1      33.201  15.557 -24.475  0.00  0.00     0.001 C 
ENDBRANCH   5  26
TORSDOF 7
ENDMDL
