MODEL 1
REMARK VINA RESULT:      22.3      0.000      0.000
REMARK  2 active torsions:
REMARK  status: ('A' for Active; 'I' for Inactive)
REMARK    1  A    between atoms: C_6  and  C_4 
REMARK    2  A    between atoms: C_7  and  C_5 
ROOT
ATOM      1  O   UNL d   1     -51.884  25.142  33.691  0.00  0.00    -0.268 OA
ATOM      2  N   UNL d   1     -50.735  24.546  33.343  0.00  0.00    -0.121 NA
ATOM      3  N   UNL d   1     -51.302  23.951  33.465  0.00  0.00    -0.121 NA
ATOM      4  C   UNL d   1     -52.008  24.322  33.679  0.00  0.00     0.204 A 
ATOM      5  C   UNL d   1     -51.092  25.268  33.481  0.00  0.00     0.204 A 
ENDROOT
BRANCH   4   6
ATOM      6  C   UNL d   1     -52.726  23.943  33.855  0.00  0.00     0.046 A 
ATOM      7  C   UNL d   1     -53.338  23.939  33.307  0.00  0.00     0.024 A 
ATOM      8  C   UNL d   1     -54.041  23.565  33.484  0.00  0.00     0.099 A 
ATOM      9  N   UNL d   1     -54.140  23.191  34.212  0.00  0.00    -0.242 NA
ATOM     10  C   UNL d   1     -53.535  23.190  34.765  0.00  0.00     0.099 A 
ATOM     11  C   UNL d   1     -52.824  23.569  34.584  0.00  0.00     0.024 A 
ENDBRANCH   4   6
BRANCH   5  12
ATOM     12  C   UNL d   1     -50.727  26.014  33.422  0.00  0.00     0.043 A 
ATOM     13  C   UNL d   1     -49.907  26.071  33.391  0.00  0.00     0.004 A 
ATOM     14  C   UNL d   1     -49.550  26.806  33.333  0.00  0.00     0.000 A 
ATOM     15  C   UNL d   1     -50.015  27.487  33.307  0.00  0.00     0.000 A 
ATOM     16  C   UNL d   1     -50.836  27.431  33.339  0.00  0.00     0.000 A 
ATOM     17  C   UNL d   1     -51.194  26.690  33.397  0.00  0.00     0.004 A 
ENDBRANCH   5  12
TORSDOF 2
ENDMDL
MODEL 2
REMARK VINA RESULT:      23.5      1.212      4.042
REMARK  2 active torsions:
REMARK  status: ('A' for Active; 'I' for Inactive)
REMARK    1  A    between atoms: C_6  and  C_4 
REMARK    2  A    between atoms: C_7  and  C_5 
ROOT
ATOM      1  O   UNL d   1     -51.926  25.907  33.335  0.00  0.00    -0.268 OA
ATOM      2  N   UNL d   1     -51.045  24.897  33.308  0.00  0.00    -0.121 NA
ATOM      3  N   UNL d   1     -50.615  25.607  33.307  0.00  0.00    -0.121 NA
ATOM      4  C   UNL d   1     -51.162  26.227  33.324  0.00  0.00     0.204 A 
ATOM      5  C   UNL d   1     -51.840  25.082  33.325  0.00  0.00     0.204 A 
ENDROOT
BRANCH   4   6
ATOM      6  C   UNL d   1     -50.981  27.038  33.328  0.00  0.00     0.046 A 
ATOM      7  C   UNL d   1     -51.583  27.598  33.307  0.00  0.00     0.024 A 
ATOM      8  C   UNL d   1     -51.402  28.392  33.312  0.00  0.00     0.099 A 
ATOM      9  N   UNL d   1     -50.614  28.637  33.338  0.00  0.00    -0.242 NA
ATOM     10  C   UNL d   1     -50.007  28.087  33.359  0.00  0.00     0.099 A 
ATOM     11  C   UNL d   1     -50.194  27.283  33.354  0.00  0.00     0.024 A 
ENDBRANCH   4   6
BRANCH   5  12
ATOM     12  C   UNL d   1     -52.470  24.537  33.332  0.00  0.00     0.043 A 
ATOM     13  C   UNL d   1     -53.248  24.805  33.318  0.00  0.00     0.004 A 
ATOM     14  C   UNL d   1     -53.866  24.268  33.324  0.00  0.00     0.000 A 
ATOM     15  C   UNL d   1     -53.706  23.459  33.345  0.00  0.00     0.000 A 
ATOM     16  C   UNL d   1     -52.928  23.190  33.360  0.00  0.00     0.000 A 
ATOM     17  C   UNL d   1     -52.306  23.732  33.353  0.00  0.00     0.004 A 
ENDBRANCH   5  12
TORSDOF 2
ENDMDL
