MODEL 1
REMARK VINA RESULT:      51.4      0.000      0.000
REMARK  4 active torsions:
REMARK  status: ('A' for Active; 'I' for Inactive)
REMARK    1  A    between atoms: C_7  and  C_1 
REMARK    2  A    between atoms: N_6  and  C_3 
REMARK       I    between atoms: C_8  and  N_6 
REMARK    3  A    between atoms: C_12  and  C_8 
REMARK    4  A    between atoms: C_15  and  C_12 
ROOT
ATOM      1  C   UNL d   1      58.578  49.597  50.377  0.00  0.00     0.206 A 
ATOM      2  O   UNL d   1      59.009  49.444  51.062  0.00  0.00    -0.253 OA
ATOM      3  C   UNL d   1      59.829  49.459  50.867  0.00  0.00     0.297 A 
ATOM      4  N   UNL d   1      59.124  49.708  49.752  0.00  0.00    -0.119 NA
ATOM      5  N   UNL d   1      59.886  49.622  50.062  0.00  0.00    -0.101 NA
ENDROOT
BRANCH   3   6
ATOM      6  N   UNL d   1      60.435  49.336  51.381  0.00  0.00    -0.165 NA
ATOM      7  C   UNL d   1      61.062  48.861  51.154  0.00  0.00     0.282 C 
ATOM      8  O   UNL d   1      61.693  48.731  51.684  0.00  0.00    -0.265 OA
BRANCH   7   9
ATOM      9  C   UNL d   1      61.084  48.509  50.412  0.00  0.00     0.063 C 
BRANCH   9  10
ATOM     10  C   UNL d   1      61.268  47.710  50.331  0.00  0.00     0.005 A 
ATOM     11  C   UNL d   1      60.874  47.141  50.795  0.00  0.00     0.003 A 
ATOM     12  C   UNL d   1      61.066  46.343  50.705  0.00  0.00     0.030 A 
ATOM     13  C   UNL d   1      61.636  46.102  50.168  0.00  0.00     0.140 A 
ATOM     14  C   UNL d   1      62.026  46.665  49.708  0.00  0.00     0.030 A 
ATOM     15  F   UNL d   1      61.823  45.310  50.081  0.00  0.00    -0.204 F 
ATOM     16  C   UNL d   1      61.846  47.469  49.786  0.00  0.00     0.003 A 
ENDBRANCH   9  10
ENDBRANCH   7   9
ENDBRANCH   3   6
BRANCH   1  17
ATOM     17  C   UNL d   1      57.769  49.633  50.320  0.00  0.00     0.043 A 
ATOM     18  C   UNL d   1      57.407  49.659  49.560  0.00  0.00     0.004 A 
ATOM     19  C   UNL d   1      56.588  49.696  49.494  0.00  0.00     0.000 A 
ATOM     20  C   UNL d   1      57.870  49.649  48.886  0.00  0.00     0.000 C 
ATOM     21  C   UNL d   1      56.115  49.707  50.175  0.00  0.00     0.000 A 
ATOM     22  C   UNL d   1      56.484  49.681  50.926  0.00  0.00     0.000 A 
ATOM     23  C   UNL d   1      57.311  49.644  50.981  0.00  0.00     0.004 A 
ATOM     24  C   UNL d   1      56.033  49.691  51.617  0.00  0.00     0.000 C 
ENDBRANCH   1  17
TORSDOF 4
ENDMDL
