MODEL 1
REMARK VINA RESULT:       0.7      0.000      0.000
REMARK  11 active torsions:
REMARK  status: ('A' for Active; 'I' for Inactive)
REMARK    1  A    between atoms: C_8  and  C_1 
REMARK    2  A    between atoms: C_6  and  N_7 
REMARK    3  A    between atoms: N_19  and  C_6 
REMARK    4  A    between atoms: N_7  and  C_14 
REMARK    5  A    between atoms: C_11  and  N_7 
REMARK    6  A    between atoms: C_14  and  C_8 
REMARK    7  A    between atoms: C_9  and  C_11 
REMARK    8  A    between atoms: C_25  and  N_19 
REMARK    9  A    between atoms: O_23  and  C_20 
REMARK   10  A    between atoms: O_24  and  C_26 
REMARK   11  A    between atoms: C_26  and  C_25 
ROOT
ATOM      1  N   UNL d   1      32.523  18.407 -24.002  0.00  0.00    -0.279 N 
ENDROOT
BRANCH   1   2
ATOM      2  C   UNL d   1      32.979  17.769 -24.253  0.00  0.00     0.206 C 
ATOM      3  S   UNL d   1      33.240  17.734 -25.039  0.00  0.00    -0.038 SA
BRANCH   2   4
ATOM      4  N   UNL d   1      33.177  17.165 -23.725  0.00  0.00    -0.215 NA
BRANCH   4   5
ATOM      5  C   UNL d   1      33.083  16.378 -23.956  0.00  0.00     0.128 C 
BRANCH   5   6
ATOM      6  C   UNL d   1      32.990  15.789 -23.390  0.00  0.00     0.137 C 
BRANCH   6   7
ATOM      7  O   UNL d   1      32.717  15.985 -22.638  0.00  0.00    -0.325 OA
ATOM      8  C   UNL d   1      32.257  15.454 -22.221  0.00  0.00     0.182 C 
ENDBRANCH   6   7
ENDBRANCH   5   6
ENDBRANCH   4   5
ENDBRANCH   2   4
ENDBRANCH   1   2
BRANCH   1   9
ATOM      9  C   UNL d   1      32.660  18.747 -23.251  0.00  0.00     0.082 C 
BRANCH   9  10
ATOM     10  C   UNL d   1      33.229  19.342 -23.161  0.00  0.00     0.021 C 
BRANCH  10  11
ATOM     11  C   UNL d   1      33.206  19.843 -22.511  0.00  0.00     0.021 A 
ATOM     12  C   UNL d   1      33.211  19.611 -21.706  0.00  0.00     0.082 A 
ATOM     13  N   UNL d   1      33.182  20.295 -21.247  0.00  0.00    -0.246 NA
ATOM     14  C   UNL d   1      33.239  18.831 -21.431  0.00  0.00     0.021 C 
ATOM     15  C   UNL d   1      33.160  20.949 -21.749  0.00  0.00     0.082 A 
ATOM     16  C   UNL d   1      33.175  20.666 -22.529  0.00  0.00     0.021 A 
ATOM     17  C   UNL d   1      33.128  21.759 -21.604  0.00  0.00     0.021 A 
ATOM     18  C   UNL d   1      33.159  21.202 -23.152  0.00  0.00     0.026 A 
ATOM     19  C   UNL d   1      33.127  22.015 -23.008  0.00  0.00     0.094 A 
ATOM     20  C   UNL d   1      33.112  22.286 -22.228  0.00  0.00     0.026 A 
BRANCH  19  21
ATOM     21  O   UNL d   1      33.110  22.550 -23.636  0.00  0.00    -0.328 OA
ATOM     22  C   UNL d   1      32.999  23.358 -23.482  0.00  0.00     0.181 C 
ENDBRANCH  19  21
ENDBRANCH  10  11
ENDBRANCH   9  10
ENDBRANCH   1   9
BRANCH   1  23
ATOM     23  C   UNL d   1      31.935  18.706 -24.489  0.00  0.00     0.107 C 
BRANCH  23  24
ATOM     24  C   UNL d   1      31.154  18.421 -24.423  0.00  0.00     0.118 A 
ATOM     25  O   UNL d   1      30.719  18.350 -23.720  0.00  0.00    -0.304 OA
ATOM     26  C   UNL d   1      29.974  18.044 -23.912  0.00  0.00     0.123 A 
ATOM     27  C   UNL d   1      29.954  17.929 -24.720  0.00  0.00     0.029 A 
ATOM     28  C   UNL d   1      30.688  18.164 -25.030  0.00  0.00     0.028 A 
ENDBRANCH  23  24
ENDBRANCH   1  23
TORSDOF 11
ENDMDL
