MODEL 1
REMARK VINA RESULT:      18.2      0.000      0.000
REMARK  7 active torsions:
REMARK  status: ('A' for Active; 'I' for Inactive)
REMARK    1  A    between atoms: N_7  and  S_1 
REMARK    2  A    between atoms: C_19  and  S_1 
REMARK    3  A    between atoms: N_2  and  C_3 
REMARK    4  A    between atoms: C_3  and  C_6 
REMARK    5  A    between atoms: C_5  and  C_3 
REMARK    6  A    between atoms: C_16  and  N_4 
REMARK    7  A    between atoms: C_6  and  N_7 
ROOT
ATOM      1  C   UNL d   1      46.422 -18.423  43.351  0.00  0.00     0.107 C 
ENDROOT
BRANCH   1   2
ATOM      2  N   UNL d   1      46.216 -17.670  43.617  0.00  0.00    -0.298 N 
ATOM      3  C   UNL d   1      46.143 -17.048  43.079  0.00  0.00     0.100 A 
ATOM      4  C   UNL d   1      45.937 -16.298  43.349  0.00  0.00     0.100 A 
ATOM      5  N   UNL d   1      45.805 -16.162  44.150  0.00  0.00    -0.301 N 
ATOM      6  C   UNL d   1      45.878 -16.784  44.687  0.00  0.00     0.100 A 
ATOM      7  C   UNL d   1      46.084 -17.537  44.421  0.00  0.00     0.100 A 
BRANCH   5   8
ATOM      8  C   UNL d   1      45.600 -15.415  44.415  0.00  0.00     0.064 A 
ATOM      9  C   UNL d   1      44.825 -15.247  44.621  0.00  0.00     0.018 A 
ATOM     10  C   UNL d   1      44.617 -14.497  44.888  0.00  0.00     0.002 A 
ATOM     11  C   UNL d   1      45.194 -13.910  44.949  0.00  0.00     0.000 A 
ATOM     12  C   UNL d   1      45.976 -14.077  44.742  0.00  0.00     0.002 A 
ATOM     13  C   UNL d   1      46.177 -14.828  44.476  0.00  0.00     0.018 A 
ENDBRANCH   5   8
ENDBRANCH   1   2
BRANCH   1  14
ATOM     14  C   UNL d   1      46.588 -18.565  42.554  0.00  0.00     0.132 C 
BRANCH  14  15
ATOM     15  N   UNL d   1      46.311 -19.274  42.199  0.00  0.00    -0.155 NA
BRANCH  15  16
ATOM     16  S   UNL d   1      46.475 -19.425  41.409  0.00  0.00     0.286 S 
ATOM     17  O   UNL d   1      46.454 -20.241  41.557  0.00  0.00    -0.198 OA
ATOM     18  O   UNL d   1      46.494 -18.607  41.265  0.00  0.00    -0.198 OA
BRANCH  16  19
ATOM     19  C   UNL d   1      46.640 -19.567  40.610  0.00  0.00     0.117 C 
ATOM     20  C   UNL d   1      46.285 -20.207  40.226  0.00  0.00     0.014 C 
ENDBRANCH  16  19
ENDBRANCH  15  16
ENDBRANCH  14  15
ENDBRANCH   1  14
BRANCH   1  21
ATOM     21  C   UNL d   1      46.465 -19.059  43.896  0.00  0.00     0.118 A 
ATOM     22  O   UNL d   1      46.611 -19.824  43.632  0.00  0.00    -0.304 OA
ATOM     23  C   UNL d   1      46.622 -20.326  44.293  0.00  0.00     0.123 A 
ATOM     24  C   UNL d   1      46.483 -19.871  44.955  0.00  0.00     0.029 A 
ATOM     25  C   UNL d   1      46.386 -19.086  44.712  0.00  0.00     0.028 A 
ENDBRANCH   1  21
TORSDOF 7
ENDMDL
