MODEL 1
REMARK VINA RESULT:      37.7      0.000      0.000
REMARK  8 active torsions:
REMARK  status: ('A' for Active; 'I' for Inactive)
REMARK    1  A    between atoms: C_6  and  N_1 
REMARK    2  A    between atoms: C_7  and  C_6 
REMARK    3  A    between atoms: C_12  and  C_7 
REMARK    4  A    between atoms: C_8  and  C_19 
REMARK    5  A    between atoms: C_9  and  C_20 
REMARK    6  A    between atoms: N_13  and  C_12 
REMARK    7  A    between atoms: C_19  and  N_13 
REMARK    8  A    between atoms: C_20  and  N_13 
ROOT
ATOM      1  N   UNL d   1      14.549  13.148  -2.152  0.00  0.00    -0.303 N 
ATOM      2  C   UNL d   1      14.035  12.794  -2.701  0.00  0.00     0.064 A 
ATOM      3  C   UNL d   1      14.413  12.793  -1.412  0.00  0.00     0.064 A 
ATOM      4  C   UNL d   1      13.820  12.223  -1.501  0.00  0.00     0.018 A 
ATOM      5  C   UNL d   1      13.581  12.219  -2.299  0.00  0.00     0.018 A 
ATOM      6  C   UNL d   1      14.755  12.920  -0.673  0.00  0.00     0.018 A 
ATOM      7  C   UNL d   1      13.921  12.917  -3.509  0.00  0.00     0.018 A 
ATOM      8  C   UNL d   1      13.569  11.779  -0.850  0.00  0.00     0.002 A 
ATOM      9  C   UNL d   1      13.024  11.779  -2.708  0.00  0.00     0.002 A 
ATOM     10  C   UNL d   1      12.908  11.899  -3.511  0.00  0.00     0.000 A 
ATOM     11  C   UNL d   1      13.356  12.468  -3.913  0.00  0.00     0.002 A 
ATOM     12  C   UNL d   1      14.503  12.472  -0.014  0.00  0.00     0.002 A 
ATOM     13  C   UNL d   1      13.909  11.903  -0.111  0.00  0.00     0.000 A 
ENDROOT
BRANCH   1  14
ATOM     14  C   UNL d   1      15.094  13.743  -2.308  0.00  0.00     0.124 C 
BRANCH  14  15
ATOM     15  C   UNL d   1      14.756  14.459  -2.084  0.00  0.00     0.231 C 
ATOM     16  O   UNL d   1      14.630  14.498  -1.266  0.00  0.00    -0.283 OA
BRANCH  15  17
ATOM     17  C   UNL d   1      14.513  15.144  -2.473  0.00  0.00     0.124 C 
BRANCH  17  18
ATOM     18  N   UNL d   1      14.880  15.860  -2.312  0.00  0.00    -0.300 N 
BRANCH  18  19
ATOM     19  C   UNL d   1      14.957  16.426  -2.909  0.00  0.00     0.080 C 
BRANCH  19  20
ATOM     20  C   UNL d   1      14.718  16.251  -3.681  0.00  0.00     0.019 C 
ATOM     21  C   UNL d   1      14.731  16.655  -4.399  0.00  0.00     0.002 C 
ENDBRANCH  19  20
ENDBRANCH  18  19
BRANCH  18  22
ATOM     22  C   UNL d   1      15.171  16.017  -1.561  0.00  0.00     0.080 C 
BRANCH  22  23
ATOM     23  C   UNL d   1      15.044  16.753  -1.214  0.00  0.00     0.019 C 
ATOM     24  C   UNL d   1      15.438  17.199  -0.642  0.00  0.00     0.002 C 
ENDBRANCH  22  23
ENDBRANCH  18  22
ENDBRANCH  17  18
ENDBRANCH  15  17
ENDBRANCH  14  15
ENDBRANCH   1  14
TORSDOF 8
ENDMDL
MODEL 2
REMARK VINA RESULT:      38.4      1.367      3.538
REMARK  8 active torsions:
REMARK  status: ('A' for Active; 'I' for Inactive)
REMARK    1  A    between atoms: C_6  and  N_1 
REMARK    2  A    between atoms: C_7  and  C_6 
REMARK    3  A    between atoms: C_12  and  C_7 
REMARK    4  A    between atoms: C_8  and  C_19 
REMARK    5  A    between atoms: C_9  and  C_20 
REMARK    6  A    between atoms: N_13  and  C_12 
REMARK    7  A    between atoms: C_19  and  N_13 
REMARK    8  A    between atoms: C_20  and  N_13 
ROOT
ATOM      1  N   UNL d   1      13.512  13.592  -3.172  0.00  0.00    -0.303 N 
ATOM      2  C   UNL d   1      13.805  14.312  -3.466  0.00  0.00     0.064 A 
ATOM      3  C   UNL d   1      13.357  13.097  -3.822  0.00  0.00     0.064 A 
ATOM      4  C   UNL d   1      13.552  13.506  -4.514  0.00  0.00     0.018 A 
ATOM      5  C   UNL d   1      13.831  14.261  -4.300  0.00  0.00     0.018 A 
ATOM      6  C   UNL d   1      13.064  12.327  -3.867  0.00  0.00     0.018 A 
ATOM      7  C   UNL d   1      14.050  15.003  -3.089  0.00  0.00     0.018 A 
ATOM      8  C   UNL d   1      13.454  13.145  -5.252  0.00  0.00     0.002 A 
ATOM      9  C   UNL d   1      14.099  14.897  -4.739  0.00  0.00     0.002 A 
ATOM     10  C   UNL d   1      14.343  15.587  -4.368  0.00  0.00     0.000 A 
ATOM     11  C   UNL d   1      14.319  15.641  -3.541  0.00  0.00     0.002 A 
ATOM     12  C   UNL d   1      12.964  11.961  -4.611  0.00  0.00     0.002 A 
ATOM     13  C   UNL d   1      13.161  12.377  -5.300  0.00  0.00     0.000 A 
ENDROOT
BRANCH   1  14
ATOM     14  C   UNL d   1      13.395  13.400  -2.381  0.00  0.00     0.124 C 
BRANCH  14  15
ATOM     15  C   UNL d   1      14.131  13.237  -2.051  0.00  0.00     0.231 C 
ATOM     16  O   UNL d   1      14.428  12.506  -2.302  0.00  0.00    -0.283 OA
BRANCH  15  17
ATOM     17  C   UNL d   1      14.643  13.624  -1.533  0.00  0.00     0.124 C 
BRANCH  17  18
ATOM     18  N   UNL d   1      14.766  13.326  -0.778  0.00  0.00    -0.300 N 
BRANCH  18  19
ATOM     19  C   UNL d   1      14.801  12.508  -0.660  0.00  0.00     0.080 C 
BRANCH  19  20
ATOM     20  C   UNL d   1      14.357  12.156  -0.058  0.00  0.00     0.019 C 
ATOM     21  C   UNL d   1      13.619  11.791  -0.020  0.00  0.00     0.002 C 
ENDBRANCH  19  20
ENDBRANCH  18  19
BRANCH  18  22
ATOM     22  C   UNL d   1      14.853  13.834  -0.140  0.00  0.00     0.080 C 
BRANCH  22  23
ATOM     23  C   UNL d   1      15.275  14.537  -0.226  0.00  0.00     0.019 C 
ATOM     24  C   UNL d   1      16.071  14.744  -0.170  0.00  0.00     0.002 C 
ENDBRANCH  22  23
ENDBRANCH  18  22
ENDBRANCH  17  18
ENDBRANCH  15  17
ENDBRANCH  14  15
ENDBRANCH   1  14
TORSDOF 8
ENDMDL
