MODEL 1
REMARK VINA RESULT:      40.0      0.000      0.000
REMARK  4 active torsions:
REMARK  status: ('A' for Active; 'I' for Inactive)
REMARK    1  A    between atoms: C_2  and  S_1 
REMARK    2  A    between atoms: N_3  and  S_1 
REMARK    3  A    between atoms: C_4  and  C_9 
REMARK       I    between atoms: N_5  and  C_4 
REMARK    4  A    between atoms: C_6  and  N_5 
ROOT
ATOM      1  C   UNL d   1      14.428  13.106  -1.446  0.00  0.00     0.104 A 
ATOM      2  C   UNL d   1      14.690  13.879  -1.353  0.00  0.00     0.018 A 
ATOM      3  C   UNL d   1      15.037  14.112  -0.645  0.00  0.00     0.059 A 
ATOM      4  C   UNL d   1      14.516  12.562  -0.825  0.00  0.00     0.012 A 
ATOM      5  C   UNL d   1      15.125  13.573  -0.027  0.00  0.00     0.005 A 
ATOM      6  C   UNL d   1      14.862  12.797  -0.121  0.00  0.00     0.001 A 
ATOM      7  C   UNL d   1      14.253  11.780  -0.915  0.00  0.00     0.001 C 
ENDROOT
BRANCH   1   8
ATOM      8  S   UNL d   1      14.082  12.871  -2.150  0.00  0.00     0.271 S 
ATOM      9  O   UNL d   1      13.631  13.560  -2.148  0.00  0.00    -0.200 OA
ATOM     10  O   UNL d   1      14.534  12.188  -2.145  0.00  0.00    -0.200 OA
BRANCH   8  11
ATOM     11  N   UNL d   1      13.728  12.644  -2.856  0.00  0.00    -0.229 N 
ATOM     12  C   UNL d   1      14.031  13.073  -3.531  0.00  0.00     0.092 A 
ATOM     13  C   UNL d   1      13.895  13.065  -4.234  0.00  0.00     0.020 A 
ATOM     14  C   UNL d   1      13.342  12.580  -4.623  0.00  0.00     0.002 A 
ATOM     15  C   UNL d   1      12.823  11.989  -4.250  0.00  0.00     0.002 A 
ATOM     16  C   UNL d   1      12.770  11.779  -3.394  0.00  0.00     0.020 A 
ATOM     17  C   UNL d   1      13.220  12.118  -2.772  0.00  0.00     0.092 A 
ENDBRANCH   8  11
ENDBRANCH   1   8
BRANCH   3  18
ATOM     18  C   UNL d   1      15.297  14.881  -0.553  0.00  0.00     0.281 C 
ATOM     19  N   UNL d   1      14.991  15.478  -1.024  0.00  0.00    -0.187 NA
ATOM     20  O   UNL d   1      15.766  14.899  -0.056  0.00  0.00    -0.265 OA
BRANCH  19  21
ATOM     21  C   UNL d   1      15.256  16.262  -0.930  0.00  0.00     0.194 A 
ATOM     22  N   UNL d   1      15.806  16.517  -0.371  0.00  0.00    -0.106 NA
ATOM     23  O   UNL d   1      15.907  17.341  -0.474  0.00  0.00    -0.207 OA
ATOM     24  C   UNL d   1      15.419  17.580  -1.094  0.00  0.00     0.153 A 
ATOM     25  C   UNL d   1      15.014  16.915  -1.379  0.00  0.00     0.070 A 
ENDBRANCH  19  21
ENDBRANCH   3  18
TORSDOF 4
ENDMDL
MODEL 2
REMARK VINA RESULT:      42.7      2.023      3.388
REMARK  4 active torsions:
REMARK  status: ('A' for Active; 'I' for Inactive)
REMARK    1  A    between atoms: C_2  and  S_1 
REMARK    2  A    between atoms: N_3  and  S_1 
REMARK    3  A    between atoms: C_4  and  C_9 
REMARK       I    between atoms: N_5  and  C_4 
REMARK    4  A    between atoms: C_6  and  N_5 
ROOT
ATOM      1  C   UNL d   1      13.592  13.013  -3.134  0.00  0.00     0.104 A 
ATOM      2  C   UNL d   1      13.819  13.767  -3.367  0.00  0.00     0.018 A 
ATOM      3  C   UNL d   1      13.592  14.055  -4.102  0.00  0.00     0.059 A 
ATOM      4  C   UNL d   1      13.133  12.544  -3.642  0.00  0.00     0.012 A 
ATOM      5  C   UNL d   1      13.136  13.590  -4.608  0.00  0.00     0.005 A 
ATOM      6  C   UNL d   1      12.908  12.833  -4.374  0.00  0.00     0.001 A 
ATOM      7  C   UNL d   1      12.902  11.781  -3.410  0.00  0.00     0.001 C 
ENDROOT
BRANCH   1   8
ATOM      8  S   UNL d   1      13.817  12.723  -2.402  0.00  0.00     0.271 S 
ATOM      9  O   UNL d   1      13.992  13.491  -2.161  0.00  0.00    -0.200 OA
ATOM     10  O   UNL d   1      13.641  11.962  -2.649  0.00  0.00    -0.200 OA
BRANCH   8  11
ATOM     11  N   UNL d   1      14.045  12.443  -1.664  0.00  0.00    -0.229 N 
ATOM     12  C   UNL d   1      14.886  12.516  -1.527  0.00  0.00     0.092 A 
ATOM     13  C   UNL d   1      15.324  12.352  -0.984  0.00  0.00     0.020 A 
ATOM     14  C   UNL d   1      15.101  12.007  -0.261  0.00  0.00     0.002 A 
ATOM     15  C   UNL d   1      14.295  11.779  -0.024  0.00  0.00     0.002 A 
ATOM     16  C   UNL d   1      13.551  11.863  -0.491  0.00  0.00     0.020 A 
ATOM     17  C   UNL d   1      13.484  12.183  -1.263  0.00  0.00     0.092 A 
ENDBRANCH   8  11
ENDBRANCH   1   8
BRANCH   3  18
ATOM     18  C   UNL d   1      13.818  14.805  -4.334  0.00  0.00     0.281 C 
ATOM     19  N   UNL d   1      14.482  15.154  -4.004  0.00  0.00    -0.187 NA
ATOM     20  O   UNL d   1      13.378  15.035  -4.804  0.00  0.00    -0.265 OA
BRANCH  19  21
ATOM     21  C   UNL d   1      14.713  15.919  -4.240  0.00  0.00     0.194 A 
ATOM     22  N   UNL d   1      14.954  16.132  -4.999  0.00  0.00    -0.106 NA
ATOM     23  O   UNL d   1      15.134  16.949  -4.986  0.00  0.00    -0.207 OA
ATOM     24  C   UNL d   1      15.000  17.226  -4.221  0.00  0.00     0.153 A 
ATOM     25  C   UNL d   1      14.740  16.591  -3.756  0.00  0.00     0.070 A 
ENDBRANCH  19  21
ENDBRANCH   3  18
TORSDOF 4
ENDMDL
