MODEL 1
REMARK VINA RESULT:      -4.8      0.000      0.000
REMARK  2 active torsions:
REMARK  status: ('A' for Active; 'I' for Inactive)
REMARK    1  A    between atoms: C_6  and  C_3 
REMARK    2  A    between atoms: C_9  and  C_6 
ROOT
ATOM      1  C   UNL d   1     -41.123-122.442 -53.151  0.00  0.00     0.011 C 
ENDROOT
BRANCH   1   2
ATOM      2  C   UNL d   1     -41.643-122.441 -53.806  0.00  0.00     0.092 A 
ATOM      3  C   UNL d   1     -41.664-122.942 -54.427  0.00  0.00     0.288 A 
ATOM      4  N   UNL d   1     -42.257-122.725 -54.917  0.00  0.00    -0.163 NA
ATOM      5  O   UNL d   1     -41.125-123.607 -54.534  0.00  0.00    -0.265 OA
ATOM      6  C   UNL d   1     -42.609-122.049 -54.560  0.00  0.00     0.313 A 
ATOM      7  S   UNL d   1     -42.204-121.907 -53.880  0.00  0.00    -0.021 SA
ATOM      8  O   UNL d   1     -43.264-121.620 -54.878  0.00  0.00    -0.258 OA
ENDBRANCH   1   2
BRANCH   1   9
ATOM      9  C   UNL d   1     -41.366-122.548 -52.368  0.00  0.00     0.001 A 
ATOM     10  C   UNL d   1     -41.511-123.287 -52.031  0.00  0.00     0.001 A 
ATOM     11  C   UNL d   1     -41.746-123.349 -51.266  0.00  0.00     0.011 A 
ATOM     12  C   UNL d   1     -41.850-122.657 -50.788  0.00  0.00     0.058 A 
ATOM     13  C   UNL d   1     -41.705-121.918 -51.125  0.00  0.00     0.011 A 
ATOM     14 CL   UNL d   1     -42.092-122.703 -49.999  0.00  0.00    -0.082 Cl
ATOM     15  C   UNL d   1     -41.459-121.859 -51.926  0.00  0.00     0.001 A 
ENDBRANCH   1   9
TORSDOF 2
ENDMDL
MODEL 2
REMARK VINA RESULT:      -4.8      1.724      2.453
REMARK  2 active torsions:
REMARK  status: ('A' for Active; 'I' for Inactive)
REMARK    1  A    between atoms: C_6  and  C_3 
REMARK    2  A    between atoms: C_9  and  C_6 
ROOT
ATOM      1  C   UNL d   1     -41.140-122.084 -50.879  0.00  0.00     0.011 C 
ENDROOT
BRANCH   1   2
ATOM      2  C   UNL d   1     -41.134-122.292 -51.689  0.00  0.00     0.092 A 
ATOM      3  C   UNL d   1     -41.127-121.812 -52.327  0.00  0.00     0.288 A 
ATOM      4  N   UNL d   1     -41.123-122.259 -52.989  0.00  0.00    -0.163 NA
ATOM      5  O   UNL d   1     -41.124-120.950 -52.287  0.00  0.00    -0.265 OA
ATOM      6  C   UNL d   1     -41.127-123.057 -52.724  0.00  0.00     0.313 A 
ATOM      7  S   UNL d   1     -41.134-123.034 -51.919  0.00  0.00    -0.021 SA
ATOM      8  O   UNL d   1     -41.126-123.735 -53.227  0.00  0.00    -0.258 OA
ENDBRANCH   1   2
BRANCH   1   9
ATOM      9  C   UNL d   1     -41.598-122.466 -50.308  0.00  0.00     0.001 A 
ATOM     10  C   UNL d   1     -42.406-122.334 -50.206  0.00  0.00     0.001 A 
ATOM     11  C   UNL d   1     -42.817-122.726 -49.638  0.00  0.00     0.011 A 
ATOM     12  C   UNL d   1     -42.429-123.285 -49.131  0.00  0.00     0.058 A 
ATOM     13  C   UNL d   1     -41.622-123.417 -49.233  0.00  0.00     0.011 A 
ATOM     14 CL   UNL d   1     -42.837-123.697 -48.542  0.00  0.00    -0.082 Cl
ATOM     15  C   UNL d   1     -41.196-123.003 -49.829  0.00  0.00     0.001 A 
ENDBRANCH   1   9
TORSDOF 2
ENDMDL
MODEL 3
REMARK VINA RESULT:      -4.3      2.444      3.393
REMARK  2 active torsions:
REMARK  status: ('A' for Active; 'I' for Inactive)
REMARK    1  A    between atoms: C_6  and  C_3 
REMARK    2  A    between atoms: C_9  and  C_6 
ROOT
ATOM      1  C   UNL d   1     -41.123-121.926 -52.797  0.00  0.00     0.011 C 
ENDROOT
BRANCH   1   2
ATOM      2  C   UNL d   1     -41.418-122.235 -52.077  0.00  0.00     0.092 A 
ATOM      3  C   UNL d   1     -41.503-121.867 -51.374  0.00  0.00     0.288 A 
ATOM      4  N   UNL d   1     -41.809-122.384 -50.846  0.00  0.00    -0.163 NA
ATOM      5  O   UNL d   1     -41.292-121.044 -51.227  0.00  0.00    -0.265 OA
ATOM      6  C   UNL d   1     -41.911-123.104 -51.267  0.00  0.00     0.313 A 
ATOM      7  S   UNL d   1     -41.660-122.972 -52.020  0.00  0.00    -0.021 SA
ATOM      8  O   UNL d   1     -42.222-123.817 -50.938  0.00  0.00    -0.258 OA
ENDBRANCH   1   2
BRANCH   1   9
ATOM      9  C   UNL d   1     -41.468-122.062 -53.534  0.00  0.00     0.001 A 
ATOM     10  C   UNL d   1     -41.226-122.660 -54.049  0.00  0.00     0.001 A 
ATOM     11  C   UNL d   1     -41.588-122.761 -54.759  0.00  0.00     0.011 A 
ATOM     12  C   UNL d   1     -42.226-122.255 -54.995  0.00  0.00     0.058 A 
ATOM     13  C   UNL d   1     -42.467-121.657 -54.481  0.00  0.00     0.011 A 
ATOM     14 CL   UNL d   1     -42.609-122.345 -55.722  0.00  0.00    -0.082 Cl
ATOM     15  C   UNL d   1     -42.085-121.556 -53.739  0.00  0.00     0.001 A 
ENDBRANCH   1   9
TORSDOF 2
ENDMDL
MODEL 4
REMARK VINA RESULT:      -4.3      2.937      3.716
REMARK  2 active torsions:
REMARK  status: ('A' for Active; 'I' for Inactive)
REMARK    1  A    between atoms: C_6  and  C_3 
REMARK    2  A    between atoms: C_9  and  C_6 
ROOT
ATOM      1  C   UNL d   1     -41.125-122.830 -50.735  0.00  0.00     0.011 C 
ENDROOT
BRANCH   1   2
ATOM      2  C   UNL d   1     -41.779-122.925 -50.222  0.00  0.00     0.092 A 
ATOM      3  C   UNL d   1     -41.827-123.353 -49.550  0.00  0.00     0.288 A 
ATOM      4  N   UNL d   1     -42.563-123.279 -49.247  0.00  0.00    -0.163 NA
ATOM      5  O   UNL d   1     -41.178-123.816 -49.221  0.00  0.00    -0.265 OA
ATOM      6  C   UNL d   1     -42.976-122.773 -49.776  0.00  0.00     0.313 A 
ATOM      7  S   UNL d   1     -42.460-122.577 -50.362  0.00  0.00    -0.021 SA
ATOM      8  O   UNL d   1     -43.780-122.531 -49.686  0.00  0.00    -0.258 OA
ENDBRANCH   1   2
BRANCH   1   9
ATOM      9  C   UNL d   1     -41.169-122.901 -51.557  0.00  0.00     0.001 A 
ATOM     10  C   UNL d   1     -41.253-122.258 -52.068  0.00  0.00     0.001 A 
ATOM     11  C   UNL d   1     -41.292-122.368 -52.862  0.00  0.00     0.011 A 
ATOM     12  C   UNL d   1     -41.247-123.148 -53.194  0.00  0.00     0.058 A 
ATOM     13  C   UNL d   1     -41.163-123.790 -52.683  0.00  0.00     0.011 A 
ATOM     14 CL   UNL d   1     -41.285-123.279 -54.009  0.00  0.00    -0.082 Cl
ATOM     15  C   UNL d   1     -41.123-123.669 -51.852  0.00  0.00     0.001 A 
ENDBRANCH   1   9
TORSDOF 2
ENDMDL
MODEL 5
REMARK VINA RESULT:      -3.3      3.206      4.137
REMARK  2 active torsions:
REMARK  status: ('A' for Active; 'I' for Inactive)
REMARK    1  A    between atoms: C_6  and  C_3 
REMARK    2  A    between atoms: C_9  and  C_6 
ROOT
ATOM      1  C   UNL d   1     -41.704-122.263 -50.465  0.00  0.00     0.011 C 
ENDROOT
BRANCH   1   2
ATOM      2  C   UNL d   1     -41.860-122.679 -49.756  0.00  0.00     0.092 A 
ATOM      3  C   UNL d   1     -42.559-122.796 -49.390  0.00  0.00     0.288 A 
ATOM      4  N   UNL d   1     -42.437-123.227 -48.727  0.00  0.00    -0.163 NA
ATOM      5  O   UNL d   1     -43.315-122.497 -49.678  0.00  0.00    -0.265 OA
ATOM      6  C   UNL d   1     -41.609-123.374 -48.702  0.00  0.00     0.313 A 
ATOM      7  S   UNL d   1     -41.290-123.021 -49.351  0.00  0.00    -0.021 SA
ATOM      8  O   UNL d   1     -41.214-123.812 -48.098  0.00  0.00    -0.258 OA
ENDBRANCH   1   2
BRANCH   1   9
ATOM      9  C   UNL d   1     -41.551-122.628 -51.190  0.00  0.00     0.001 A 
ATOM     10  C   UNL d   1     -41.333-123.420 -51.267  0.00  0.00     0.001 A 
ATOM     11  C   UNL d   1     -41.192-123.738 -51.990  0.00  0.00     0.011 A 
ATOM     12  C   UNL d   1     -41.264-123.267 -52.692  0.00  0.00     0.058 A 
ATOM     13  C   UNL d   1     -41.482-122.475 -52.615  0.00  0.00     0.011 A 
ATOM     14 CL   UNL d   1     -41.123-123.579 -53.444  0.00  0.00    -0.082 Cl
ATOM     15  C   UNL d   1     -41.628-122.147 -51.855  0.00  0.00     0.001 A 
ENDBRANCH   1   9
TORSDOF 2
ENDMDL
