MODEL 1
REMARK VINA RESULT:      -7.5      0.000      0.000
REMARK  4 active torsions:
REMARK  status: ('A' for Active; 'I' for Inactive)
REMARK    1  A    between atoms: C_6  and  C_2 
REMARK    2  A    between atoms: C_8  and  N_3 
REMARK       I    between atoms: N_7  and  C_6 
REMARK    3  A    between atoms: C_16  and  N_7 
REMARK    4  A    between atoms: C_9  and  C_16 
ROOT
ATOM      1  C   UNL d   1     -48.165  12.308  22.991  0.00  0.00     0.211 A 
ATOM      2  C   UNL d   1     -47.420  12.235  23.349  0.00  0.00     0.199 A 
ATOM      3  N   UNL d   1     -48.344  13.107  22.918  0.00  0.00    -0.191 N 
ATOM      4  N   UNL d   1     -47.707  13.528  23.234  0.00  0.00    -0.058 NA
ATOM      5  N   UNL d   1     -47.143  12.984  23.497  0.00  0.00    -0.122 NA
ATOM      6  N   UNL d   1     -48.650  11.687  22.745  0.00  0.00    -0.125 N 
ENDROOT
BRANCH   2   7
ATOM      7  C   UNL d   1     -47.039  11.524  23.521  0.00  0.00     0.302 C 
ATOM      8  N   UNL d   1     -46.220  11.483  23.524  0.00  0.00    -0.203 NA
ATOM      9  O   UNL d   1     -47.491  10.854  23.690  0.00  0.00    -0.263 OA
BRANCH   8  10
ATOM     10  C   UNL d   1     -45.840  10.765  23.698  0.00  0.00     0.127 C 
BRANCH  10  11
ATOM     11  C   UNL d   1     -45.034  10.682  23.574  0.00  0.00     0.119 A 
ATOM     12  O   UNL d   1     -44.516  11.282  23.305  0.00  0.00    -0.304 OA
ATOM     13  C   UNL d   1     -43.763  10.959  23.261  0.00  0.00     0.123 A 
ATOM     14  C   UNL d   1     -43.811  10.155  23.504  0.00  0.00     0.029 A 
ATOM     15  C   UNL d   1     -44.586  10.002  23.691  0.00  0.00     0.028 A 
ENDBRANCH  10  11
ENDBRANCH   8  10
ENDBRANCH   2   7
BRANCH   3  16
ATOM     16  C   UNL d   1     -49.029  13.432  22.593  0.00  0.00     0.086 A 
ATOM     17  C   UNL d   1     -49.150  13.396  21.776  0.00  0.00     0.019 A 
ATOM     18  C   UNL d   1     -49.836  13.721  21.452  0.00  0.00     0.002 A 
ATOM     19  C   UNL d   1     -50.398  14.081  21.941  0.00  0.00     0.000 A 
ATOM     20  C   UNL d   1     -50.269  14.113  22.756  0.00  0.00     0.002 A 
ATOM     21  C   UNL d   1     -49.585  13.788  23.085  0.00  0.00     0.019 A 
ENDBRANCH   3  16
TORSDOF 4
ENDMDL
MODEL 2
REMARK VINA RESULT:      -7.2      1.776      2.188
REMARK  4 active torsions:
REMARK  status: ('A' for Active; 'I' for Inactive)
REMARK    1  A    between atoms: C_6  and  C_2 
REMARK    2  A    between atoms: C_8  and  N_3 
REMARK       I    between atoms: N_7  and  C_6 
REMARK    3  A    between atoms: C_16  and  N_7 
REMARK    4  A    between atoms: C_9  and  C_16 
ROOT
ATOM      1  C   UNL d   1     -47.761  12.792  23.011  0.00  0.00     0.211 A 
ATOM      2  C   UNL d   1     -46.998  12.521  23.195  0.00  0.00     0.199 A 
ATOM      3  N   UNL d   1     -48.297  12.186  23.155  0.00  0.00    -0.191 N 
ATOM      4  N   UNL d   1     -47.863  11.539  23.430  0.00  0.00    -0.058 NA
ATOM      5  N   UNL d   1     -47.065  11.753  23.452  0.00  0.00    -0.122 NA
ATOM      6  N   UNL d   1     -47.955  13.543  22.729  0.00  0.00    -0.125 N 
ENDROOT
BRANCH   2   7
ATOM      7  C   UNL d   1     -46.304  12.960  23.127  0.00  0.00     0.302 C 
ATOM      8  N   UNL d   1     -45.728  12.745  22.584  0.00  0.00    -0.203 NA
ATOM      9  O   UNL d   1     -46.194  13.620  23.611  0.00  0.00    -0.263 OA
BRANCH   8  10
ATOM     10  C   UNL d   1     -45.030  13.190  22.519  0.00  0.00     0.127 C 
BRANCH  10  11
ATOM     11  C   UNL d   1     -44.388  12.895  22.105  0.00  0.00     0.119 A 
ATOM     12  O   UNL d   1     -43.939  12.221  22.315  0.00  0.00    -0.304 OA
ATOM     13  C   UNL d   1     -43.351  12.127  21.750  0.00  0.00     0.123 A 
ATOM     14  C   UNL d   1     -43.433  12.745  21.185  0.00  0.00     0.029 A 
ATOM     15  C   UNL d   1     -44.065  13.202  21.413  0.00  0.00     0.028 A 
ENDBRANCH  10  11
ENDBRANCH   8  10
ENDBRANCH   2   7
BRANCH   3  16
ATOM     16  C   UNL d   1     -49.114  12.214  23.048  0.00  0.00     0.086 A 
ATOM     17  C   UNL d   1     -49.607  12.351  23.697  0.00  0.00     0.019 A 
ATOM     18  C   UNL d   1     -50.424  12.379  23.589  0.00  0.00     0.002 A 
ATOM     19  C   UNL d   1     -50.749  12.270  22.835  0.00  0.00     0.000 A 
ATOM     20  C   UNL d   1     -50.250  12.133  22.192  0.00  0.00     0.002 A 
ATOM     21  C   UNL d   1     -49.430  12.104  22.296  0.00  0.00     0.019 A 
ENDBRANCH   3  16
TORSDOF 4
ENDMDL
MODEL 3
REMARK VINA RESULT:      -6.2      8.060      8.791
REMARK  4 active torsions:
REMARK  status: ('A' for Active; 'I' for Inactive)
REMARK    1  A    between atoms: C_6  and  C_2 
REMARK    2  A    between atoms: C_8  and  N_3 
REMARK       I    between atoms: N_7  and  C_6 
REMARK    3  A    between atoms: C_16  and  N_7 
REMARK    4  A    between atoms: C_9  and  C_16 
ROOT
ATOM      1  C   UNL d   1     -40.416  15.081  19.126  0.00  0.00     0.211 A 
ATOM      2  C   UNL d   1     -40.590  14.512  19.705  0.00  0.00     0.199 A 
ATOM      3  N   UNL d   1     -40.636  14.784  18.392  0.00  0.00    -0.191 N 
ATOM      4  N   UNL d   1     -40.947  14.029  18.519  0.00  0.00    -0.058 NA
ATOM      5  N   UNL d   1     -40.916  13.870  19.330  0.00  0.00    -0.122 NA
ATOM      6  N   UNL d   1     -40.078  15.822  19.258  0.00  0.00    -0.125 N 
ENDROOT
BRANCH   2   7
ATOM      7  C   UNL d   1     -40.454  14.595  20.514  0.00  0.00     0.302 C 
ATOM      8  N   UNL d   1     -39.798  14.248  20.862  0.00  0.00    -0.203 NA
ATOM      9  O   UNL d   1     -40.986  15.031  20.971  0.00  0.00    -0.263 OA
BRANCH   8  10
ATOM     10  C   UNL d   1     -39.664  14.334  21.677  0.00  0.00     0.127 C 
BRANCH  10  11
ATOM     11  C   UNL d   1     -39.068  13.910  22.047  0.00  0.00     0.119 A 
ATOM     12  O   UNL d   1     -38.479  13.458  21.661  0.00  0.00    -0.304 OA
ATOM     13  C   UNL d   1     -37.999  13.130  22.241  0.00  0.00     0.123 A 
ATOM     14  C   UNL d   1     -38.289  13.378  22.990  0.00  0.00     0.029 A 
ATOM     15  C   UNL d   1     -38.937  13.850  22.857  0.00  0.00     0.028 A 
ENDBRANCH  10  11
ENDBRANCH   8  10
ENDBRANCH   2   7
BRANCH   3  16
ATOM     16  C   UNL d   1     -40.562  15.163  17.664  0.00  0.00     0.086 A 
ATOM     17  C   UNL d   1     -39.833  15.159  17.273  0.00  0.00     0.019 A 
ATOM     18  C   UNL d   1     -39.760  15.539  16.544  0.00  0.00     0.002 A 
ATOM     19  C   UNL d   1     -40.412  15.922  16.206  0.00  0.00     0.000 A 
ATOM     20  C   UNL d   1     -41.136  15.921  16.603  0.00  0.00     0.002 A 
ATOM     21  C   UNL d   1     -41.214  15.542  17.333  0.00  0.00     0.019 A 
ENDBRANCH   3  16
TORSDOF 4
ENDMDL
MODEL 4
REMARK VINA RESULT:      -6.2      8.524      9.814
REMARK  4 active torsions:
REMARK  status: ('A' for Active; 'I' for Inactive)
REMARK    1  A    between atoms: C_6  and  C_2 
REMARK    2  A    between atoms: C_8  and  N_3 
REMARK       I    between atoms: N_7  and  C_6 
REMARK    3  A    between atoms: C_16  and  N_7 
REMARK    4  A    between atoms: C_9  and  C_16 
ROOT
ATOM      1  C   UNL d   1     -39.556  14.684  18.438  0.00  0.00     0.211 A 
ATOM      2  C   UNL d   1     -40.204  14.639  18.954  0.00  0.00     0.199 A 
ATOM      3  N   UNL d   1     -39.641  14.106  17.859  0.00  0.00    -0.191 N 
ATOM      4  N   UNL d   1     -40.344  13.704  18.020  0.00  0.00    -0.058 NA
ATOM      5  N   UNL d   1     -40.684  14.038  18.695  0.00  0.00    -0.122 NA
ATOM      6  N   UNL d   1     -38.927  15.217  18.490  0.00  0.00    -0.125 N 
ENDROOT
BRANCH   2   7
ATOM      7  C   UNL d   1     -40.328  15.123  19.610  0.00  0.00     0.302 C 
ATOM      8  N   UNL d   1     -39.993  14.936  20.334  0.00  0.00    -0.203 NA
ATOM      9  O   UNL d   1     -40.795  15.800  19.529  0.00  0.00    -0.263 OA
BRANCH   8  10
ATOM     10  C   UNL d   1     -40.121  15.426  20.992  0.00  0.00     0.127 C 
BRANCH  10  11
ATOM     11  C   UNL d   1     -39.680  15.327  21.675  0.00  0.00     0.119 A 
ATOM     12  O   UNL d   1     -39.455  14.593  22.010  0.00  0.00    -0.304 OA
ATOM     13  C   UNL d   1     -39.020  14.752  22.688  0.00  0.00     0.123 A 
ATOM     14  C   UNL d   1     -38.973  15.588  22.776  0.00  0.00     0.029 A 
ATOM     15  C   UNL d   1     -39.377  15.922  22.156  0.00  0.00     0.028 A 
ENDBRANCH  10  11
ENDBRANCH   8  10
ENDBRANCH   2   7
BRANCH   3  16
ATOM     16  C   UNL d   1     -39.124  13.953  17.235  0.00  0.00     0.086 A 
ATOM     17  C   UNL d   1     -39.148  14.429  16.559  0.00  0.00     0.019 A 
ATOM     18  C   UNL d   1     -38.631  14.275  15.935  0.00  0.00     0.002 A 
ATOM     19  C   UNL d   1     -38.092  13.649  15.984  0.00  0.00     0.000 A 
ATOM     20  C   UNL d   1     -38.075  13.179  16.663  0.00  0.00     0.002 A 
ATOM     21  C   UNL d   1     -38.590  13.329  17.291  0.00  0.00     0.019 A 
ENDBRANCH   3  16
TORSDOF 4
ENDMDL
MODEL 5
REMARK VINA RESULT:      -5.5      8.602     10.164
REMARK  4 active torsions:
REMARK  status: ('A' for Active; 'I' for Inactive)
REMARK    1  A    between atoms: C_6  and  C_2 
REMARK    2  A    between atoms: C_8  and  N_3 
REMARK       I    between atoms: N_7  and  C_6 
REMARK    3  A    between atoms: C_16  and  N_7 
REMARK    4  A    between atoms: C_9  and  C_16 
ROOT
ATOM      1  C   UNL d   1     -39.564  15.116  18.724  0.00  0.00     0.211 A 
ATOM      2  C   UNL d   1     -39.477  15.296  17.919  0.00  0.00     0.199 A 
ATOM      3  N   UNL d   1     -40.343  15.259  18.942  0.00  0.00    -0.191 N 
ATOM      4  N   UNL d   1     -40.738  15.527  18.269  0.00  0.00    -0.058 NA
ATOM      5  N   UNL d   1     -40.198  15.547  17.643  0.00  0.00    -0.122 NA
ATOM      6  N   UNL d   1     -38.971  14.840  19.228  0.00  0.00    -0.125 N 
ENDROOT
BRANCH   2   7
ATOM      7  C   UNL d   1     -38.779  15.228  17.485  0.00  0.00     0.302 C 
ATOM      8  N   UNL d   1     -38.732  14.709  16.852  0.00  0.00    -0.203 NA
ATOM      9  O   UNL d   1     -38.126  15.688  17.696  0.00  0.00    -0.263 OA
BRANCH   8  10
ATOM     10  C   UNL d   1     -38.027  14.643  16.418  0.00  0.00     0.127 C 
BRANCH  10  11
ATOM     11  C   UNL d   1     -38.005  14.204  15.727  0.00  0.00     0.119 A 
ATOM     12  O   UNL d   1     -38.026  14.513  14.950  0.00  0.00    -0.304 OA
ATOM     13  C   UNL d   1     -37.992  13.879  14.429  0.00  0.00     0.123 A 
ATOM     14  C   UNL d   1     -37.949  13.172  14.883  0.00  0.00     0.029 A 
ATOM     15  C   UNL d   1     -37.958  13.384  15.667  0.00  0.00     0.028 A 
ENDBRANCH  10  11
ENDBRANCH   8  10
ENDBRANCH   2   7
BRANCH   3  16
ATOM     16  C   UNL d   1     -40.673  15.155  19.691  0.00  0.00     0.086 A 
ATOM     17  C   UNL d   1     -40.798  14.391  19.980  0.00  0.00     0.019 A 
ATOM     18  C   UNL d   1     -41.129  14.288  20.729  0.00  0.00     0.002 A 
ATOM     19  C   UNL d   1     -41.334  14.946  21.189  0.00  0.00     0.000 A 
ATOM     20  C   UNL d   1     -41.205  15.706  20.892  0.00  0.00     0.002 A 
ATOM     21  C   UNL d   1     -40.875  15.814  20.143  0.00  0.00     0.019 A 
ENDBRANCH   3  16
TORSDOF 4
ENDMDL
MODEL 6
REMARK VINA RESULT:      -5.4      8.589      9.738
REMARK  4 active torsions:
REMARK  status: ('A' for Active; 'I' for Inactive)
REMARK    1  A    between atoms: C_6  and  C_2 
REMARK    2  A    between atoms: C_8  and  N_3 
REMARK       I    between atoms: N_7  and  C_6 
REMARK    3  A    between atoms: C_16  and  N_7 
REMARK    4  A    between atoms: C_9  and  C_16 
ROOT
ATOM      1  C   UNL d   1     -39.687  15.177  19.976  0.00  0.00     0.211 A 
ATOM      2  C   UNL d   1     -40.187  14.877  19.386  0.00  0.00     0.199 A 
ATOM      3  N   UNL d   1     -39.940  14.893  20.704  0.00  0.00    -0.191 N 
ATOM      4  N   UNL d   1     -40.599  14.415  20.563  0.00  0.00    -0.058 NA
ATOM      5  N   UNL d   1     -40.744  14.411  19.749  0.00  0.00    -0.122 NA
ATOM      6  N   UNL d   1     -39.041  15.677  19.859  0.00  0.00    -0.125 N 
ENDROOT
BRANCH   2   7
ATOM      7  C   UNL d   1     -40.121  15.030  18.579  0.00  0.00     0.302 C 
ATOM      8  N   UNL d   1     -39.662  14.548  18.101  0.00  0.00    -0.203 NA
ATOM      9  O   UNL d   1     -40.524  15.675  18.256  0.00  0.00    -0.263 OA
BRANCH   8  10
ATOM     10  C   UNL d   1     -39.598  14.706  17.288  0.00  0.00     0.127 C 
BRANCH  10  11
ATOM     11  C   UNL d   1     -39.052  14.303  16.828  0.00  0.00     0.119 A 
ATOM     12  O   UNL d   1     -38.807  13.511  16.942  0.00  0.00    -0.304 OA
ATOM     13  C   UNL d   1     -38.257  13.335  16.359  0.00  0.00     0.123 A 
ATOM     14  C   UNL d   1     -38.159  14.019  15.879  0.00  0.00     0.029 A 
ATOM     15  C   UNL d   1     -38.647  14.597  16.176  0.00  0.00     0.028 A 
ENDBRANCH  10  11
ENDBRANCH   8  10
ENDBRANCH   2   7
BRANCH   3  16
ATOM     16  C   UNL d   1     -39.604  15.051  21.441  0.00  0.00     0.086 A 
ATOM     17  C   UNL d   1     -39.773  15.765  21.822  0.00  0.00     0.019 A 
ATOM     18  C   UNL d   1     -39.435  15.922  22.558  0.00  0.00     0.002 A 
ATOM     19  C   UNL d   1     -38.931  15.370  22.913  0.00  0.00     0.000 A 
ATOM     20  C   UNL d   1     -38.768  14.659  22.525  0.00  0.00     0.002 A 
ATOM     21  C   UNL d   1     -39.103  14.497  21.788  0.00  0.00     0.019 A 
ENDBRANCH   3  16
TORSDOF 4
ENDMDL
MODEL 7
REMARK VINA RESULT:      -5.1      8.637      9.912
REMARK  4 active torsions:
REMARK  status: ('A' for Active; 'I' for Inactive)
REMARK    1  A    between atoms: C_6  and  C_2 
REMARK    2  A    between atoms: C_8  and  N_3 
REMARK       I    between atoms: N_7  and  C_6 
REMARK    3  A    between atoms: C_16  and  N_7 
REMARK    4  A    between atoms: C_9  and  C_16 
ROOT
ATOM      1  C   UNL d   1     -38.884  14.978  20.894  0.00  0.00     0.211 A 
ATOM      2  C   UNL d   1     -39.260  15.552  20.429  0.00  0.00     0.199 A 
ATOM      3  N   UNL d   1     -39.209  14.995  21.648  0.00  0.00    -0.191 N 
ATOM      4  N   UNL d   1     -39.789  15.584  21.648  0.00  0.00    -0.058 NA
ATOM      5  N   UNL d   1     -39.814  15.922  20.894  0.00  0.00    -0.122 NA
ATOM      6  N   UNL d   1     -38.282  14.469  20.647  0.00  0.00    -0.125 N 
ENDROOT
BRANCH   2   7
ATOM      7  C   UNL d   1     -39.094  15.712  19.638  0.00  0.00     0.302 C 
ATOM      8  N   UNL d   1     -39.685  15.664  19.072  0.00  0.00    -0.203 NA
ATOM      9  O   UNL d   1     -38.325  15.922  19.421  0.00  0.00    -0.263 OA
BRANCH   8  10
ATOM     10  C   UNL d   1     -39.513  15.826  18.275  0.00  0.00     0.127 C 
BRANCH  10  11
ATOM     11  C   UNL d   1     -40.098  15.763  17.704  0.00  0.00     0.119 A 
ATOM     12  O   UNL d   1     -40.916  15.666  17.850  0.00  0.00    -0.304 OA
ATOM     13  C   UNL d   1     -41.295  15.629  17.124  0.00  0.00     0.123 A 
ATOM     14  C   UNL d   1     -40.712  15.703  16.522  0.00  0.00     0.029 A 
ATOM     15  C   UNL d   1     -39.992  15.784  16.888  0.00  0.00     0.028 A 
ENDBRANCH  10  11
ENDBRANCH   8  10
ENDBRANCH   2   7
BRANCH   3  16
ATOM     16  C   UNL d   1     -39.001  14.518  22.288  0.00  0.00     0.086 A 
ATOM     17  C   UNL d   1     -38.610  14.851  22.936  0.00  0.00     0.019 A 
ATOM     18  C   UNL d   1     -38.401  14.373  23.575  0.00  0.00     0.002 A 
ATOM     19  C   UNL d   1     -38.583  13.565  23.569  0.00  0.00     0.000 A 
ATOM     20  C   UNL d   1     -38.974  13.241  22.917  0.00  0.00     0.002 A 
ATOM     21  C   UNL d   1     -39.184  13.716  22.275  0.00  0.00     0.019 A 
ENDBRANCH   3  16
TORSDOF 4
ENDMDL
