MODEL 1
REMARK VINA RESULT:      -3.9      0.000      0.000
REMARK  6 active torsions:
REMARK  status: ('A' for Active; 'I' for Inactive)
REMARK       I    between atoms: C_2  and  N_1 
REMARK    1  A    between atoms: C_5  and  N_1 
REMARK    2  A    between atoms: C_4  and  C_2 
REMARK    3  A    between atoms: C_3  and  C_6 
REMARK    4  A    between atoms: C_6  and  C_4 
REMARK    5  A    between atoms: O_11  and  C_7 
REMARK    6  A    between atoms: C_14  and  O_11 
ROOT
ATOM      1  C   UNL d   1     -41.356-122.752 -52.264  0.00  0.00     0.107 A 
ATOM      2  C   UNL d   1     -41.250-122.212 -51.643  0.00  0.00     0.118 A 
ATOM      3  C   UNL d   1     -41.478-123.528 -52.115  0.00  0.00     0.021 A 
ATOM      4  C   UNL d   1     -41.271-122.483 -50.863  0.00  0.00     0.026 A 
ATOM      5  C   UNL d   1     -41.501-123.817 -51.338  0.00  0.00     0.002 A 
ATOM      6  C   UNL d   1     -41.400-123.309 -50.718  0.00  0.00     0.002 A 
ENDROOT
BRANCH   1   7
ATOM      7  N   UNL d   1     -41.336-122.481 -53.049  0.00  0.00    -0.206 NA
ATOM      8  C   UNL d   1     -41.566-122.972 -53.669  0.00  0.00     0.280 C 
ATOM      9  O   UNL d   1     -41.814-123.722 -53.519  0.00  0.00    -0.265 OA
BRANCH   8  10
ATOM     10  C   UNL d   1     -41.544-122.694 -54.464  0.00  0.00     0.068 C 
BRANCH  10  11
ATOM     11  C   UNL d   1     -42.184-122.282 -54.774  0.00  0.00     0.069 C 
BRANCH  11  12
ATOM     12  C   UNL d   1     -42.122-121.950 -55.514  0.00  0.00     0.297 C 
ATOM     13  O   UNL d   1     -41.523-121.403 -55.663  0.00  0.00    -0.264 OA
ATOM     14  N   UNL d   1     -42.641-122.145 -56.121  0.00  0.00    -0.102 N 
ENDBRANCH  11  12
ENDBRANCH  10  11
ENDBRANCH   8  10
ENDBRANCH   1   7
BRANCH   2  15
ATOM     15  O   UNL d   1     -41.124-121.401 -51.792  0.00  0.00    -0.304 OA
BRANCH  15  16
ATOM     16  C   UNL d   1     -41.176-120.846 -51.171  0.00  0.00     0.123 C 
ATOM     17  C   UNL d   1     -41.123-120.039 -51.364  0.00  0.00     0.029 C 
ENDBRANCH  15  16
ENDBRANCH   2  15
TORSDOF 6
ENDMDL
MODEL 2
REMARK VINA RESULT:      -2.3      2.034      4.006
REMARK  6 active torsions:
REMARK  status: ('A' for Active; 'I' for Inactive)
REMARK       I    between atoms: C_2  and  N_1 
REMARK    1  A    between atoms: C_5  and  N_1 
REMARK    2  A    between atoms: C_4  and  C_2 
REMARK    3  A    between atoms: C_3  and  C_6 
REMARK    4  A    between atoms: C_6  and  C_4 
REMARK    5  A    between atoms: O_11  and  C_7 
REMARK    6  A    between atoms: C_14  and  O_11 
ROOT
ATOM      1  C   UNL d   1     -41.283-123.145 -51.942  0.00  0.00     0.107 A 
ATOM      2  C   UNL d   1     -41.253-122.380 -52.263  0.00  0.00     0.118 A 
ATOM      3  C   UNL d   1     -41.407-123.781 -52.411  0.00  0.00     0.021 A 
ATOM      4  C   UNL d   1     -41.352-122.277 -53.076  0.00  0.00     0.026 A 
ATOM      5  C   UNL d   1     -41.508-123.696 -53.231  0.00  0.00     0.002 A 
ATOM      6  C   UNL d   1     -41.483-122.960 -53.564  0.00  0.00     0.002 A 
ENDROOT
BRANCH   1   7
ATOM      7  N   UNL d   1     -41.183-123.250 -51.124  0.00  0.00    -0.206 NA
ATOM      8  C   UNL d   1     -41.780-123.586 -50.668  0.00  0.00     0.280 C 
ATOM      9  O   UNL d   1     -42.469-123.817 -51.012  0.00  0.00    -0.265 OA
BRANCH   8  10
ATOM     10  C   UNL d   1     -41.675-123.691 -49.838  0.00  0.00     0.068 C 
BRANCH  10  11
ATOM     11  C   UNL d   1     -42.284-123.503 -49.319  0.00  0.00     0.069 C 
BRANCH  11  12
ATOM     12  C   UNL d   1     -42.155-123.558 -48.519  0.00  0.00     0.297 C 
ATOM     13  O   UNL d   1     -41.384-123.637 -48.237  0.00  0.00    -0.264 OA
ATOM     14  N   UNL d   1     -42.774-123.537 -47.978  0.00  0.00    -0.102 N 
ENDBRANCH  11  12
ENDBRANCH  10  11
ENDBRANCH   8  10
ENDBRANCH   1   7
BRANCH   2  15
ATOM     15  O   UNL d   1     -41.124-121.713 -51.778  0.00  0.00    -0.304 OA
BRANCH  15  16
ATOM     16  C   UNL d   1     -41.181-120.944 -52.098  0.00  0.00     0.123 C 
ATOM     17  C   UNL d   1     -41.183-120.302 -51.569  0.00  0.00     0.029 C 
ENDBRANCH  15  16
ENDBRANCH   2  15
TORSDOF 6
ENDMDL
