MODEL 1
REMARK VINA RESULT:      -4.7      0.000      0.000
REMARK  4 active torsions:
REMARK  status: ('A' for Active; 'I' for Inactive)
REMARK    1  A    between atoms: C_6  and  C_2 
REMARK    2  A    between atoms: O_7  and  C_6 
REMARK    3  A    between atoms: C_8  and  O_7 
REMARK    4  A    between atoms: O_14  and  C_9 
ROOT
ATOM      1  C   UNL d   1      57.479  -0.260  31.421  0.00  0.00     0.161 C 
ENDROOT
BRANCH   1   2
ATOM      2  C   UNL d   1      56.874  -0.061  31.926  0.00  0.00     0.188 A 
ATOM      3  N   UNL d   1      56.627  -0.731  32.286  0.00  0.00    -0.224 NA
ATOM      4  C   UNL d   1      55.979  -0.480  32.819  0.00  0.00     0.101 A 
ATOM      5  C   UNL d   1      55.882   0.317  32.744  0.00  0.00     0.101 A 
ATOM      6  C   UNL d   1      55.503  -0.968  33.349  0.00  0.00     0.021 A 
ATOM      7  C   UNL d   1      55.301   0.682  33.194  0.00  0.00     0.021 A 
ATOM      8  N   UNL d   1      56.466   0.584  32.162  0.00  0.00    -0.224 NA
ATOM      9  C   UNL d   1      54.816   0.278  33.714  0.00  0.00     0.002 A 
ATOM     10  C   UNL d   1      54.913  -0.519  33.790  0.00  0.00     0.002 A 
ENDBRANCH   1   2
BRANCH   1  11
ATOM     11  O   UNL d   1      57.497   0.042  30.637  0.00  0.00    -0.302 OA
BRANCH  11  12
ATOM     12  C   UNL d   1      58.188  -0.012  30.170  0.00  0.00     0.100 A 
ATOM     13  C   UNL d   1      58.339  -0.701  29.740  0.00  0.00     0.027 A 
ATOM     14  C   UNL d   1      59.010  -0.777  29.274  0.00  0.00     0.026 A 
ATOM     15  C   UNL d   1      59.536  -0.135  29.250  0.00  0.00     0.094 A 
ATOM     16  C   UNL d   1      59.386   0.554  29.680  0.00  0.00     0.026 A 
ATOM     17  C   UNL d   1      58.706   0.629  30.150  0.00  0.00     0.027 A 
BRANCH  15  18
ATOM     18  O   UNL d   1      60.227  -0.189  28.783  0.00  0.00    -0.328 OA
ATOM     19  C   UNL d   1      61.122  -0.361  28.455  0.00  0.00     0.181 C 
ENDBRANCH  15  18
ENDBRANCH  11  12
ENDBRANCH   1  11
TORSDOF 4
ENDMDL
MODEL 2
REMARK VINA RESULT:      -4.2      1.602      5.006
REMARK  4 active torsions:
REMARK  status: ('A' for Active; 'I' for Inactive)
REMARK    1  A    between atoms: C_6  and  C_2 
REMARK    2  A    between atoms: O_7  and  C_6 
REMARK    3  A    between atoms: C_8  and  O_7 
REMARK    4  A    between atoms: O_14  and  C_9 
ROOT
ATOM      1  C   UNL d   1      57.096  -0.064  31.644  0.00  0.00     0.161 C 
ENDROOT
BRANCH   1   2
ATOM      2  C   UNL d   1      57.507  -0.032  30.943  0.00  0.00     0.188 A 
ATOM      3  N   UNL d   1      57.709  -0.779  30.744  0.00  0.00    -0.224 NA
ATOM      4  C   UNL d   1      58.148  -0.705  29.989  0.00  0.00     0.101 A 
ATOM      5  C   UNL d   1      58.178   0.075  29.788  0.00  0.00     0.101 A 
ATOM      6  C   UNL d   1      58.501  -1.332  29.512  0.00  0.00     0.021 A 
ATOM      7  C   UNL d   1      58.565   0.283  29.095  0.00  0.00     0.021 A 
ATOM      8  N   UNL d   1      57.760   0.509  30.412  0.00  0.00    -0.224 NA
ATOM      9  C   UNL d   1      58.921  -0.261  28.598  0.00  0.00     0.002 A 
ATOM     10  C   UNL d   1      58.890  -1.041  28.799  0.00  0.00     0.002 A 
ENDBRANCH   1   2
BRANCH   1  11
ATOM     11  O   UNL d   1      56.666   0.603  31.918  0.00  0.00    -0.302 OA
BRANCH  11  12
ATOM     12  C   UNL d   1      56.346   0.623  32.689  0.00  0.00     0.100 A 
ATOM     13  C   UNL d   1      56.852   0.642  33.343  0.00  0.00     0.027 A 
ATOM     14  C   UNL d   1      56.561   0.662  34.110  0.00  0.00     0.026 A 
ATOM     15  C   UNL d   1      55.736   0.662  34.208  0.00  0.00     0.094 A 
ATOM     16  C   UNL d   1      55.230   0.643  33.555  0.00  0.00     0.026 A 
ATOM     17  C   UNL d   1      55.526   0.623  32.781  0.00  0.00     0.027 A 
BRANCH  15  18
ATOM     18  O   UNL d   1      55.416   0.681  34.979  0.00  0.00    -0.328 OA
ATOM     19  C   UNL d   1      55.263   0.577  35.931  0.00  0.00     0.181 C 
ENDBRANCH  15  18
ENDBRANCH  11  12
ENDBRANCH   1  11
TORSDOF 4
ENDMDL
MODEL 3
REMARK VINA RESULT:      -4.2      0.927      1.191
REMARK  4 active torsions:
REMARK  status: ('A' for Active; 'I' for Inactive)
REMARK    1  A    between atoms: C_6  and  C_2 
REMARK    2  A    between atoms: O_7  and  C_6 
REMARK    3  A    between atoms: C_8  and  O_7 
REMARK    4  A    between atoms: O_14  and  C_9 
ROOT
ATOM      1  C   UNL d   1      57.047   0.043  32.230  0.00  0.00     0.161 C 
ENDROOT
BRANCH   1   2
ATOM      2  C   UNL d   1      56.421   0.179  32.731  0.00  0.00     0.188 A 
ATOM      3  N   UNL d   1      56.716   0.277  33.468  0.00  0.00    -0.224 NA
ATOM      4  C   UNL d   1      56.017   0.420  33.977  0.00  0.00     0.101 A 
ATOM      5  C   UNL d   1      55.357   0.400  33.516  0.00  0.00     0.101 A 
ATOM      6  C   UNL d   1      55.996   0.563  34.829  0.00  0.00     0.021 A 
ATOM      7  C   UNL d   1      54.629   0.521  33.873  0.00  0.00     0.021 A 
ATOM      8  N   UNL d   1      55.625   0.243  32.706  0.00  0.00    -0.224 NA
ATOM      9  C   UNL d   1      54.539   0.662  34.674  0.00  0.00     0.002 A 
ATOM     10  C   UNL d   1      55.199   0.682  35.136  0.00  0.00     0.002 A 
ENDBRANCH   1   2
BRANCH   1  11
ATOM     11  O   UNL d   1      56.922  -0.035  31.404  0.00  0.00    -0.302 OA
BRANCH  11  12
ATOM     12  C   UNL d   1      57.563  -0.019  30.867  0.00  0.00     0.100 A 
ATOM     13  C   UNL d   1      57.754  -0.697  30.436  0.00  0.00     0.027 A 
ATOM     14  C   UNL d   1      58.379  -0.705  29.904  0.00  0.00     0.026 A 
ATOM     15  C   UNL d   1      58.815  -0.004  29.813  0.00  0.00     0.094 A 
ATOM     16  C   UNL d   1      58.625   0.675  30.244  0.00  0.00     0.026 A 
ATOM     17  C   UNL d   1      57.993   0.680  30.782  0.00  0.00     0.027 A 
BRANCH  15  18
ATOM     18  O   UNL d   1      59.456   0.013  29.277  0.00  0.00    -0.328 OA
ATOM     19  C   UNL d   1      60.010  -0.000  28.482  0.00  0.00     0.181 C 
ENDBRANCH  15  18
ENDBRANCH  11  12
ENDBRANCH   1  11
TORSDOF 4
ENDMDL
MODEL 4
REMARK VINA RESULT:      -2.6      9.321      9.853
REMARK  4 active torsions:
REMARK  status: ('A' for Active; 'I' for Inactive)
REMARK    1  A    between atoms: C_6  and  C_2 
REMARK    2  A    between atoms: O_7  and  C_6 
REMARK    3  A    between atoms: C_8  and  O_7 
REMARK    4  A    between atoms: O_14  and  C_9 
ROOT
ATOM      1  C   UNL d   1      58.471  -9.102  33.250  0.00  0.00     0.161 C 
ENDROOT
BRANCH   1   2
ATOM      2  C   UNL d   1      58.889  -9.102  33.948  0.00  0.00     0.188 A 
ATOM      3  N   UNL d   1      58.870  -8.360  34.244  0.00  0.00    -0.224 NA
ATOM      4  C   UNL d   1      59.327  -8.399  34.990  0.00  0.00     0.101 A 
ATOM      5  C   UNL d   1      59.587  -9.155  35.091  0.00  0.00     0.101 A 
ATOM      6  C   UNL d   1      59.494  -7.762  35.550  0.00  0.00     0.021 A 
ATOM      7  C   UNL d   1      60.031  -9.328  35.758  0.00  0.00     0.021 A 
ATOM      8  N   UNL d   1      59.299  -9.609  34.410  0.00  0.00    -0.224 NA
ATOM      9  C   UNL d   1      60.225  -8.772  36.326  0.00  0.00     0.002 A 
ATOM     10  C   UNL d   1      59.965  -8.016  36.226  0.00  0.00     0.002 A 
ENDBRANCH   1   2
BRANCH   1  11
ATOM     11  O   UNL d   1      58.337  -9.818  32.833  0.00  0.00    -0.302 OA
BRANCH  11  12
ATOM     12  C   UNL d   1      58.110  -9.812  32.028  0.00  0.00     0.100 A 
ATOM     13  C   UNL d   1      57.308  -9.811  31.829  0.00  0.00     0.027 A 
ATOM     14  C   UNL d   1      57.060  -9.805  31.047  0.00  0.00     0.026 A 
ATOM     15  C   UNL d   1      57.647  -9.800  30.459  0.00  0.00     0.094 A 
ATOM     16  C   UNL d   1      58.449  -9.800  30.657  0.00  0.00     0.026 A 
ATOM     17  C   UNL d   1      58.697  -9.806  31.449  0.00  0.00     0.027 A 
BRANCH  15  18
ATOM     18  O   UNL d   1      57.419  -9.794  29.655  0.00  0.00    -0.328 OA
ATOM     19  C   UNL d   1      57.084  -9.545  28.780  0.00  0.00     0.181 C 
ENDBRANCH  15  18
ENDBRANCH  11  12
ENDBRANCH   1  11
TORSDOF 4
ENDMDL
