MODEL 1
REMARK VINA RESULT:      -3.9      0.000      0.000
REMARK  1 active torsions:
REMARK  status: ('A' for Active; 'I' for Inactive)
REMARK    1  A    between atoms: C_2  and  C_1 
REMARK       I    between atoms: N_3  and  C_2 
ROOT
ATOM      1  C   UNL d   1      30.268  16.197 -23.865  0.00  0.00     0.109 A 
ATOM      2  C   UNL d   1      30.522  15.715 -23.342  0.00  0.00     0.026 A 
ATOM      3  C   UNL d   1      29.561  16.303 -23.829  0.00  0.00    -0.014 A 
ATOM      4  C   UNL d   1      29.556  16.552 -24.129  0.00  0.00    -0.014 A 
ATOM      5  C   UNL d   1      29.880  15.453 -22.874  0.00  0.00     0.045 A 
ATOM      6  C   UNL d   1      29.016  16.344 -23.752  0.00  0.00    -0.007 A 
ATOM      7  C   UNL d   1      28.898  16.034 -23.349  0.00  0.00    -0.007 A 
ATOM      8  C   UNL d   1      29.146  15.565 -22.838  0.00  0.00    -0.022 A 
ATOM      9  C   UNL d   1      28.163  16.386 -23.603  0.00  0.00    -0.001 A 
ATOM     10  C   UNL d   1      29.314  15.725 -23.071  0.00  0.00    -0.022 A 
ENDROOT
BRANCH   1  11
ATOM     11  C   UNL d   1      30.884  16.556 -24.444  0.00  0.00     0.248 C 
ATOM     12  N   UNL d   1      31.462  17.105 -24.407  0.00  0.00    -0.275 N 
ATOM     13  C   UNL d   1      31.896  17.270 -25.052  0.00  0.00     0.083 A 
ATOM     14  C   UNL d   1      31.594  17.481 -23.713  0.00  0.00     0.083 A 
ATOM     15  C   UNL d   1      32.493  17.839 -25.008  0.00  0.00     0.019 A 
ATOM     16  C   UNL d   1      32.639  18.227 -24.318  0.00  0.00     0.003 A 
ATOM     17  C   UNL d   1      32.189  18.049 -23.668  0.00  0.00     0.019 A 
ATOM     18  O   UNL d   1      30.549  16.006 -25.097  0.00  0.00    -0.271 OA
ENDBRANCH   1  11
TORSDOF 1
ENDMDL
MODEL 2
REMARK VINA RESULT:      -3.7      0.830      3.299
REMARK  1 active torsions:
REMARK  status: ('A' for Active; 'I' for Inactive)
REMARK    1  A    between atoms: C_2  and  C_1 
REMARK       I    between atoms: N_3  and  C_2 
ROOT
ATOM      1  C   UNL d   1      31.021  16.897 -24.324  0.00  0.00     0.109 A 
ATOM      2  C   UNL d   1      30.956  17.215 -25.007  0.00  0.00     0.026 A 
ATOM      3  C   UNL d   1      31.557  17.170 -23.938  0.00  0.00    -0.014 A 
ATOM      4  C   UNL d   1      31.489  16.939 -23.631  0.00  0.00    -0.014 A 
ATOM      5  C   UNL d   1      31.548  17.799 -25.095  0.00  0.00     0.045 A 
ATOM      6  C   UNL d   1      31.984  17.418 -23.689  0.00  0.00    -0.007 A 
ATOM      7  C   UNL d   1      32.169  17.771 -24.026  0.00  0.00    -0.007 A 
ATOM      8  C   UNL d   1      32.106  18.081 -24.692  0.00  0.00    -0.022 A 
ATOM      9  C   UNL d   1      32.657  17.828 -23.328  0.00  0.00    -0.001 A 
ATOM     10  C   UNL d   1      31.925  17.842 -24.556  0.00  0.00    -0.022 A 
ENDROOT
BRANCH   1  11
ATOM     11  C   UNL d   1      30.421  16.236 -24.108  0.00  0.00     0.248 C 
ATOM     12  N   UNL d   1      29.647  16.196 -23.919  0.00  0.00    -0.275 N 
ATOM     13  C   UNL d   1      29.311  15.492 -23.761  0.00  0.00     0.083 A 
ATOM     14  C   UNL d   1      29.220  16.872 -23.892  0.00  0.00     0.083 A 
ATOM     15  C   UNL d   1      28.510  15.457 -23.566  0.00  0.00     0.019 A 
ATOM     16  C   UNL d   1      28.065  16.127 -23.535  0.00  0.00     0.003 A 
ATOM     17  C   UNL d   1      28.419  16.837 -23.698  0.00  0.00     0.019 A 
ATOM     18  O   UNL d   1      31.101  15.628 -24.202  0.00  0.00    -0.271 OA
ENDBRANCH   1  11
TORSDOF 1
ENDMDL
MODEL 3
REMARK VINA RESULT:      -3.7      1.009      3.258
REMARK  1 active torsions:
REMARK  status: ('A' for Active; 'I' for Inactive)
REMARK    1  A    between atoms: C_2  and  C_1 
REMARK       I    between atoms: N_3  and  C_2 
ROOT
ATOM      1  C   UNL d   1      31.654  16.661 -23.883  0.00  0.00     0.109 A 
ATOM      2  C   UNL d   1      32.086  16.049 -23.988  0.00  0.00     0.026 A 
ATOM      3  C   UNL d   1      32.015  17.214 -23.608  0.00  0.00    -0.014 A 
ATOM      4  C   UNL d   1      31.704  17.449 -23.603  0.00  0.00    -0.014 A 
ATOM      5  C   UNL d   1      32.867  16.219 -23.742  0.00  0.00     0.045 A 
ATOM      6  C   UNL d   1      32.344  17.604 -23.396  0.00  0.00    -0.007 A 
ATOM      7  C   UNL d   1      32.819  17.392 -23.354  0.00  0.00    -0.007 A 
ATOM      8  C   UNL d   1      33.240  16.796 -23.456  0.00  0.00    -0.022 A 
ATOM      9  C   UNL d   1      32.888  18.192 -23.066  0.00  0.00    -0.001 A 
ATOM     10  C   UNL d   1      32.920  16.837 -23.519  0.00  0.00    -0.022 A 
ENDROOT
BRANCH   1  11
ATOM     11  C   UNL d   1      30.769  16.598 -24.118  0.00  0.00     0.248 C 
ATOM     12  N   UNL d   1      30.116  16.246 -23.825  0.00  0.00    -0.275 N 
ATOM     13  C   UNL d   1      29.419  16.321 -24.200  0.00  0.00     0.083 A 
ATOM     14  C   UNL d   1      30.177  15.819 -23.150  0.00  0.00     0.083 A 
ATOM     15  C   UNL d   1      28.747  15.955 -23.892  0.00  0.00     0.019 A 
ATOM     16  C   UNL d   1      28.790  15.522 -23.214  0.00  0.00     0.003 A 
ATOM     17  C   UNL d   1      29.506  15.453 -22.842  0.00  0.00     0.019 A 
ATOM     18  O   UNL d   1      30.955  17.121 -24.848  0.00  0.00    -0.271 OA
ENDBRANCH   1  11
TORSDOF 1
ENDMDL
MODEL 4
REMARK VINA RESULT:      -3.0      4.282      6.089
REMARK  1 active torsions:
REMARK  status: ('A' for Active; 'I' for Inactive)
REMARK    1  A    between atoms: C_2  and  C_1 
REMARK       I    between atoms: N_3  and  C_2 
ROOT
ATOM      1  C   UNL d   1      32.899  21.349 -21.509  0.00  0.00     0.109 A 
ATOM      2  C   UNL d   1      33.219  21.771 -22.048  0.00  0.00     0.026 A 
ATOM      3  C   UNL d   1      32.504  21.731 -21.052  0.00  0.00    -0.014 A 
ATOM      4  C   UNL d   1      32.402  21.421 -20.839  0.00  0.00    -0.014 A 
ATOM      5  C   UNL d   1      33.005  22.572 -21.934  0.00  0.00     0.045 A 
ATOM      6  C   UNL d   1      32.216  22.077 -20.732  0.00  0.00    -0.007 A 
ATOM      7  C   UNL d   1      32.281  22.555 -20.931  0.00  0.00    -0.007 A 
ATOM      8  C   UNL d   1      32.594  22.966 -21.457  0.00  0.00    -0.022 A 
ATOM      9  C   UNL d   1      31.774  22.647 -20.252  0.00  0.00    -0.001 A 
ATOM     10  C   UNL d   1      32.613  22.642 -21.409  0.00  0.00    -0.022 A 
ENDROOT
BRANCH   1  11
ATOM     11  C   UNL d   1      33.062  20.445 -21.529  0.00  0.00     0.248 C 
ATOM     12  N   UNL d   1      33.063  19.868 -22.079  0.00  0.00    -0.275 N 
ATOM     13  C   UNL d   1      33.241  19.121 -21.875  0.00  0.00     0.083 A 
ATOM     14  C   UNL d   1      32.884  20.057 -22.837  0.00  0.00     0.083 A 
ATOM     15  C   UNL d   1      33.240  18.529 -22.449  0.00  0.00     0.019 A 
ATOM     16  C   UNL d   1      33.062  18.701 -23.215  0.00  0.00     0.003 A 
ATOM     17  C   UNL d   1      32.883  19.466 -23.411  0.00  0.00     0.019 A 
ATOM     18  O   UNL d   1      33.227  20.485 -20.627  0.00  0.00    -0.271 OA
ENDBRANCH   1  11
TORSDOF 1
ENDMDL
