MODEL 1
REMARK VINA RESULT:      40.9      0.000      0.000
REMARK  4 active torsions:
REMARK  status: ('A' for Active; 'I' for Inactive)
REMARK    1  A    between atoms: N_10  and  C_3 
REMARK    2  A    between atoms: C_12  and  C_5 
REMARK    3  A    between atoms: C_11  and  C_8 
REMARK    4  A    between atoms: C_13  and  N_10 
ROOT
ATOM      1  C   UNL d   1      14.065  13.923  -2.948  0.00  0.00     0.168 A 
ATOM      2  N   UNL d   1      14.296  14.652  -2.605  0.00  0.00    -0.184 N 
ATOM      3  C   UNL d   1      14.633  14.641  -1.872  0.00  0.00     0.217 A 
ATOM      4  N   UNL d   1      14.184  13.226  -2.539  0.00  0.00    -0.231 NA
ATOM      5  C   UNL d   1      13.726  13.909  -3.681  0.00  0.00     0.057 A 
ATOM      6  N   UNL d   1      13.837  15.319  -3.745  0.00  0.00    -0.160 NA
ATOM      7  C   UNL d   1      14.757  13.948  -1.453  0.00  0.00     0.067 A 
ATOM      8  C   UNL d   1      14.530  13.231  -1.791  0.00  0.00     0.064 A 
ATOM      9  C   UNL d   1      13.610  14.602  -4.083  0.00  0.00     0.124 A 
ENDROOT
BRANCH   5  10
ATOM     10  C   UNL d   1      13.499  13.191  -4.019  0.00  0.00     0.004 A 
ATOM     11  C   UNL d   1      13.786  12.992  -4.750  0.00  0.00     0.000 A 
ATOM     12  C   UNL d   1      13.559  12.275  -5.087  0.00  0.00     0.000 A 
ATOM     13  C   UNL d   1      13.051  11.779  -4.685  0.00  0.00     0.000 A 
ATOM     14  C   UNL d   1      12.771  11.991  -3.955  0.00  0.00     0.000 A 
ATOM     15  C   UNL d   1      12.999  12.709  -3.618  0.00  0.00     0.000 A 
ENDBRANCH   5  10
BRANCH   3  16
ATOM     16  N   UNL d   1      14.867  15.382  -1.523  0.00  0.00    -0.383 NA
BRANCH  16  17
ATOM     17  C   UNL d   1      15.097  16.119  -1.176  0.00  0.00     0.134 C 
ATOM     18  C   UNL d   1      15.138  16.814  -1.659  0.00  0.00     0.035 C 
ATOM     19  C   UNL d   1      15.284  16.156  -0.344  0.00  0.00     0.035 C 
ENDBRANCH  16  17
ENDBRANCH   3  16
BRANCH   8  20
ATOM     20  C   UNL d   1      14.652  12.500  -1.367  0.00  0.00     0.036 C 
ATOM     21  C   UNL d   1      15.379  12.071  -1.470  0.00  0.00     0.006 C 
ATOM     22  C   UNL d   1      14.045  12.206  -0.843  0.00  0.00     0.006 C 
ATOM     23  C   UNL d   1      14.768  11.780  -0.947  0.00  0.00     0.006 C 
ENDBRANCH   8  20
TORSDOF 4
ENDMDL
MODEL 2
REMARK VINA RESULT:      43.7      0.935      3.104
REMARK  4 active torsions:
REMARK  status: ('A' for Active; 'I' for Inactive)
REMARK    1  A    between atoms: N_10  and  C_3 
REMARK    2  A    between atoms: C_12  and  C_5 
REMARK    3  A    between atoms: C_11  and  C_8 
REMARK    4  A    between atoms: C_13  and  N_10 
ROOT
ATOM      1  C   UNL d   1      14.348  13.813  -2.142  0.00  0.00     0.168 A 
ATOM      2  N   UNL d   1      14.430  14.505  -2.608  0.00  0.00    -0.184 N 
ATOM      3  C   UNL d   1      14.144  14.495  -3.362  0.00  0.00     0.217 A 
ATOM      4  N   UNL d   1      13.985  13.152  -2.456  0.00  0.00    -0.231 NA
ATOM      5  C   UNL d   1      14.627  13.800  -1.383  0.00  0.00     0.057 A 
ATOM      6  N   UNL d   1      15.066  15.137  -1.535  0.00  0.00    -0.160 NA
ATOM      7  C   UNL d   1      13.778  13.838  -3.687  0.00  0.00     0.067 A 
ATOM      8  C   UNL d   1      13.698  13.158  -3.228  0.00  0.00     0.064 A 
ATOM      9  C   UNL d   1      14.986  14.457  -1.076  0.00  0.00     0.124 A 
ENDROOT
BRANCH   5  10
ATOM     10  C   UNL d   1      14.546  13.119  -0.924  0.00  0.00     0.004 A 
ATOM     11  C   UNL d   1      15.134  12.563  -0.939  0.00  0.00     0.000 A 
ATOM     12  C   UNL d   1      15.053  11.882  -0.480  0.00  0.00     0.000 A 
ATOM     13  C   UNL d   1      14.387  11.779  -0.020  0.00  0.00     0.000 A 
ATOM     14  C   UNL d   1      13.807  12.344  -0.014  0.00  0.00     0.000 A 
ATOM     15  C   UNL d   1      13.888  13.025  -0.474  0.00  0.00     0.000 A 
ENDBRANCH   5  10
BRANCH   3  16
ATOM     16  N   UNL d   1      14.227  15.198  -3.836  0.00  0.00    -0.383 NA
BRANCH  16  17
ATOM     17  C   UNL d   1      14.314  15.896  -4.307  0.00  0.00     0.134 C 
ATOM     18  C   UNL d   1      14.767  16.548  -4.010  0.00  0.00     0.035 C 
ATOM     19  C   UNL d   1      13.945  15.937  -5.076  0.00  0.00     0.035 C 
ENDBRANCH  16  17
ENDBRANCH   3  16
BRANCH   8  20
ATOM     20  C   UNL d   1      13.319  12.465  -3.552  0.00  0.00     0.036 C 
ATOM     21  C   UNL d   1      13.118  12.443  -4.378  0.00  0.00     0.006 C 
ATOM     22  C   UNL d   1      13.145  11.799  -3.045  0.00  0.00     0.006 C 
ATOM     23  C   UNL d   1      12.946  11.779  -3.868  0.00  0.00     0.006 C 
ENDBRANCH   8  20
TORSDOF 4
ENDMDL
