MODEL 1
REMARK VINA RESULT:      46.1      0.000      0.000
REMARK  3 active torsions:
REMARK  status: ('A' for Active; 'I' for Inactive)
REMARK    1  A    between atoms: C_6  and  C_1 
REMARK    2  A    between atoms: C_7  and  C_2 
REMARK    3  A    between atoms: O_14  and  C_12 
ROOT
ATOM      1  C   UNL d   1     -55.206-101.558 -38.137  0.00  0.00     0.084 A 
ATOM      2  C   UNL d   1     -55.208-102.276 -37.729  0.00  0.00     0.105 A 
ATOM      3  C   UNL d   1     -55.046-101.719 -38.927  0.00  0.00     0.031 A 
ATOM      4  O   UNL d   1     -55.049-102.879 -38.269  0.00  0.00    -0.307 OA
ATOM      5  C   UNL d   1     -54.950-102.529 -39.008  0.00  0.00     0.100 A 
ATOM      6  C   UNL d   1     -54.976-101.233 -39.584  0.00  0.00     0.026 A 
ATOM      7  C   UNL d   1     -54.782-102.861 -39.747  0.00  0.00     0.027 A 
ATOM      8  C   UNL d   1     -54.809-101.550 -40.327  0.00  0.00     0.094 A 
ATOM      9  C   UNL d   1     -54.711-102.374 -40.410  0.00  0.00     0.026 A 
ENDROOT
BRANCH   2  10
ATOM     10  C   UNL d   1     -55.345-102.369 -36.917  0.00  0.00     0.023 A 
ATOM     11  C   UNL d   1     -56.108-102.544 -36.654  0.00  0.00     0.002 A 
ATOM     12  C   UNL d   1     -56.247-102.637 -35.857  0.00  0.00     0.000 A 
ATOM     13  C   UNL d   1     -55.624-102.555 -35.323  0.00  0.00     0.000 A 
ATOM     14  C   UNL d   1     -54.863-102.380 -35.601  0.00  0.00     0.000 A 
ATOM     15  C   UNL d   1     -54.727-102.289 -36.383  0.00  0.00     0.002 A 
ENDBRANCH   2  10
BRANCH   1  16
ATOM     16  C   UNL d   1     -55.340-100.811 -37.812  0.00  0.00     0.299 C 
ATOM     17  O   UNL d   1     -56.104-100.524 -37.746  0.00  0.00    -0.264 OA
ATOM     18  N   UNL d   1     -54.715-100.352 -37.554  0.00  0.00    -0.102 N 
ENDBRANCH   1  16
BRANCH   8  19
ATOM     19  O   UNL d   1     -54.739-101.064 -40.985  0.00  0.00    -0.328 OA
ATOM     20  C   UNL d   1     -54.781-101.392 -41.745  0.00  0.00     0.181 C 
ENDBRANCH   8  19
TORSDOF 3
ENDMDL
