MODEL 1
REMARK VINA RESULT:      41.8      0.000      0.000
REMARK  5 active torsions:
REMARK  status: ('A' for Active; 'I' for Inactive)
REMARK    1  A    between atoms: C_5  and  C_1 
REMARK    2  A    between atoms: N_15  and  C_4 
REMARK       I    between atoms: N_9  and  C_5 
REMARK    3  A    between atoms: C_7  and  N_9 
REMARK    4  A    between atoms: C_18  and  N_15 
REMARK    5  A    between atoms: C_16  and  C_18 
ROOT
ATOM      1  C   UNL d   1     -51.044  26.246  33.602  0.00  0.00     0.128 A 
ATOM      2  N   UNL d   1     -52.534  25.631  33.306  0.00  0.00    -0.200 NA
ATOM      3  C   UNL d   1     -51.667  26.748  33.421  0.00  0.00     0.196 A 
ATOM      4  C   UNL d   1     -51.910  25.129  33.488  0.00  0.00     0.196 A 
ATOM      5  S   UNL d   1     -51.176  25.431  33.634  0.00  0.00    -0.041 SA
ATOM      6  N   UNL d   1     -51.544  27.560  33.387  0.00  0.00    -0.126 N 
ENDROOT
BRANCH   1   7
ATOM      7  C   UNL d   1     -50.294  26.563  33.751  0.00  0.00     0.290 C 
ATOM      8  N   UNL d   1     -50.209  27.171  34.318  0.00  0.00    -0.186 NA
ATOM      9  O   UNL d   1     -49.627  26.287  33.345  0.00  0.00    -0.264 OA
BRANCH   8  10
ATOM     10  C   UNL d   1     -49.458  27.494  34.472  0.00  0.00     0.194 A 
ATOM     11  N   UNL d   1     -48.713  27.454  34.106  0.00  0.00    -0.107 NA
ATOM     12  O   UNL d   1     -48.072  27.857  34.419  0.00  0.00    -0.210 OA
ATOM     13  C   UNL d   1     -48.169  28.318  35.121  0.00  0.00     0.128 A 
ATOM     14  C   UNL d   1     -48.909  28.357  35.484  0.00  0.00     0.068 A 
ATOM     15  C   UNL d   1     -47.664  28.794  35.597  0.00  0.00     0.029 C 
ENDBRANCH   8  10
ENDBRANCH   1   7
BRANCH   4  16
ATOM     16  N   UNL d   1     -52.039  24.319  33.520  0.00  0.00    -0.220 NA
BRANCH  16  17
ATOM     17  C   UNL d   1     -52.799  24.033  33.668  0.00  0.00     0.101 C 
BRANCH  17  18
ATOM     18  C   UNL d   1     -52.897  23.304  34.024  0.00  0.00     0.021 C 
ATOM     19  C   UNL d   1     -52.640  23.188  34.800  0.00  0.00     0.002 C 
ENDBRANCH  17  18
ENDBRANCH  16  17
ENDBRANCH   4  16
TORSDOF 5
ENDMDL
