MODEL 1
REMARK VINA RESULT:      35.6      0.000      0.000
REMARK  4 active torsions:
REMARK  status: ('A' for Active; 'I' for Inactive)
REMARK    1  A    between atoms: C_15  and  O_20 
REMARK    2  A    between atoms: C_16  and  O_21 
REMARK    3  A    between atoms: O_20  and  C_18 
REMARK    4  A    between atoms: O_21  and  C_19 
ROOT
ATOM      1  C   UNL d   1      46.216 -18.043  43.531  0.00  0.00     0.161 A 
ATOM      2  O   UNL d   1      46.154 -18.226  44.266  0.00  0.00    -0.291 OA
ATOM      3  C   UNL d   1      46.063 -17.284  43.824  0.00  0.00     0.033 A 
ATOM      4  C   UNL d   1      46.333 -18.154  42.722  0.00  0.00     0.033 A 
ATOM      5  C   UNL d   1      46.379 -18.770  43.114  0.00  0.00     0.016 A 
ATOM      6  C   UNL d   1      46.243 -18.853  44.325  0.00  0.00     0.296 A 
ATOM      7  C   UNL d   1      46.028 -16.636  43.304  0.00  0.00     0.101 A 
ATOM      8  C   UNL d   1      46.297 -17.507  42.202  0.00  0.00     0.101 A 
ATOM      9  O   UNL d   1      46.145 -16.750  42.492  0.00  0.00    -0.307 OA
ATOM     10  C   UNL d   1      46.365 -19.174  43.735  0.00  0.00     0.062 A 
ATOM     11  C   UNL d   1      46.415 -17.620  41.390  0.00  0.00     0.049 A 
ATOM     12  C   UNL d   1      45.877 -15.882  43.591  0.00  0.00     0.049 A 
ATOM     13  C   UNL d   1      45.947 -17.175  44.630  0.00  0.00     0.003 A 
ATOM     14  C   UNL d   1      46.485 -18.913  42.430  0.00  0.00     0.003 A 
ATOM     15  O   UNL d   1      46.204 -19.107  44.955  0.00  0.00    -0.259 OA
ATOM     16  C   UNL d   1      46.567 -18.379  41.098  0.00  0.00     0.105 A 
ATOM     17  C   UNL d   1      45.759 -15.768  44.403  0.00  0.00     0.105 A 
ATOM     18  C   UNL d   1      45.795 -16.416  44.923  0.00  0.00     0.025 A 
ATOM     19  C   UNL d   1      46.603 -19.027  41.618  0.00  0.00     0.025 A 
ATOM     20  C   UNL d   1      46.519 -19.106  42.398  0.00  0.00    -0.001 A 
ATOM     21  C   UNL d   1      46.486 -19.970  43.746  0.00  0.00     0.005 A 
ATOM     22  C   UNL d   1      46.646 -19.902  42.357  0.00  0.00    -0.000 A 
ATOM     23  C   UNL d   1      46.628 -20.330  43.035  0.00  0.00     0.000 A 
ENDROOT
BRANCH  17  24
ATOM     24  O   UNL d   1      45.657 -15.251  44.584  0.00  0.00    -0.273 OA
BRANCH  24  25
ATOM     25  C   UNL d   1      45.105 -15.008  44.779  0.00  0.00     0.300 C 
ATOM     26  O   UNL d   1      44.758 -15.455  44.864  0.00  0.00    -0.259 OA
ATOM     27  C   UNL d   1      44.947 -14.333  44.872  0.00  0.00     0.074 C 
ENDBRANCH  24  25
ENDBRANCH  17  24
BRANCH  16  28
ATOM     28  O   UNL d   1      46.646 -18.446  40.540  0.00  0.00    -0.273 OA
BRANCH  28  29
ATOM     29  C   UNL d   1      46.415 -18.458  40.047  0.00  0.00     0.300 C 
ATOM     30  O   UNL d   1      46.518 -19.047  39.852  0.00  0.00    -0.259 OA
ATOM     31  C   UNL d   1      46.112 -17.987  39.741  0.00  0.00     0.074 C 
ENDBRANCH  28  29
ENDBRANCH  16  28
TORSDOF 4
ENDMDL
