MODEL 1
REMARK VINA RESULT:      -7.9      0.000      0.000
REMARK  4 active torsions:
REMARK  status: ('A' for Active; 'I' for Inactive)
REMARK    1  A    between atoms: N_7  and  C_2 
REMARK    2  A    between atoms: C_6  and  C_3 
REMARK    3  A    between atoms: C_16  and  N_7 
REMARK    4  A    between atoms: C_10  and  C_16 
ROOT
ATOM      1  N   UNL d   1      52.611  32.000  53.052  0.00  0.00    -0.222 NA
ATOM      2  C   UNL d   1      53.353  31.736  53.293  0.00  0.00     0.172 A 
ATOM      3  C   UNL d   1      52.589  32.827  53.151  0.00  0.00     0.090 A 
ATOM      4  S   UNL d   1      53.784  32.383  53.536  0.00  0.00    -0.048 SA
ATOM      5  C   UNL d   1      53.318  33.050  53.449  0.00  0.00     0.057 A 
ENDROOT
BRANCH   3   6
ATOM      6  C   UNL d   1      51.925  33.302  52.966  0.00  0.00     0.018 A 
ATOM      7  C   UNL d   1      51.248  33.240  53.424  0.00  0.00     0.002 A 
ATOM      8  C   UNL d   1      50.583  33.715  53.240  0.00  0.00     0.011 A 
ATOM      9  C   UNL d   1      50.633  34.225  52.607  0.00  0.00     0.058 A 
ATOM     10  C   UNL d   1      51.313  34.289  52.144  0.00  0.00     0.011 A 
ATOM     11 CL   UNL d   1      49.983  34.689  52.426  0.00  0.00    -0.082 Cl
ATOM     12  C   UNL d   1      51.968  33.821  52.326  0.00  0.00     0.002 A 
ENDBRANCH   3   6
BRANCH   2  13
ATOM     13  N   UNL d   1      53.629  30.966  53.296  0.00  0.00    -0.332 N 
ATOM     14  H   UNL d   1      54.258  30.751  52.795  0.00  0.00     0.168 HD
BRANCH  13  15
ATOM     15  C   UNL d   1      53.285  30.396  53.796  0.00  0.00     0.074 C 
BRANCH  15  16
ATOM     16  C   UNL d   1      53.500  29.617  53.747  0.00  0.00     0.018 C 
ATOM     17  C   UNL d   1      53.272  29.064  54.347  0.00  0.00     0.002 C 
ENDBRANCH  15  16
ENDBRANCH  13  15
ENDBRANCH   2  13
TORSDOF 4
ENDMDL
MODEL 2
REMARK VINA RESULT:      -7.8      1.526      1.837
REMARK  4 active torsions:
REMARK  status: ('A' for Active; 'I' for Inactive)
REMARK    1  A    between atoms: N_7  and  C_2 
REMARK    2  A    between atoms: C_6  and  C_3 
REMARK    3  A    between atoms: C_16  and  N_7 
REMARK    4  A    between atoms: C_10  and  C_16 
ROOT
ATOM      1  N   UNL d   1      53.449  32.099  53.735  0.00  0.00    -0.222 NA
ATOM      2  C   UNL d   1      53.243  31.405  53.343  0.00  0.00     0.172 A 
ATOM      3  C   UNL d   1      52.947  32.706  53.461  0.00  0.00     0.090 A 
ATOM      4  S   UNL d   1      52.628  31.574  52.837  0.00  0.00    -0.048 SA
ATOM      5  C   UNL d   1      52.446  32.368  52.908  0.00  0.00     0.057 A 
ENDROOT
BRANCH   3   6
ATOM      6  C   UNL d   1      52.984  33.498  53.728  0.00  0.00     0.018 A 
ATOM      7  C   UNL d   1      53.335  33.661  54.451  0.00  0.00     0.002 A 
ATOM      8  C   UNL d   1      53.372  34.454  54.718  0.00  0.00     0.011 A 
ATOM      9  C   UNL d   1      53.056  35.039  54.249  0.00  0.00     0.058 A 
ATOM     10  C   UNL d   1      52.702  34.876  53.521  0.00  0.00     0.011 A 
ATOM     11 CL   UNL d   1      53.092  35.814  54.510  0.00  0.00    -0.082 Cl
ATOM     12  C   UNL d   1      52.666  34.096  53.257  0.00  0.00     0.002 A 
ENDBRANCH   3   6
BRANCH   2  13
ATOM     13  N   UNL d   1      53.582  30.665  53.431  0.00  0.00    -0.332 N 
ATOM     14  H   UNL d   1      54.311  30.499  53.067  0.00  0.00     0.168 HD
BRANCH  13  15
ATOM     15  C   UNL d   1      53.202  30.078  53.883  0.00  0.00     0.074 C 
BRANCH  15  16
ATOM     16  C   UNL d   1      53.555  29.360  54.012  0.00  0.00     0.018 C 
ATOM     17  C   UNL d   1      53.324  28.873  54.666  0.00  0.00     0.002 C 
ENDBRANCH  15  16
ENDBRANCH  13  15
ENDBRANCH   2  13
TORSDOF 4
ENDMDL
MODEL 3
REMARK VINA RESULT:      -7.4      1.468      2.090
REMARK  4 active torsions:
REMARK  status: ('A' for Active; 'I' for Inactive)
REMARK    1  A    between atoms: N_7  and  C_2 
REMARK    2  A    between atoms: C_6  and  C_3 
REMARK    3  A    between atoms: C_16  and  N_7 
REMARK    4  A    between atoms: C_10  and  C_16 
ROOT
ATOM      1  N   UNL d   1      52.830  33.197  53.849  0.00  0.00    -0.222 NA
ATOM      2  C   UNL d   1      53.422  32.631  53.930  0.00  0.00     0.172 A 
ATOM      3  C   UNL d   1      52.337  32.964  53.218  0.00  0.00     0.090 A 
ATOM      4  S   UNL d   1      53.302  32.057  53.365  0.00  0.00    -0.048 SA
ATOM      5  C   UNL d   1      52.639  32.260  52.929  0.00  0.00     0.057 A 
ENDROOT
BRANCH   3   6
ATOM      6  C   UNL d   1      51.669  33.399  52.962  0.00  0.00     0.018 A 
ATOM      7  C   UNL d   1      50.957  33.307  53.357  0.00  0.00     0.002 A 
ATOM      8  C   UNL d   1      50.288  33.742  53.101  0.00  0.00     0.011 A 
ATOM      9  C   UNL d   1      50.370  34.244  52.465  0.00  0.00     0.058 A 
ATOM     10  C   UNL d   1      51.087  34.338  52.067  0.00  0.00     0.011 A 
ATOM     11 CL   UNL d   1      49.716  34.669  52.215  0.00  0.00    -0.082 Cl
ATOM     12  C   UNL d   1      51.746  33.909  52.319  0.00  0.00     0.002 A 
ENDBRANCH   3   6
BRANCH   2  13
ATOM     13  N   UNL d   1      54.032  32.625  54.475  0.00  0.00    -0.332 N 
ATOM     14  H   UNL d   1      54.176  31.941  54.926  0.00  0.00     0.168 HD
BRANCH  13  15
ATOM     15  C   UNL d   1      54.510  33.299  54.582  0.00  0.00     0.074 C 
BRANCH  15  16
ATOM     16  C   UNL d   1      54.929  33.407  55.266  0.00  0.00     0.018 C 
ATOM     17  C   UNL d   1      55.502  34.027  55.333  0.00  0.00     0.002 C 
ENDBRANCH  15  16
ENDBRANCH  13  15
ENDBRANCH   2  13
TORSDOF 4
ENDMDL
MODEL 4
REMARK VINA RESULT:      -7.3      2.010      4.036
REMARK  4 active torsions:
REMARK  status: ('A' for Active; 'I' for Inactive)
REMARK    1  A    between atoms: N_7  and  C_2 
REMARK    2  A    between atoms: C_6  and  C_3 
REMARK    3  A    between atoms: C_16  and  N_7 
REMARK    4  A    between atoms: C_10  and  C_16 
ROOT
ATOM      1  N   UNL d   1      51.760  33.193  53.330  0.00  0.00    -0.222 NA
ATOM      2  C   UNL d   1      51.689  34.011  53.273  0.00  0.00     0.172 A 
ATOM      3  C   UNL d   1      52.571  33.004  53.306  0.00  0.00     0.090 A 
ATOM      4  S   UNL d   1      52.438  34.326  53.216  0.00  0.00    -0.048 SA
ATOM      5  C   UNL d   1      52.978  33.711  53.236  0.00  0.00     0.057 A 
ENDROOT
BRANCH   3   6
ATOM      6  C   UNL d   1      52.870  32.223  53.349  0.00  0.00     0.018 A 
ATOM      7  C   UNL d   1      52.518  31.634  52.901  0.00  0.00     0.002 A 
ATOM      8  C   UNL d   1      52.817  30.853  52.944  0.00  0.00     0.011 A 
ATOM      9  C   UNL d   1      53.451  30.705  53.433  0.00  0.00     0.058 A 
ATOM     10  C   UNL d   1      53.807  31.297  53.885  0.00  0.00     0.011 A 
ATOM     11 CL   UNL d   1      53.743  29.941  53.475  0.00  0.00    -0.082 Cl
ATOM     12  C   UNL d   1      53.512  32.066  53.843  0.00  0.00     0.002 A 
ENDBRANCH   3   6
BRANCH   2  13
ATOM     13  N   UNL d   1      50.999  34.452  53.273  0.00  0.00    -0.332 N 
ATOM     14  H   UNL d   1      50.865  35.009  53.876  0.00  0.00     0.168 HD
BRANCH  13  15
ATOM     15  C   UNL d   1      50.431  34.346  52.673  0.00  0.00     0.074 C 
BRANCH  15  16
ATOM     16  C   UNL d   1      49.722  34.736  52.699  0.00  0.00     0.018 C 
ATOM     17  C   UNL d   1      49.183  34.703  52.047  0.00  0.00     0.002 C 
ENDBRANCH  15  16
ENDBRANCH  13  15
ENDBRANCH   2  13
TORSDOF 4
ENDMDL
MODEL 5
REMARK VINA RESULT:      -7.3      2.434      4.063
REMARK  4 active torsions:
REMARK  status: ('A' for Active; 'I' for Inactive)
REMARK    1  A    between atoms: N_7  and  C_2 
REMARK    2  A    between atoms: C_6  and  C_3 
REMARK    3  A    between atoms: C_16  and  N_7 
REMARK    4  A    between atoms: C_10  and  C_16 
ROOT
ATOM      1  N   UNL d   1      52.058  33.647  53.829  0.00  0.00    -0.222 NA
ATOM      2  C   UNL d   1      51.473  33.348  53.334  0.00  0.00     0.172 A 
ATOM      3  C   UNL d   1      52.751  33.200  53.706  0.00  0.00     0.090 A 
ATOM      4  S   UNL d   1      51.792  32.728  52.912  0.00  0.00    -0.048 SA
ATOM      5  C   UNL d   1      52.573  32.637  53.139  0.00  0.00     0.057 A 
ENDROOT
BRANCH   3   6
ATOM      6  C   UNL d   1      53.472  33.335  54.109  0.00  0.00     0.018 A 
ATOM      7  C   UNL d   1      53.470  33.786  54.794  0.00  0.00     0.002 A 
ATOM      8  C   UNL d   1      54.190  33.922  55.197  0.00  0.00     0.011 A 
ATOM      9  C   UNL d   1      54.874  33.599  54.894  0.00  0.00     0.058 A 
ATOM     10  C   UNL d   1      54.878  33.145  54.204  0.00  0.00     0.011 A 
ATOM     11 CL   UNL d   1      55.579  33.732  55.288  0.00  0.00    -0.082 Cl
ATOM     12  C   UNL d   1      54.168  33.012  53.807  0.00  0.00     0.002 A 
ENDBRANCH   3   6
BRANCH   2  13
ATOM     13  N   UNL d   1      50.701  33.610  53.262  0.00  0.00    -0.332 N 
ATOM     14  H   UNL d   1      50.119  33.331  53.787  0.00  0.00     0.168 HD
BRANCH  13  15
ATOM     15  C   UNL d   1      50.494  34.154  52.667  0.00  0.00     0.074 C 
BRANCH  15  16
ATOM     16  C   UNL d   1      49.779  34.534  52.681  0.00  0.00     0.018 C 
ATOM     17  C   UNL d   1      49.375  34.729  51.963  0.00  0.00     0.002 C 
ENDBRANCH  15  16
ENDBRANCH  13  15
ENDBRANCH   2  13
TORSDOF 4
ENDMDL
MODEL 6
REMARK VINA RESULT:      -7.0      2.505      3.954
REMARK  4 active torsions:
REMARK  status: ('A' for Active; 'I' for Inactive)
REMARK    1  A    between atoms: N_7  and  C_2 
REMARK    2  A    between atoms: C_6  and  C_3 
REMARK    3  A    between atoms: C_16  and  N_7 
REMARK    4  A    between atoms: C_10  and  C_16 
ROOT
ATOM      1  N   UNL d   1      53.452  32.639  54.310  0.00  0.00    -0.222 NA
ATOM      2  C   UNL d   1      53.944  33.297  54.363  0.00  0.00     0.172 A 
ATOM      3  C   UNL d   1      53.820  32.085  53.807  0.00  0.00     0.090 A 
ATOM      4  S   UNL d   1      54.603  33.157  53.905  0.00  0.00    -0.048 SA
ATOM      5  C   UNL d   1      54.528  32.417  53.565  0.00  0.00     0.057 A 
ENDROOT
BRANCH   3   6
ATOM      6  C   UNL d   1      53.491  31.340  53.614  0.00  0.00     0.018 A 
ATOM      7  C   UNL d   1      53.745  30.672  54.016  0.00  0.00     0.002 A 
ATOM      8  C   UNL d   1      53.416  29.927  53.823  0.00  0.00     0.011 A 
ATOM      9  C   UNL d   1      52.851  29.891  53.238  0.00  0.00     0.058 A 
ATOM     10  C   UNL d   1      52.593  30.562  52.832  0.00  0.00     0.011 A 
ATOM     11 CL   UNL d   1      52.529  29.162  53.049  0.00  0.00    -0.082 Cl
ATOM     12  C   UNL d   1      52.918  31.296  53.023  0.00  0.00     0.002 A 
ENDBRANCH   3   6
BRANCH   2  13
ATOM     13  N   UNL d   1      53.814  33.981  54.793  0.00  0.00    -0.332 N 
ATOM     14  H   UNL d   1      54.145  34.060  55.552  0.00  0.00     0.168 HD
BRANCH  13  15
ATOM     15  C   UNL d   1      53.353  34.598  54.476  0.00  0.00     0.074 C 
BRANCH  15  16
ATOM     16  C   UNL d   1      53.109  35.214  54.941  0.00  0.00     0.018 C 
ATOM     17  C   UNL d   1      52.809  35.927  54.596  0.00  0.00     0.002 C 
ENDBRANCH  15  16
ENDBRANCH  13  15
ENDBRANCH   2  13
TORSDOF 4
ENDMDL
