MODEL 1
REMARK VINA RESULT:      94.0      0.000      0.000
REMARK  10 active torsions:
REMARK  status: ('A' for Active; 'I' for Inactive)
REMARK    1  A    between atoms: C_3  and  C_1 
REMARK    2  A    between atoms: C_4  and  C_1 
REMARK    3  A    between atoms: N_2  and  C_8 
REMARK    4  A    between atoms: O_19  and  C_3 
REMARK    5  A    between atoms: C_14  and  C_4 
REMARK    6  A    between atoms: C_20  and  N_7 
REMARK    7  A    between atoms: C_9  and  C_20 
REMARK    8  A    between atoms: C_13  and  C_9 
REMARK    9  A    between atoms: C_23  and  C_13 
REMARK   10  A    between atoms: C_24  and  O_19 
ROOT
ATOM      1  C   UNL d   1      60.170  49.612  50.866  0.00  0.00     0.132 C 
ATOM      2  C   UNL d   1      60.358  49.639  51.671  0.00  0.00     0.106 C 
ATOM      3  N   UNL d   1      60.543  49.666  52.477  0.00  0.00    -0.191 NA
ENDROOT
BRANCH   1   4
ATOM      4  C   UNL d   1      59.397  49.674  50.614  0.00  0.00     0.310 C 
ATOM      5  O   UNL d   1      59.215  49.703  49.826  0.00  0.00    -0.258 OA
BRANCH   4   6
ATOM      6  O   UNL d   1      58.795  49.707  51.170  0.00  0.00    -0.271 OA
BRANCH   6   7
ATOM      7  C   UNL d   1      58.015  49.560  50.938  0.00  0.00     0.126 C 
ATOM      8  C   UNL d   1      57.573  48.991  51.351  0.00  0.00     0.029 C 
ENDBRANCH   6   7
ENDBRANCH   4   6
ENDBRANCH   1   4
BRANCH   1   9
ATOM      9  C   UNL d   1      60.767  49.522  50.312  0.00  0.00     0.016 C 
BRANCH   9  10
ATOM     10  C   UNL d   1      61.056  48.745  50.143  0.00  0.00     0.001 A 
ATOM     11  C   UNL d   1      61.040  48.433  49.360  0.00  0.00     0.002 A 
ATOM     12  C   UNL d   1      61.323  47.684  49.220  0.00  0.00     0.018 A 
ATOM     13  C   UNL d   1      61.626  47.219  49.819  0.00  0.00     0.064 A 
ATOM     14  C   UNL d   1      61.645  47.515  50.579  0.00  0.00     0.018 A 
ATOM     15  C   UNL d   1      61.360  48.277  50.741  0.00  0.00     0.002 A 
BRANCH  13  16
ATOM     16  N   UNL d   1      61.910  46.456  49.657  0.00  0.00    -0.301 N 
ATOM     17  C   UNL d   1      61.504  45.795  49.915  0.00  0.00     0.100 A 
ATOM     18  C   UNL d   1      61.788  45.033  49.753  0.00  0.00     0.100 A 
ATOM     19  N   UNL d   1      62.479  44.930  49.332  0.00  0.00    -0.300 N 
ATOM     20  C   UNL d   1      62.910  45.608  49.059  0.00  0.00     0.100 A 
ATOM     21  C   UNL d   1      62.613  46.360  49.229  0.00  0.00     0.100 A 
BRANCH  19  22
ATOM     22  C   UNL d   1      62.764  44.167  49.169  0.00  0.00     0.080 C 
BRANCH  22  23
ATOM     23  C   UNL d   1      62.848  43.609  49.786  0.00  0.00     0.019 C 
BRANCH  23  24
ATOM     24  C   UNL d   1      62.345  43.128  50.102  0.00  0.00     0.002 C 
BRANCH  24  25
ATOM     25  C   UNL d   1      62.589  42.385  50.330  0.00  0.00     0.000 A 
ATOM     26  C   UNL d   1      62.872  42.277  51.083  0.00  0.00     0.000 A 
ATOM     27  C   UNL d   1      63.122  41.530  51.328  0.00  0.00     0.000 A 
ATOM     28  C   UNL d   1      63.087  40.895  50.815  0.00  0.00     0.000 A 
ATOM     29  C   UNL d   1      62.796  41.013  50.045  0.00  0.00     0.000 A 
ATOM     30  C   UNL d   1      62.547  41.764  49.807  0.00  0.00     0.000 A 
ENDBRANCH  24  25
ENDBRANCH  23  24
ENDBRANCH  22  23
ENDBRANCH  19  22
ENDBRANCH  13  16
ENDBRANCH   9  10
ENDBRANCH   1   9
TORSDOF 10
ENDMDL
