MODEL 1
REMARK VINA RESULT:      54.8      0.000      0.000
REMARK  4 active torsions:
REMARK  status: ('A' for Active; 'I' for Inactive)
REMARK    1  A    between atoms: C_5  and  N_1 
REMARK    2  A    between atoms: C_7  and  C_3 
REMARK    3  A    between atoms: C_8  and  C_4 
REMARK    4  A    between atoms: N_10  and  C_5 
ROOT
ATOM      1  N   UNL d   1      60.376  49.597  50.556  0.00  0.00    -0.203 N 
ATOM      2  N   UNL d   1      59.692  49.592  50.089  0.00  0.00    -0.163 NA
ATOM      3  C   UNL d   1      59.037  49.612  50.560  0.00  0.00     0.103 A 
ATOM      4  C   UNL d   1      60.144  49.622  51.357  0.00  0.00     0.087 A 
ATOM      5  C   UNL d   1      59.317  49.632  51.368  0.00  0.00     0.040 A 
ENDROOT
BRANCH   3   6
ATOM      6  C   UNL d   1      58.249  49.614  50.288  0.00  0.00     0.019 A 
ATOM      7  C   UNL d   1      58.079  49.685  49.486  0.00  0.00     0.002 A 
ATOM      8  C   UNL d   1      57.282  49.684  49.233  0.00  0.00     0.000 A 
ATOM      9  C   UNL d   1      56.678  49.613  49.781  0.00  0.00     0.000 A 
ATOM     10  C   UNL d   1      56.868  49.543  50.581  0.00  0.00     0.000 A 
ATOM     11  C   UNL d   1      56.044  49.619  49.509  0.00  0.00     0.000 C 
ATOM     12  C   UNL d   1      57.638  49.543  50.832  0.00  0.00     0.002 A 
ENDBRANCH   3   6
BRANCH   1  13
ATOM     13  C   UNL d   1      61.172  49.580  50.278  0.00  0.00     0.222 C 
ATOM     14  S   UNL d   1      61.803  49.556  50.842  0.00  0.00    -0.037 SA
BRANCH  13  15
ATOM     15  N   UNL d   1      61.352  49.587  49.451  0.00  0.00    -0.214 NA
ATOM     16  C   UNL d   1      61.653  48.903  49.085  0.00  0.00     0.122 C 
ENDBRANCH  13  15
ENDBRANCH   1  13
BRANCH   4  17
ATOM     17  C   UNL d   1      60.620  49.635  52.033  0.00  0.00     0.018 A 
ATOM     18  C   UNL d   1      60.290  49.690  52.782  0.00  0.00     0.002 A 
ATOM     19  C   UNL d   1      60.765  49.703  53.454  0.00  0.00     0.011 A 
ATOM     20  C   UNL d   1      61.582  49.661  53.375  0.00  0.00     0.058 A 
ATOM     21  C   UNL d   1      61.918  49.607  52.647  0.00  0.00     0.011 A 
ATOM     22 CL   UNL d   1      62.048  49.676  54.073  0.00  0.00    -0.082 Cl
ATOM     23  C   UNL d   1      61.442  49.594  51.971  0.00  0.00     0.002 A 
ENDBRANCH   4  17
TORSDOF 4
ENDMDL
