MODEL 1
REMARK VINA RESULT:      -5.2      0.000      0.000
REMARK  7 active torsions:
REMARK  status: ('A' for Active; 'I' for Inactive)
REMARK    1  A    between atoms: C_3  and  S_1 
REMARK    2  A    between atoms: N_4  and  S_1 
REMARK    3  A    between atoms: C_2  and  C_9 
REMARK       I    between atoms: N_5  and  C_2 
REMARK    4  A    between atoms: C_15  and  N_4 
REMARK    5  A    between atoms: C_10  and  N_5 
REMARK    6  A    between atoms: C_18  and  C_15 
REMARK    7  A    between atoms: O_22  and  C_16 
ROOT
ATOM      1  C   UNL d   1     -42.773  13.302  21.206  0.00  0.00     0.058 A 
ATOM      2  C   UNL d   1     -42.853  12.548  21.539  0.00  0.00     0.005 A 
ATOM      3  C   UNL d   1     -43.423  13.803  21.161  0.00  0.00     0.005 A 
ATOM      4  C   UNL d   1     -44.230  12.800  21.780  0.00  0.00     0.020 A 
ATOM      5  C   UNL d   1     -43.580  12.300  21.825  0.00  0.00     0.002 A 
ATOM      6  C   UNL d   1     -44.153  13.549  21.450  0.00  0.00     0.002 A 
ENDROOT
BRANCH   4   7
ATOM      7  C   UNL d   1     -44.965  12.553  22.067  0.00  0.00     0.112 C 
BRANCH   7   8
ATOM      8  N   UNL d   1     -45.418  13.067  22.532  0.00  0.00    -0.157 NA
BRANCH   8   9
ATOM      9  S   UNL d   1     -46.163  12.826  22.814  0.00  0.00     0.285 S 
ATOM     10  O   UNL d   1     -46.462  12.830  22.039  0.00  0.00    -0.198 OA
ATOM     11  O   UNL d   1     -45.864  12.820  23.594  0.00  0.00    -0.198 OA
BRANCH   9  12
ATOM     12  C   UNL d   1     -46.901  12.586  23.098  0.00  0.00     0.107 A 
ATOM     13  C   UNL d   1     -47.542  13.099  23.068  0.00  0.00     0.037 A 
ATOM     14  C   UNL d   1     -48.283  12.863  23.351  0.00  0.00     0.095 A 
ATOM     15  C   UNL d   1     -48.381  12.113  23.663  0.00  0.00     0.024 A 
ATOM     16  C   UNL d   1     -47.738  11.592  23.695  0.00  0.00     0.003 A 
ATOM     17  C   UNL d   1     -46.998  11.829  23.412  0.00  0.00     0.013 A 
BRANCH  14  18
ATOM     18  O   UNL d   1     -48.924  13.380  23.320  0.00  0.00    -0.328 OA
ATOM     19  C   UNL d   1     -49.671  13.098  23.158  0.00  0.00     0.181 C 
ENDBRANCH  14  18
ENDBRANCH   9  12
ENDBRANCH   8   9
ENDBRANCH   7   8
ENDBRANCH   4   7
BRANCH   1  20
ATOM     20  C   UNL d   1     -42.041  13.559  20.916  0.00  0.00     0.279 C 
ATOM     21  N   UNL d   1     -41.588  14.076  21.361  0.00  0.00    -0.208 NA
ATOM     22  O   UNL d   1     -41.768  13.299  20.184  0.00  0.00    -0.265 OA
BRANCH  21  23
ATOM     23  C   UNL d   1     -40.859  14.333  21.073  0.00  0.00     0.086 A 
ATOM     24  C   UNL d   1     -40.161  14.046  21.416  0.00  0.00     0.031 A 
ATOM     25  C   UNL d   1     -39.434  14.304  21.126  0.00  0.00     0.059 A 
ATOM     26 CL   UNL d   1     -38.742  14.020  21.465  0.00  0.00    -0.082 Cl
ATOM     27  C   UNL d   1     -39.402  14.842  20.500  0.00  0.00     0.011 A 
ATOM     28  C   UNL d   1     -40.102  15.123  20.164  0.00  0.00     0.002 A 
ATOM     29  C   UNL d   1     -40.829  14.864  20.456  0.00  0.00     0.019 A 
ENDBRANCH  21  23
ENDBRANCH   1  20
TORSDOF 7
ENDMDL
MODEL 2
REMARK VINA RESULT:      -5.0      2.373      6.852
REMARK  7 active torsions:
REMARK  status: ('A' for Active; 'I' for Inactive)
REMARK    1  A    between atoms: C_3  and  S_1 
REMARK    2  A    between atoms: N_4  and  S_1 
REMARK    3  A    between atoms: C_2  and  C_9 
REMARK       I    between atoms: N_5  and  C_2 
REMARK    4  A    between atoms: C_15  and  N_4 
REMARK    5  A    between atoms: C_10  and  N_5 
REMARK    6  A    between atoms: C_18  and  C_15 
REMARK    7  A    between atoms: O_22  and  C_16 
ROOT
ATOM      1  C   UNL d   1     -45.307  12.656  22.468  0.00  0.00     0.058 A 
ATOM      2  C   UNL d   1     -44.665  12.143  22.565  0.00  0.00     0.005 A 
ATOM      3  C   UNL d   1     -45.245  13.303  21.963  0.00  0.00     0.005 A 
ATOM      4  C   UNL d   1     -43.903  12.924  21.655  0.00  0.00     0.020 A 
ATOM      5  C   UNL d   1     -43.965  12.278  22.159  0.00  0.00     0.002 A 
ATOM      6  C   UNL d   1     -44.540  13.435  21.556  0.00  0.00     0.002 A 
ENDROOT
BRANCH   4   7
ATOM      7  C   UNL d   1     -43.199  13.064  21.243  0.00  0.00     0.112 C 
BRANCH   7   8
ATOM      8  N   UNL d   1     -42.650  13.607  21.540  0.00  0.00    -0.157 NA
BRANCH   8   9
ATOM      9  S   UNL d   1     -41.989  13.822  21.084  0.00  0.00     0.285 S 
ATOM     10  O   UNL d   1     -42.230  14.617  21.101  0.00  0.00    -0.198 OA
ATOM     11  O   UNL d   1     -41.744  13.024  21.064  0.00  0.00    -0.198 OA
BRANCH   9  12
ATOM     12  C   UNL d   1     -41.330  14.033  20.630  0.00  0.00     0.107 A 
ATOM     13  C   UNL d   1     -41.356  13.973  19.811  0.00  0.00     0.037 A 
ATOM     14  C   UNL d   1     -40.701  14.182  19.353  0.00  0.00     0.095 A 
ATOM     15  C   UNL d   1     -40.018  14.451  19.715  0.00  0.00     0.024 A 
ATOM     16  C   UNL d   1     -39.987  14.513  20.541  0.00  0.00     0.003 A 
ATOM     17  C   UNL d   1     -40.643  14.304  20.998  0.00  0.00     0.013 A 
BRANCH  14  18
ATOM     18  O   UNL d   1     -40.730  14.121  18.532  0.00  0.00    -0.328 OA
ATOM     19  C   UNL d   1     -40.044  14.029  18.102  0.00  0.00     0.181 C 
ENDBRANCH  14  18
ENDBRANCH   9  12
ENDBRANCH   8   9
ENDBRANCH   7   8
ENDBRANCH   4   7
BRANCH   1  20
ATOM     20  C   UNL d   1     -46.017  12.526  22.875  0.00  0.00     0.279 C 
ATOM     21  N   UNL d   1     -46.702  12.371  22.455  0.00  0.00    -0.208 NA
ATOM     22  O   UNL d   1     -46.035  12.551  23.698  0.00  0.00    -0.265 OA
BRANCH  21  23
ATOM     23  C   UNL d   1     -47.408  12.241  22.859  0.00  0.00     0.086 A 
ATOM     24  C   UNL d   1     -48.001  12.820  22.840  0.00  0.00     0.031 A 
ATOM     25  C   UNL d   1     -48.707  12.688  23.245  0.00  0.00     0.059 A 
ATOM     26 CL   UNL d   1     -49.295  13.260  23.227  0.00  0.00    -0.082 Cl
ATOM     27  C   UNL d   1     -48.821  11.986  23.666  0.00  0.00     0.011 A 
ATOM     28  C   UNL d   1     -48.225  11.415  23.680  0.00  0.00     0.002 A 
ATOM     29  C   UNL d   1     -47.520  11.549  23.274  0.00  0.00     0.019 A 
ENDBRANCH  21  23
ENDBRANCH   1  20
TORSDOF 7
ENDMDL
MODEL 3
REMARK VINA RESULT:      -4.4      2.695      7.053
REMARK  7 active torsions:
REMARK  status: ('A' for Active; 'I' for Inactive)
REMARK    1  A    between atoms: C_3  and  S_1 
REMARK    2  A    between atoms: N_4  and  S_1 
REMARK    3  A    between atoms: C_2  and  C_9 
REMARK       I    between atoms: N_5  and  C_2 
REMARK    4  A    between atoms: C_15  and  N_4 
REMARK    5  A    between atoms: C_10  and  N_5 
REMARK    6  A    between atoms: C_18  and  C_15 
REMARK    7  A    between atoms: O_22  and  C_16 
ROOT
ATOM      1  C   UNL d   1     -47.134  12.921  22.863  0.00  0.00     0.058 A 
ATOM      2  C   UNL d   1     -46.638  12.281  23.038  0.00  0.00     0.005 A 
ATOM      3  C   UNL d   1     -46.820  13.610  22.543  0.00  0.00     0.005 A 
ATOM      4  C   UNL d   1     -45.519  13.021  22.573  0.00  0.00     0.020 A 
ATOM      5  C   UNL d   1     -45.833  12.333  22.893  0.00  0.00     0.002 A 
ATOM      6  C   UNL d   1     -46.009  13.658  22.398  0.00  0.00     0.002 A 
ENDROOT
BRANCH   4   7
ATOM      7  C   UNL d   1     -44.707  13.078  22.424  0.00  0.00     0.112 C 
BRANCH   7   8
ATOM      8  N   UNL d   1     -44.428  13.035  21.647  0.00  0.00    -0.157 NA
BRANCH   8   9
ATOM      9  S   UNL d   1     -43.636  13.228  21.478  0.00  0.00     0.285 S 
ATOM     10  O   UNL d   1     -43.725  13.953  21.873  0.00  0.00    -0.198 OA
ATOM     11  O   UNL d   1     -43.544  12.499  21.079  0.00  0.00    -0.198 OA
BRANCH   9  12
ATOM     12  C   UNL d   1     -42.849  13.417  21.308  0.00  0.00     0.107 A 
ATOM     13  C   UNL d   1     -42.641  14.188  21.117  0.00  0.00     0.037 A 
ATOM     14  C   UNL d   1     -41.856  14.381  20.946  0.00  0.00     0.095 A 
ATOM     15  C   UNL d   1     -41.278  13.802  20.968  0.00  0.00     0.024 A 
ATOM     16  C   UNL d   1     -41.483  13.023  21.160  0.00  0.00     0.003 A 
ATOM     17  C   UNL d   1     -42.268  12.830  21.330  0.00  0.00     0.013 A 
BRANCH  14  18
ATOM     18  O   UNL d   1     -41.650  15.156  20.755  0.00  0.00    -0.328 OA
ATOM     19  C   UNL d   1     -40.886  15.417  20.864  0.00  0.00     0.181 C 
ENDBRANCH  14  18
ENDBRANCH   9  12
ENDBRANCH   8   9
ENDBRANCH   7   8
ENDBRANCH   4   7
BRANCH   1  20
ATOM     20  C   UNL d   1     -47.949  12.875  23.008  0.00  0.00     0.279 C 
ATOM     21  N   UNL d   1     -48.390  12.283  22.653  0.00  0.00    -0.208 NA
ATOM     22  O   UNL d   1     -48.315  13.419  23.505  0.00  0.00    -0.265 OA
BRANCH  21  23
ATOM     23  C   UNL d   1     -49.200  12.237  22.796  0.00  0.00     0.086 A 
ATOM     24  C   UNL d   1     -49.729  12.593  22.265  0.00  0.00     0.031 A 
ATOM     25  C   UNL d   1     -50.539  12.545  22.411  0.00  0.00     0.059 A 
ATOM     26 CL   UNL d   1     -51.064  12.897  21.886  0.00  0.00    -0.082 Cl
ATOM     27  C   UNL d   1     -50.820  12.147  23.078  0.00  0.00     0.011 A 
ATOM     28  C   UNL d   1     -50.287  11.796  23.601  0.00  0.00     0.002 A 
ATOM     29  C   UNL d   1     -49.477  11.844  23.454  0.00  0.00     0.019 A 
ENDBRANCH  21  23
ENDBRANCH   1  20
TORSDOF 7
ENDMDL
