MODEL 1
REMARK VINA RESULT:      13.6      0.000      0.000
REMARK  4 active torsions:
REMARK  status: ('A' for Active; 'I' for Inactive)
REMARK    1  A    between atoms: C_5  and  N_1 
REMARK    2  A    between atoms: C_7  and  C_3 
REMARK    3  A    between atoms: C_8  and  C_4 
REMARK    4  A    between atoms: N_10  and  C_5 
ROOT
ATOM      1  N   UNL d   1     -41.411-121.794 -51.866  0.00  0.00    -0.203 N 
ATOM      2  N   UNL d   1     -41.321-121.805 -51.043  0.00  0.00    -0.163 NA
ATOM      3  C   UNL d   1     -41.392-122.560 -50.770  0.00  0.00     0.103 A 
ATOM      4  C   UNL d   1     -41.545-122.576 -52.124  0.00  0.00     0.087 A 
ATOM      5  C   UNL d   1     -41.534-123.056 -51.450  0.00  0.00     0.040 A 
ENDROOT
BRANCH   3   6
ATOM      6  C   UNL d   1     -41.333-122.788 -49.969  0.00  0.00     0.019 A 
ATOM      7  C   UNL d   1     -41.338-122.223 -49.369  0.00  0.00     0.002 A 
ATOM      8  C   UNL d   1     -41.279-122.471 -48.573  0.00  0.00     0.000 A 
ATOM      9  C   UNL d   1     -41.216-123.265 -48.394  0.00  0.00     0.000 A 
ATOM     10  C   UNL d   1     -41.213-123.816 -49.008  0.00  0.00     0.000 A 
ATOM     11  C   UNL d   1     -41.148-123.508 -47.435  0.00  0.00     0.000 C 
ATOM     12  C   UNL d   1     -41.271-123.584 -49.782  0.00  0.00     0.002 A 
ENDBRANCH   3   6
BRANCH   1  13
ATOM     13  C   UNL d   1     -41.375-121.115 -52.365  0.00  0.00     0.222 C 
ATOM     14  S   UNL d   1     -41.154-121.213 -53.176  0.00  0.00    -0.037 SA
BRANCH  13  15
ATOM     15  N   UNL d   1     -41.554-120.341 -52.072  0.00  0.00    -0.214 NA
ATOM     16  C   UNL d   1     -42.311-120.177 -51.769  0.00  0.00     0.122 C 
ENDBRANCH  13  15
ENDBRANCH   1  13
BRANCH   4  17
ATOM     17  C   UNL d   1     -41.668-122.853 -52.893  0.00  0.00     0.018 A 
ATOM     18  C   UNL d   1     -42.318-123.319 -53.075  0.00  0.00     0.002 A 
ATOM     19  C   UNL d   1     -42.440-123.595 -53.842  0.00  0.00     0.007 A 
ATOM     20  C   UNL d   1     -41.902-123.401 -54.432  0.00  0.00     0.035 A 
ATOM     21  C   UNL d   1     -41.261-122.946 -54.267  0.00  0.00     0.007 A 
ATOM     22 BR   UNL d   1     -42.044-123.692 -55.206  0.00  0.00    -0.049 Br
ATOM     23  C   UNL d   1     -41.138-122.668 -53.498  0.00  0.00     0.002 A 
ENDBRANCH   4  17
TORSDOF 4
ENDMDL
MODEL 2
REMARK VINA RESULT:      16.5      1.197      1.789
REMARK  4 active torsions:
REMARK  status: ('A' for Active; 'I' for Inactive)
REMARK    1  A    between atoms: C_5  and  N_1 
REMARK    2  A    between atoms: C_7  and  C_3 
REMARK    3  A    between atoms: C_8  and  C_4 
REMARK    4  A    between atoms: N_10  and  C_5 
ROOT
ATOM      1  N   UNL d   1     -41.832-121.453 -53.299  0.00  0.00    -0.203 N 
ATOM      2  N   UNL d   1     -41.667-121.574 -52.497  0.00  0.00    -0.163 NA
ATOM      3  C   UNL d   1     -41.695-122.361 -52.327  0.00  0.00     0.103 A 
ATOM      4  C   UNL d   1     -41.970-122.197 -53.652  0.00  0.00     0.087 A 
ATOM      5  C   UNL d   1     -41.887-122.764 -53.055  0.00  0.00     0.040 A 
ENDROOT
BRANCH   3   6
ATOM      6  C   UNL d   1     -41.558-122.694 -51.574  0.00  0.00     0.019 A 
ATOM      7  C   UNL d   1     -41.661-123.501 -51.445  0.00  0.00     0.002 A 
ATOM      8  C   UNL d   1     -41.518-123.816 -50.684  0.00  0.00     0.000 A 
ATOM      9  C   UNL d   1     -41.280-123.326 -50.076  0.00  0.00     0.000 A 
ATOM     10  C   UNL d   1     -41.182-122.520 -50.224  0.00  0.00     0.000 A 
ATOM     11  C   UNL d   1     -41.124-123.748 -49.191  0.00  0.00     0.000 C 
ATOM     12  C   UNL d   1     -41.317-122.208 -50.959  0.00  0.00     0.002 A 
ENDBRANCH   3   6
BRANCH   1  13
ATOM     13  C   UNL d   1     -41.858-120.711 -53.699  0.00  0.00     0.222 C 
ATOM     14  S   UNL d   1     -42.507-120.547 -54.217  0.00  0.00    -0.037 SA
BRANCH  13  15
ATOM     15  N   UNL d   1     -41.252-120.130 -53.593  0.00  0.00    -0.214 NA
ATOM     16  C   UNL d   1     -41.270-119.626 -52.931  0.00  0.00     0.122 C 
ENDBRANCH  13  15
ENDBRANCH   1  13
BRANCH   4  17
ATOM     17  C   UNL d   1     -42.157-122.370 -54.438  0.00  0.00     0.018 A 
ATOM     18  C   UNL d   1     -42.937-122.419 -54.687  0.00  0.00     0.002 A 
ATOM     19  C   UNL d   1     -43.121-122.592 -55.470  0.00  0.00     0.007 A 
ATOM     20  C   UNL d   1     -42.515-122.717 -56.010  0.00  0.00     0.035 A 
ATOM     21  C   UNL d   1     -41.747-122.673 -55.781  0.00  0.00     0.007 A 
ATOM     22 BR   UNL d   1     -42.724-122.892 -56.804  0.00  0.00    -0.049 Br
ATOM     23  C   UNL d   1     -41.561-122.499 -54.994  0.00  0.00     0.002 A 
ENDBRANCH   4  17
TORSDOF 4
ENDMDL
