MODEL 1
REMARK VINA RESULT:     131.2      0.000      0.000
REMARK  5 active torsions:
REMARK  status: ('A' for Active; 'I' for Inactive)
REMARK    1  A    between atoms: C_14  and  N_4 
REMARK    2  A    between atoms: C_15  and  C_9 
REMARK    3  A    between atoms: O_20  and  C_12 
REMARK    4  A    between atoms: O_21  and  C_13 
REMARK    5  A    between atoms: C_18  and  C_14 
ROOT
ATOM      1  C   UNL d   1      59.291  49.033  51.263  0.00  0.00     0.056 A 
ATOM      2  C   UNL d   1      59.627  49.323  51.965  0.00  0.00     0.107 A 
ATOM      3  C   UNL d   1      60.430  49.223  52.112  0.00  0.00     0.038 A 
ATOM      4  N   UNL d   1      60.573  48.547  50.869  0.00  0.00    -0.304 N 
ATOM      5  N   UNL d   1      59.023  49.682  52.400  0.00  0.00    -0.148 NA
ATOM      6  C   UNL d   1      59.767  48.643  50.712  0.00  0.00     0.083 A 
ATOM      7  N   UNL d   1      58.319  49.615  51.973  0.00  0.00    -0.148 NA
ATOM      8  C   UNL d   1      60.906  48.832  51.561  0.00  0.00     0.068 A 
ATOM      9  C   UNL d   1      58.479  49.215  51.270  0.00  0.00     0.106 A 
ATOM     10  C   UNL d   1      61.705  48.736  51.713  0.00  0.00     0.044 A 
ATOM     11  C   UNL d   1      60.759  49.512  52.809  0.00  0.00     0.029 A 
ATOM     12  C   UNL d   1      62.038  49.021  52.405  0.00  0.00     0.118 A 
ATOM     13  C   UNL d   1      61.563  49.411  52.956  0.00  0.00     0.116 A 
ENDROOT
BRANCH   4  14
ATOM     14  C   UNL d   1      61.052  48.154  50.314  0.00  0.00     0.080 C 
BRANCH  14  15
ATOM     15  C   UNL d   1      60.988  47.338  50.218  0.00  0.00     0.018 A 
ATOM     16  C   UNL d   1      61.131  46.838  50.855  0.00  0.00     0.002 A 
ATOM     17  C   UNL d   1      61.068  46.015  50.763  0.00  0.00     0.000 A 
ATOM     18  C   UNL d   1      60.858  45.699  50.024  0.00  0.00     0.000 A 
ATOM     19  C   UNL d   1      60.714  46.208  49.384  0.00  0.00     0.000 A 
ATOM     20  C   UNL d   1      60.792  44.877  49.923  0.00  0.00     0.000 C 
ATOM     21  C   UNL d   1      60.778  47.022  49.480  0.00  0.00     0.002 A 
ENDBRANCH  14  15
ENDBRANCH   4  14
BRANCH   9  22
ATOM     22  C   UNL d   1      57.870  49.071  50.733  0.00  0.00     0.020 A 
ATOM     23  C   UNL d   1      57.455  49.704  50.408  0.00  0.00     0.004 A 
ATOM     24  C   UNL d   1      56.841  49.568  49.868  0.00  0.00     0.030 A 
ATOM     25  C   UNL d   1      56.646  48.781  49.656  0.00  0.00     0.140 A 
ATOM     26  C   UNL d   1      57.068  48.151  49.988  0.00  0.00     0.030 A 
ATOM     27  F   UNL d   1      56.036  48.624  49.118  0.00  0.00    -0.204 F 
ATOM     28  C   UNL d   1      57.676  48.294  50.523  0.00  0.00     0.004 A 
ENDBRANCH   9  22
BRANCH  12  29
ATOM     29  O   UNL d   1      62.854  48.920  52.557  0.00  0.00    -0.326 OA
ATOM     30  C   UNL d   1      63.106  48.565  53.259  0.00  0.00     0.181 C 
ENDBRANCH  12  29
BRANCH  13  31
ATOM     31  O   UNL d   1      61.902  49.702  53.660  0.00  0.00    -0.326 OA
ATOM     32  C   UNL d   1      61.713  49.354  54.385  0.00  0.00     0.181 C 
ENDBRANCH  13  31
TORSDOF 5
ENDMDL
