MODEL 1
REMARK VINA RESULT:     118.0      0.000      0.000
REMARK  5 active torsions:
REMARK  status: ('A' for Active; 'I' for Inactive)
REMARK    1  A    between atoms: C_4  and  C_1 
REMARK    2  A    between atoms: N_5  and  C_2 
REMARK       I    between atoms: N_9  and  C_4 
REMARK       I    between atoms: C_7  and  N_5 
REMARK    3  A    between atoms: C_10  and  C_7 
REMARK    4  A    between atoms: C_21  and  N_9 
REMARK    5  A    between atoms: O_29  and  C_22 
ROOT
ATOM      1  C   UNL d   1     -55.568-102.185 -43.324  0.00  0.00     0.175 A 
ATOM      2  C   UNL d   1     -56.075-101.800 -43.861  0.00  0.00     0.114 A 
ATOM      3  O   UNL d   1     -54.974-102.553 -43.773  0.00  0.00    -0.301 OA
ATOM      4  C   UNL d   1     -55.793-101.934 -44.618  0.00  0.00     0.043 A 
ATOM      5  C   UNL d   1     -55.112-102.400 -44.567  0.00  0.00     0.102 A 
ATOM      6  C   UNL d   1     -56.069-101.690 -45.357  0.00  0.00     0.004 A 
ATOM      7  C   UNL d   1     -54.712-102.618 -45.249  0.00  0.00     0.025 A 
ATOM      8  C   UNL d   1     -55.664-101.912 -46.044  0.00  0.00     0.000 A 
ATOM      9  C   UNL d   1     -54.982-102.379 -45.984  0.00  0.00     0.002 A 
ENDROOT
BRANCH   2  10
ATOM     10  N   UNL d   1     -56.750-101.359 -43.657  0.00  0.00    -0.206 NA
ATOM     11  C   UNL d   1     -56.948-100.690 -44.096  0.00  0.00     0.279 C 
ATOM     12  O   UNL d   1     -56.482-100.457 -44.734  0.00  0.00    -0.265 OA
BRANCH  11  13
ATOM     13  C   UNL d   1     -57.616-100.253 -43.893  0.00  0.00     0.060 A 
ATOM     14  C   UNL d   1     -58.084 -99.925 -44.481  0.00  0.00     0.031 A 
ATOM     15  C   UNL d   1     -58.746 -99.493 -44.279  0.00  0.00     0.119 A 
ATOM     16  O   UNL d   1     -59.315 -99.101 -44.737  0.00  0.00    -0.300 OA
ATOM     17  C   UNL d   1     -58.940 -99.388 -43.484  0.00  0.00     0.119 A 
ATOM     18  C   UNL d   1     -59.861 -98.756 -44.219  0.00  0.00     0.304 A 
ATOM     19  O   UNL d   1     -59.625 -98.935 -43.449  0.00  0.00    -0.300 OA
ATOM     20  C   UNL d   1     -58.472 -99.716 -42.897  0.00  0.00     0.026 A 
ATOM     21  C   UNL d   1     -57.800-100.154 -43.112  0.00  0.00     0.007 A 
ENDBRANCH  11  13
ENDBRANCH   2  10
BRANCH   1  22
ATOM     22  C   UNL d   1     -55.643-102.197 -42.501  0.00  0.00     0.303 C 
ATOM     23  N   UNL d   1     -55.301-102.805 -42.071  0.00  0.00    -0.206 NA
ATOM     24  O   UNL d   1     -56.064-101.596 -42.116  0.00  0.00    -0.263 OA
BRANCH  23  25
ATOM     25  C   UNL d   1     -55.374-102.820 -41.248  0.00  0.00     0.085 A 
ATOM     26  C   UNL d   1     -56.128-102.841 -40.913  0.00  0.00     0.021 A 
ATOM     27  C   UNL d   1     -56.210-102.857 -40.088  0.00  0.00     0.026 A 
ATOM     28  C   UNL d   1     -55.533-102.852 -39.610  0.00  0.00     0.094 A 
ATOM     29  C   UNL d   1     -54.786-102.831 -39.952  0.00  0.00     0.026 A 
ATOM     30  C   UNL d   1     -54.711-102.815 -40.779  0.00  0.00     0.021 A 
BRANCH  28  31
ATOM     31  O   UNL d   1     -55.609-102.867 -38.791  0.00  0.00    -0.328 OA
ATOM     32  C   UNL d   1     -56.030-102.269 -38.409  0.00  0.00     0.181 C 
ENDBRANCH  28  31
ENDBRANCH  23  25
ENDBRANCH   1  22
TORSDOF 5
ENDMDL
