MODEL 1
REMARK VINA RESULT:      -1.1      0.000      0.000
REMARK  7 active torsions:
REMARK  status: ('A' for Active; 'I' for Inactive)
REMARK    1  A    between atoms: N_9  and  C_2 
REMARK    2  A    between atoms: C_8  and  C_14 
REMARK    3  A    between atoms: C_15  and  N_9 
REMARK    4  A    between atoms: C_14  and  C_16 
REMARK    5  A    between atoms: C_17  and  C_15 
REMARK    6  A    between atoms: C_16  and  C_18 
REMARK    7  A    between atoms: C_18  and  C_17 
ROOT
ATOM      1  N   UNL d   1     -42.007-123.624 -50.944  0.00  0.00    -0.198 NA
ATOM      2  C   UNL d   1     -41.572-123.125 -51.441  0.00  0.00     0.166 A 
ATOM      3  C   UNL d   1     -42.432-123.307 -50.312  0.00  0.00     0.222 A 
ATOM      4  C   UNL d   1     -41.565-122.311 -51.305  0.00  0.00     0.054 A 
ATOM      5  N   UNL d   1     -42.424-122.491 -50.178  0.00  0.00    -0.217 NA
ATOM      6  C   UNL d   1     -41.991-121.995 -50.673  0.00  0.00     0.087 A 
ATOM      7  S   UNL d   1     -42.868-123.799 -49.812  0.00  0.00    -0.037 SA
ATOM      8  C   UNL d   1     -41.134-121.820 -51.800  0.00  0.00     0.005 A 
ATOM      9  C   UNL d   1     -41.985-121.186 -50.536  0.00  0.00     0.019 A 
ATOM     10  C   UNL d   1     -41.125-121.002 -51.665  0.00  0.00     0.000 A 
ATOM     11  C   UNL d   1     -41.551-120.685 -51.033  0.00  0.00     0.002 A 
ENDROOT
BRANCH   2  12
ATOM     12  N   UNL d   1     -41.148-123.441 -52.071  0.00  0.00    -0.225 NA
BRANCH  12  13
ATOM     13  C   UNL d   1     -41.551-123.817 -52.683  0.00  0.00     0.101 C 
BRANCH  13  14
ATOM     14  C   UNL d   1     -41.230-123.812 -53.444  0.00  0.00     0.021 C 
BRANCH  14  15
ATOM     15  C   UNL d   1     -41.727-123.714 -54.099  0.00  0.00     0.002 C 
BRANCH  15  16
ATOM     16  C   UNL d   1     -41.529-123.173 -54.684  0.00  0.00     0.006 C 
BRANCH  16  17
ATOM     17  C   UNL d   1     -42.122-122.842 -55.154  0.00  0.00     0.070 C 
BRANCH  17  18
ATOM     18  C   UNL d   1     -42.071-122.051 -55.382  0.00  0.00     0.211 C 
ATOM     19  O   UNL d   1     -42.756-121.614 -55.522  0.00  0.00    -0.644 OA
ATOM     20  O   UNL d   1     -41.326-121.695 -55.470  0.00  0.00    -0.644 OA
ENDBRANCH  17  18
ENDBRANCH  16  17
ENDBRANCH  15  16
ENDBRANCH  14  15
ENDBRANCH  13  14
ENDBRANCH  12  13
ENDBRANCH   2  12
TORSDOF 7
ENDMDL
MODEL 2
REMARK VINA RESULT:       0.5      3.183      4.487
REMARK  7 active torsions:
REMARK  status: ('A' for Active; 'I' for Inactive)
REMARK    1  A    between atoms: N_9  and  C_2 
REMARK    2  A    between atoms: C_8  and  C_14 
REMARK    3  A    between atoms: C_15  and  N_9 
REMARK    4  A    between atoms: C_14  and  C_16 
REMARK    5  A    between atoms: C_17  and  C_15 
REMARK    6  A    between atoms: C_16  and  C_18 
REMARK    7  A    between atoms: C_18  and  C_17 
ROOT
ATOM      1  N   UNL d   1     -41.277-123.088 -52.574  0.00  0.00    -0.198 NA
ATOM      2  C   UNL d   1     -41.212-122.624 -51.892  0.00  0.00     0.166 A 
ATOM      3  C   UNL d   1     -41.330-122.727 -53.314  0.00  0.00     0.222 A 
ATOM      4  C   UNL d   1     -41.200-121.802 -51.952  0.00  0.00     0.054 A 
ATOM      5  N   UNL d   1     -41.318-121.903 -53.372  0.00  0.00    -0.217 NA
ATOM      6  C   UNL d   1     -41.253-121.441 -52.692  0.00  0.00     0.087 A 
ATOM      7  S   UNL d   1     -41.395-123.183 -53.999  0.00  0.00    -0.037 SA
ATOM      8  C   UNL d   1     -41.135-121.345 -51.274  0.00  0.00     0.005 A 
ATOM      9  C   UNL d   1     -41.241-120.623 -52.754  0.00  0.00     0.019 A 
ATOM     10  C   UNL d   1     -41.123-120.518 -51.332  0.00  0.00     0.000 A 
ATOM     11  C   UNL d   1     -41.176-120.157 -52.072  0.00  0.00     0.002 A 
ENDROOT
BRANCH   2  12
ATOM     12  N   UNL d   1     -41.160-122.984 -51.154  0.00  0.00    -0.225 NA
BRANCH  12  13
ATOM     13  C   UNL d   1     -41.841-123.277 -50.796  0.00  0.00     0.101 C 
BRANCH  13  14
ATOM     14  C   UNL d   1     -41.775-123.817 -50.177  0.00  0.00     0.021 C 
BRANCH  14  15
ATOM     15  C   UNL d   1     -42.298-123.776 -49.536  0.00  0.00     0.002 C 
BRANCH  15  16
ATOM     16  C   UNL d   1     -42.006-123.657 -48.778  0.00  0.00     0.006 C 
BRANCH  16  17
ATOM     17  C   UNL d   1     -42.525-123.654 -48.135  0.00  0.00     0.070 C 
BRANCH  17  18
ATOM     18  C   UNL d   1     -42.225-123.649 -47.367  0.00  0.00     0.211 C 
ATOM     19  O   UNL d   1     -42.736-123.688 -46.721  0.00  0.00    -0.644 OA
ATOM     20  O   UNL d   1     -41.405-123.603 -47.245  0.00  0.00    -0.644 OA
ENDBRANCH  17  18
ENDBRANCH  16  17
ENDBRANCH  15  16
ENDBRANCH  14  15
ENDBRANCH  13  14
ENDBRANCH  12  13
ENDBRANCH   2  12
TORSDOF 7
ENDMDL
