MODEL 1
REMARK VINA RESULT:      -2.6      0.000      0.000
REMARK  4 active torsions:
REMARK  status: ('A' for Active; 'I' for Inactive)
REMARK       I    between atoms: C_2  and  N_1 
REMARK       I    between atoms: N_8  and  C_2 
REMARK    1  A    between atoms: C_12  and  N_8 
REMARK    2  A    between atoms: C_9  and  C_12 
REMARK    3  A    between atoms: O_13  and  C_9 
REMARK    4  A    between atoms: C_18  and  O_13 
ROOT
ATOM      1  N   UNL d   1      33.188  21.395 -22.794  0.00  0.00    -0.258 N 
ATOM      2  C   UNL d   1      33.209  20.725 -23.273  0.00  0.00     0.354 C 
ATOM      3  S   UNL d   1      33.145  22.747 -21.827  0.00  0.00    -0.084 SA
ATOM      4  C   UNL d   1      33.198  22.148 -23.132  0.00  0.00     0.074 A 
ATOM      5  C   UNL d   1      33.156  21.312 -21.974  0.00  0.00     0.074 A 
ATOM      6  C   UNL d   1      33.177  22.825 -22.652  0.00  0.00     0.046 A 
ATOM      7  C   UNL d   1      33.134  21.991 -21.488  0.00  0.00     0.046 A 
ATOM      8  N   UNL d   1      33.199  19.968 -22.928  0.00  0.00    -0.185 NA
ATOM      9  O   UNL d   1      33.241  20.808 -24.091  0.00  0.00    -0.244 OA
ATOM     10  C   UNL d   1      33.230  22.222 -23.948  0.00  0.00     0.018 A 
ATOM     11  C   UNL d   1      33.146  20.563 -21.644  0.00  0.00     0.018 A 
ATOM     12  C   UNL d   1      33.103  21.914 -20.678  0.00  0.00     0.008 A 
ATOM     13  C   UNL d   1      33.187  23.575 -22.995  0.00  0.00     0.008 A 
ATOM     14  C   UNL d   1      33.241  22.971 -24.301  0.00  0.00     0.002 A 
ATOM     15  C   UNL d   1      33.114  20.482 -20.807  0.00  0.00     0.002 A 
ATOM     16  C   UNL d   1      33.092  21.160 -20.329  0.00  0.00     0.001 A 
ATOM     17  C   UNL d   1      33.219  23.644 -23.825  0.00  0.00     0.001 A 
ENDROOT
BRANCH   8  18
ATOM     18  C   UNL d   1      33.221  19.277 -23.422  0.00  0.00     0.172 C 
BRANCH  18  19
ATOM     19  C   UNL d   1      32.883  18.587 -23.154  0.00  0.00     0.320 C 
ATOM     20  O   UNL d   1      33.236  18.175 -22.535  0.00  0.00    -0.257 OA
BRANCH  19  21
ATOM     21  O   UNL d   1      32.201  18.304 -23.494  0.00  0.00    -0.270 OA
BRANCH  21  22
ATOM     22  C   UNL d   1      32.195  17.549 -23.854  0.00  0.00     0.126 C 
ATOM     23  C   UNL d   1      31.492  17.231 -24.129  0.00  0.00     0.029 C 
ENDBRANCH  21  22
ENDBRANCH  19  21
ENDBRANCH  18  19
ENDBRANCH   8  18
TORSDOF 4
ENDMDL
MODEL 2
REMARK VINA RESULT:      -2.5      1.793      4.340
REMARK  4 active torsions:
REMARK  status: ('A' for Active; 'I' for Inactive)
REMARK       I    between atoms: C_2  and  N_1 
REMARK       I    between atoms: N_8  and  C_2 
REMARK    1  A    between atoms: C_12  and  N_8 
REMARK    2  A    between atoms: C_9  and  C_12 
REMARK    3  A    between atoms: O_13  and  C_9 
REMARK    4  A    between atoms: C_18  and  O_13 
ROOT
ATOM      1  N   UNL d   1      33.227  19.165 -23.195  0.00  0.00    -0.258 N 
ATOM      2  C   UNL d   1      33.229  19.327 -22.387  0.00  0.00     0.354 C 
ATOM      3  S   UNL d   1      33.223  18.838 -24.825  0.00  0.00    -0.084 SA
ATOM      4  C   UNL d   1      33.222  18.384 -23.462  0.00  0.00     0.074 A 
ATOM      5  C   UNL d   1      33.230  19.786 -23.738  0.00  0.00     0.074 A 
ATOM      6  C   UNL d   1      33.220  18.217 -24.275  0.00  0.00     0.046 A 
ATOM      7  C   UNL d   1      33.228  19.622 -24.557  0.00  0.00     0.046 A 
ATOM      8  N   UNL d   1      33.235  20.116 -22.122  0.00  0.00    -0.185 NA
ATOM      9  O   UNL d   1      33.226  18.708 -21.846  0.00  0.00    -0.244 OA
ATOM     10  C   UNL d   1      33.219  17.773 -22.916  0.00  0.00     0.018 A 
ATOM     11  C   UNL d   1      33.236  20.558 -23.467  0.00  0.00     0.018 A 
ATOM     12  C   UNL d   1      33.232  20.232 -25.097  0.00  0.00     0.008 A 
ATOM     13  C   UNL d   1      33.214  17.435 -24.536  0.00  0.00     0.008 A 
ATOM     14  C   UNL d   1      33.213  16.984 -23.169  0.00  0.00     0.002 A 
ATOM     15  C   UNL d   1      33.239  21.189 -24.024  0.00  0.00     0.002 A 
ATOM     16  C   UNL d   1      33.237  21.021 -24.837  0.00  0.00     0.001 A 
ATOM     17  C   UNL d   1      33.211  16.817 -23.977  0.00  0.00     0.001 A 
ENDROOT
BRANCH   8  18
ATOM     18  C   UNL d   1      33.237  20.283 -21.290  0.00  0.00     0.172 C 
BRANCH  18  19
ATOM     19  C   UNL d   1      32.804  20.914 -21.010  0.00  0.00     0.320 C 
ATOM     20  O   UNL d   1      31.987  20.847 -20.939  0.00  0.00    -0.257 OA
BRANCH  19  21
ATOM     21  O   UNL d   1      33.175  21.607 -20.802  0.00  0.00    -0.270 OA
BRANCH  21  22
ATOM     22  C   UNL d   1      32.761  22.189 -20.368  0.00  0.00     0.126 C 
ATOM     23  C   UNL d   1      33.164  22.675 -19.846  0.00  0.00     0.029 C 
ENDBRANCH  21  22
ENDBRANCH  19  21
ENDBRANCH  18  19
ENDBRANCH   8  18
TORSDOF 4
ENDMDL
MODEL 3
REMARK VINA RESULT:      -2.2      2.000      4.290
REMARK  4 active torsions:
REMARK  status: ('A' for Active; 'I' for Inactive)
REMARK       I    between atoms: C_2  and  N_1 
REMARK       I    between atoms: N_8  and  C_2 
REMARK    1  A    between atoms: C_12  and  N_8 
REMARK    2  A    between atoms: C_9  and  C_12 
REMARK    3  A    between atoms: O_13  and  C_9 
REMARK    4  A    between atoms: C_18  and  O_13 
ROOT
ATOM      1  N   UNL d   1      33.191  21.168 -22.224  0.00  0.00    -0.258 N 
ATOM      2  C   UNL d   1      33.167  21.298 -21.411  0.00  0.00     0.354 C 
ATOM      3  S   UNL d   1      33.241  20.905 -23.864  0.00  0.00    -0.084 SA
ATOM      4  C   UNL d   1      33.203  20.398 -22.521  0.00  0.00     0.074 A 
ATOM      5  C   UNL d   1      33.204  21.810 -22.742  0.00  0.00     0.074 A 
ATOM      6  C   UNL d   1      33.228  20.263 -23.340  0.00  0.00     0.046 A 
ATOM      7  C   UNL d   1      33.229  21.678 -23.566  0.00  0.00     0.046 A 
ATOM      8  N   UNL d   1      33.154  22.076 -21.115  0.00  0.00    -0.185 NA
ATOM      9  O   UNL d   1      33.154  20.658 -20.894  0.00  0.00    -0.244 OA
ATOM     10  C   UNL d   1      33.191  19.765 -22.000  0.00  0.00     0.018 A 
ATOM     11  C   UNL d   1      33.191  22.571 -22.442  0.00  0.00     0.018 A 
ATOM     12  C   UNL d   1      33.241  22.308 -24.082  0.00  0.00     0.008 A 
ATOM     13  C   UNL d   1      33.240  19.492 -23.631  0.00  0.00     0.008 A 
ATOM     14  C   UNL d   1      33.203  18.988 -22.283  0.00  0.00     0.002 A 
ATOM     15  C   UNL d   1      33.204  23.223 -22.973  0.00  0.00     0.002 A 
ATOM     16  C   UNL d   1      33.229  23.087 -23.792  0.00  0.00     0.001 A 
ATOM     17  C   UNL d   1      33.227  18.853 -23.097  0.00  0.00     0.001 A 
ENDROOT
BRANCH   8  18
ATOM     18  C   UNL d   1      33.129  22.210 -20.277  0.00  0.00     0.172 C 
BRANCH  18  19
ATOM     19  C   UNL d   1      32.729  22.860 -19.991  0.00  0.00     0.320 C 
ATOM     20  O   UNL d   1      31.938  22.970 -20.190  0.00  0.00    -0.257 OA
BRANCH  19  21
ATOM     21  O   UNL d   1      33.108  23.397 -19.512  0.00  0.00    -0.270 OA
BRANCH  21  22
ATOM     22  C   UNL d   1      32.726  23.690 -18.829  0.00  0.00     0.126 C 
ATOM     23  C   UNL d   1      33.109  23.671 -18.105  0.00  0.00     0.029 C 
ENDBRANCH  21  22
ENDBRANCH  19  21
ENDBRANCH  18  19
ENDBRANCH   8  18
TORSDOF 4
ENDMDL
MODEL 4
REMARK VINA RESULT:      -1.1      2.514      5.528
REMARK  4 active torsions:
REMARK  status: ('A' for Active; 'I' for Inactive)
REMARK       I    between atoms: C_2  and  N_1 
REMARK       I    between atoms: N_8  and  C_2 
REMARK    1  A    between atoms: C_12  and  N_8 
REMARK    2  A    between atoms: C_9  and  C_12 
REMARK    3  A    between atoms: O_13  and  C_9 
REMARK    4  A    between atoms: C_18  and  O_13 
ROOT
ATOM      1  N   UNL d   1      31.210  17.244 -24.410  0.00  0.00    -0.258 N 
ATOM      2  C   UNL d   1      31.293  18.064 -24.395  0.00  0.00     0.354 C 
ATOM      3  S   UNL d   1      31.043  15.591 -24.443  0.00  0.00    -0.084 SA
ATOM      4  C   UNL d   1      30.482  16.904 -24.596  0.00  0.00     0.074 A 
ATOM      5  C   UNL d   1      31.859  16.763 -24.240  0.00  0.00     0.074 A 
ATOM      6  C   UNL d   1      30.395  16.079 -24.613  0.00  0.00     0.046 A 
ATOM      7  C   UNL d   1      31.775  15.932 -24.256  0.00  0.00     0.046 A 
ATOM      8  N   UNL d   1      32.031  18.403 -24.207  0.00  0.00    -0.185 NA
ATOM      9  O   UNL d   1      30.648  18.544 -24.564  0.00  0.00    -0.244 OA
ATOM     10  C   UNL d   1      29.843  17.389 -24.764  0.00  0.00     0.018 A 
ATOM     11  C   UNL d   1      32.579  17.106 -24.057  0.00  0.00     0.018 A 
ATOM     12  C   UNL d   1      32.411  15.453 -24.089  0.00  0.00     0.008 A 
ATOM     13  C   UNL d   1      29.665  15.744 -24.799  0.00  0.00     0.008 A 
ATOM     14  C   UNL d   1      29.106  17.062 -24.952  0.00  0.00     0.002 A 
ATOM     15  C   UNL d   1      33.237  16.612 -23.884  0.00  0.00     0.002 A 
ATOM     16  C   UNL d   1      33.149  15.786 -23.901  0.00  0.00     0.001 A 
ATOM     17  C   UNL d   1      29.018  16.242 -24.969  0.00  0.00     0.001 A 
ENDROOT
BRANCH   8  18
ATOM     18  C   UNL d   1      32.116  19.247 -24.190  0.00  0.00     0.172 C 
BRANCH  18  19
ATOM     19  C   UNL d   1      32.863  19.571 -24.196  0.00  0.00     0.320 C 
ATOM     20  O   UNL d   1      33.236  19.719 -24.915  0.00  0.00    -0.257 OA
BRANCH  19  21
ATOM     21  O   UNL d   1      33.240  19.747 -23.498  0.00  0.00    -0.270 OA
BRANCH  21  22
ATOM     22  C   UNL d   1      33.158  20.507 -23.158  0.00  0.00     0.126 C 
ATOM     23  C   UNL d   1      33.177  20.596 -22.344  0.00  0.00     0.029 C 
ENDBRANCH  21  22
ENDBRANCH  19  21
ENDBRANCH  18  19
ENDBRANCH   8  18
TORSDOF 4
ENDMDL
MODEL 5
REMARK VINA RESULT:      -0.1      1.452      3.744
REMARK  4 active torsions:
REMARK  status: ('A' for Active; 'I' for Inactive)
REMARK       I    between atoms: C_2  and  N_1 
REMARK       I    between atoms: N_8  and  C_2 
REMARK    1  A    between atoms: C_12  and  N_8 
REMARK    2  A    between atoms: C_9  and  C_12 
REMARK    3  A    between atoms: O_13  and  C_9 
REMARK    4  A    between atoms: C_18  and  O_13 
ROOT
ATOM      1  N   UNL d   1      33.080  20.044 -23.419  0.00  0.00    -0.258 N 
ATOM      2  C   UNL d   1      33.120  20.577 -24.047  0.00  0.00     0.354 C 
ATOM      3  S   UNL d   1      32.999  18.970 -22.154  0.00  0.00    -0.084 SA
ATOM      4  C   UNL d   1      33.002  19.236 -23.565  0.00  0.00     0.074 A 
ATOM      5  C   UNL d   1      33.118  20.322 -22.643  0.00  0.00     0.074 A 
ATOM      6  C   UNL d   1      32.961  18.697 -22.936  0.00  0.00     0.046 A 
ATOM      7  C   UNL d   1      33.077  19.782 -22.007  0.00  0.00     0.046 A 
ATOM      8  N   UNL d   1      33.199  21.392 -23.895  0.00  0.00    -0.185 NA
ATOM      9  O   UNL d   1      33.083  20.302 -24.820  0.00  0.00    -0.244 OA
ATOM     10  C   UNL d   1      32.965  18.969 -24.340  0.00  0.00     0.018 A 
ATOM     11  C   UNL d   1      33.195  21.124 -22.504  0.00  0.00     0.018 A 
ATOM     12  C   UNL d   1      33.114  20.050 -21.239  0.00  0.00     0.008 A 
ATOM     13  C   UNL d   1      32.883  17.890 -23.087  0.00  0.00     0.008 A 
ATOM     14  C   UNL d   1      32.887  18.161 -24.501  0.00  0.00     0.002 A 
ATOM     15  C   UNL d   1      33.233  21.403 -21.711  0.00  0.00     0.002 A 
ATOM     16  C   UNL d   1      33.192  20.862 -21.082  0.00  0.00     0.001 A 
ATOM     17  C   UNL d   1      32.846  17.624 -23.877  0.00  0.00     0.001 A 
ENDROOT
BRANCH   8  18
ATOM     18  C   UNL d   1      33.241  21.941 -24.541  0.00  0.00     0.172 C 
BRANCH  18  19
ATOM     19  C   UNL d   1      32.949  22.695 -24.441  0.00  0.00     0.320 C 
ATOM     20  O   UNL d   1      33.111  23.105 -23.746  0.00  0.00    -0.257 OA
BRANCH  19  21
ATOM     21  O   UNL d   1      32.500  23.042 -25.023  0.00  0.00    -0.270 OA
BRANCH  21  22
ATOM     22  C   UNL d   1      32.013  23.696 -24.841  0.00  0.00     0.126 C 
ATOM     23  C   UNL d   1      31.218  23.683 -25.040  0.00  0.00     0.029 C 
ENDBRANCH  21  22
ENDBRANCH  19  21
ENDBRANCH  18  19
ENDBRANCH   8  18
TORSDOF 4
ENDMDL
