MODEL 1
REMARK VINA RESULT:     103.4      0.000      0.000
REMARK  4 active torsions:
REMARK  status: ('A' for Active; 'I' for Inactive)
REMARK    1  A    between atoms: N_10  and  C_3 
REMARK    2  A    between atoms: C_12  and  C_5 
REMARK    3  A    between atoms: C_20  and  N_11 
REMARK    4  A    between atoms: C_24  and  C_20 
ROOT
ATOM      1  N   UNL d   1      58.575  49.397  52.804  0.00  0.00    -0.196 N 
ATOM      2  C   UNL d   1      57.937  49.449  53.332  0.00  0.00     0.167 A 
ATOM      3  C   UNL d   1      58.422  49.292  52.003  0.00  0.00     0.152 A 
ATOM      4  N   UNL d   1      59.471  49.553  53.879  0.00  0.00    -0.163 NA
ATOM      5  C   UNL d   1      58.065  49.552  54.124  0.00  0.00     0.055 A 
ATOM      6  N   UNL d   1      57.161  49.395  53.048  0.00  0.00    -0.227 NA
ATOM      7  C   UNL d   1      57.659  49.239  51.721  0.00  0.00     0.052 A 
ATOM      8  C   UNL d   1      58.837  49.605  54.404  0.00  0.00     0.104 A 
ATOM      9  C   UNL d   1      57.025  49.290  52.246  0.00  0.00     0.086 A 
ATOM     10  C   UNL d   1      57.527  49.133  50.910  0.00  0.00     0.004 A 
ATOM     11  C   UNL d   1      58.979  49.708  55.192  0.00  0.00     0.023 C 
ATOM     12  C   UNL d   1      56.252  49.237  51.966  0.00  0.00     0.019 A 
ATOM     13  C   UNL d   1      56.742  49.079  50.629  0.00  0.00     0.000 A 
ATOM     14  C   UNL d   1      56.107  49.131  51.154  0.00  0.00     0.002 A 
ENDROOT
BRANCH   3  15
ATOM     15  N   UNL d   1      59.068  49.239  51.464  0.00  0.00    -0.286 N 
ATOM     16  C   UNL d   1      59.652  48.651  51.664  0.00  0.00     0.101 A 
ATOM     17  C   UNL d   1      60.333  48.537  51.167  0.00  0.00     0.100 A 
ATOM     18  N   UNL d   1      60.432  49.013  50.468  0.00  0.00    -0.297 N 
ATOM     19  C   UNL d   1      59.855  49.592  50.273  0.00  0.00     0.100 A 
ATOM     20  C   UNL d   1      59.171  49.705  50.772  0.00  0.00     0.101 A 
BRANCH  18  21
ATOM     21  C   UNL d   1      61.109  48.900  49.974  0.00  0.00     0.126 C 
BRANCH  21  22
ATOM     22  C   UNL d   1      61.585  48.201  50.034  0.00  0.00     0.253 C 
ATOM     23  O   UNL d   1      62.287  48.111  49.579  0.00  0.00    -0.281 OA
ENDBRANCH  21  22
ENDBRANCH  18  21
ENDBRANCH   3  15
BRANCH   5  24
ATOM     24  C   UNL d   1      57.431  49.603  54.649  0.00  0.00     0.004 A 
ATOM     25  C   UNL d   1      57.576  49.651  55.449  0.00  0.00     0.000 A 
ATOM     26  C   UNL d   1      56.942  49.702  55.974  0.00  0.00     0.000 A 
ATOM     27  C   UNL d   1      56.172  49.706  55.691  0.00  0.00     0.000 A 
ATOM     28  C   UNL d   1      56.036  49.658  54.884  0.00  0.00     0.000 A 
ATOM     29  C   UNL d   1      56.670  49.606  54.359  0.00  0.00     0.000 A 
ENDBRANCH   5  24
TORSDOF 4
ENDMDL
