MODEL 1
REMARK VINA RESULT:      30.3      0.000      0.000
REMARK  2 active torsions:
REMARK  status: ('A' for Active; 'I' for Inactive)
REMARK    1  A    between atoms: C_5  and  C_1 
REMARK    2  A    between atoms: C_7  and  N_2 
ROOT
ATOM      1  C   UNL d   1     -57.805 -98.781 -43.544  0.00  0.00     0.129 A 
ATOM      2  N   UNL d   1     -57.780 -98.789 -44.376  0.00  0.00    -0.302 N 
ATOM      3  C   UNL d   1     -57.023 -98.774 -43.272  0.00  0.00     0.025 A 
ATOM      4  C   UNL d   1     -56.988 -98.787 -44.612  0.00  0.00     0.064 A 
ATOM      5  C   UNL d   1     -56.518 -98.777 -43.925  0.00  0.00     0.018 A 
ATOM      6  C   UNL d   1     -56.627 -98.792 -45.358  0.00  0.00     0.018 A 
ATOM      7  C   UNL d   1     -55.691 -98.773 -43.992  0.00  0.00     0.002 A 
ATOM      8  C   UNL d   1     -55.807 -98.787 -45.420  0.00  0.00     0.002 A 
ATOM      9  C   UNL d   1     -55.342 -98.778 -44.740  0.00  0.00     0.000 A 
ENDROOT
BRANCH   2  10
ATOM     10  C   UNL d   1     -58.434 -98.798 -44.882  0.00  0.00     0.064 A 
ATOM     11  C   UNL d   1     -58.314 -98.755 -45.696  0.00  0.00     0.018 A 
ATOM     12  C   UNL d   1     -58.963 -98.764 -46.200  0.00  0.00     0.002 A 
ATOM     13  C   UNL d   1     -59.728 -98.815 -45.893  0.00  0.00     0.000 A 
ATOM     14  C   UNL d   1     -59.844 -98.858 -45.075  0.00  0.00     0.002 A 
ATOM     15  C   UNL d   1     -59.190 -98.849 -44.573  0.00  0.00     0.018 A 
ENDBRANCH   2  10
BRANCH   1  16
ATOM     16  C   UNL d   1     -58.485 -98.781 -43.078  0.00  0.00     0.228 C 
ATOM     17  O   UNL d   1     -59.227 -98.780 -43.433  0.00  0.00    -0.643 OA
ATOM     18  O   UNL d   1     -58.418 -98.781 -42.252  0.00  0.00    -0.643 OA
ENDBRANCH   1  16
TORSDOF 2
ENDMDL
