MODEL 1
REMARK VINA RESULT:      95.0      0.000      0.000
REMARK  6 active torsions:
REMARK  status: ('A' for Active; 'I' for Inactive)
REMARK    1  A    between atoms: C_6  and  C_1 
REMARK    2  A    between atoms: C_9  and  N_3 
REMARK       I    between atoms: N_7  and  C_6 
REMARK    3  A    between atoms: C_8  and  N_7 
REMARK    4  A    between atoms: C_14  and  C_9 
REMARK    5  A    between atoms: O_21  and  C_12 
REMARK    6  A    between atoms: O_22  and  C_19 
ROOT
ATOM      1  C   UNL d   1      61.281  45.710  50.622  0.00  0.00     0.199 A 
ATOM      2  C   UNL d   1      61.556  46.375  50.205  0.00  0.00     0.211 A 
ATOM      3  N   UNL d   1      61.129  47.032  50.466  0.00  0.00    -0.190 N 
ATOM      4  N   UNL d   1      60.686  45.961  51.136  0.00  0.00    -0.122 NA
ATOM      5  N   UNL d   1      60.593  46.781  51.039  0.00  0.00    -0.058 NA
ATOM      6  N   UNL d   1      62.152  46.378  49.631  0.00  0.00    -0.125 N 
ENDROOT
BRANCH   1   7
ATOM      7  C   UNL d   1      61.558  44.941  50.531  0.00  0.00     0.302 C 
ATOM      8  N   UNL d   1      61.686  44.472  51.201  0.00  0.00    -0.205 NA
ATOM      9  O   UNL d   1      61.706  44.637  49.779  0.00  0.00    -0.263 OA
BRANCH   8  10
ATOM     10  C   UNL d   1      61.965  43.694  51.113  0.00  0.00     0.108 A 
ATOM     11  C   UNL d   1      62.421  43.491  50.457  0.00  0.00     0.033 A 
ATOM     12  C   UNL d   1      62.699  42.718  50.370  0.00  0.00     0.059 A 
ATOM     13 CL   UNL d   1      63.156  42.521  49.709  0.00  0.00    -0.082 Cl
ATOM     14  C   UNL d   1      62.520  42.147  50.940  0.00  0.00     0.013 A 
ATOM     15  C   UNL d   1      62.058  42.352  51.604  0.00  0.00     0.027 A 
ATOM     16  C   UNL d   1      61.784  43.129  51.684  0.00  0.00     0.112 A 
BRANCH  16  17
ATOM     17  O   UNL d   1      61.326  43.334  52.342  0.00  0.00    -0.327 OA
ATOM     18  C   UNL d   1      61.230  42.796  52.959  0.00  0.00     0.181 C 
ENDBRANCH  16  17
ENDBRANCH   8  10
ENDBRANCH   1   7
BRANCH   3  19
ATOM     19  C   UNL d   1      61.218  47.809  50.203  0.00  0.00     0.104 C 
BRANCH  19  20
ATOM     20  C   UNL d   1      60.897  48.438  50.624  0.00  0.00     0.021 A 
ATOM     21  C   UNL d   1      60.170  48.760  50.412  0.00  0.00     0.026 A 
ATOM     22  C   UNL d   1      59.853  49.388  50.836  0.00  0.00     0.094 A 
ATOM     23  C   UNL d   1      60.263  49.706  51.484  0.00  0.00     0.024 A 
ATOM     24  C   UNL d   1      61.002  49.379  51.699  0.00  0.00     0.002 A 
ATOM     25  C   UNL d   1      61.312  48.751  51.271  0.00  0.00     0.002 A 
BRANCH  22  26
ATOM     26  O   UNL d   1      59.124  49.705  50.616  0.00  0.00    -0.328 OA
ATOM     27  C   UNL d   1      58.495  49.707  51.150  0.00  0.00     0.181 C 
ENDBRANCH  22  26
ENDBRANCH  19  20
ENDBRANCH   3  19
TORSDOF 6
ENDMDL
