MODEL 1
REMARK VINA RESULT:      38.6      0.000      0.000
REMARK  6 active torsions:
REMARK  status: ('A' for Active; 'I' for Inactive)
REMARK    1  A    between atoms: S_3  and  C_1 
REMARK    2  A    between atoms: C_11  and  S_3 
REMARK    3  A    between atoms: N_8  and  C_4 
REMARK    4  A    between atoms: C_7  and  C_5 
REMARK    5  A    between atoms: C_18  and  N_8 
REMARK    6  A    between atoms: C_17  and  C_18 
ROOT
ATOM      1  C   UNL d   1      46.006 -17.793  42.739  0.00  0.00     0.212 A 
ATOM      2  N   UNL d   1      46.092 -18.513  43.128  0.00  0.00    -0.205 NA
ATOM      3  C   UNL d   1      46.007 -17.193  43.306  0.00  0.00     0.213 A 
ATOM      4  C   UNL d   1      46.147 -18.359  43.936  0.00  0.00     0.208 A 
ATOM      5  O   UNL d   1      46.094 -17.548  44.045  0.00  0.00    -0.267 OA
ENDROOT
BRANCH   1   6
ATOM      6  S   UNL d   1      45.937 -17.766  41.918  0.00  0.00     0.230 S 
ATOM      7  O   UNL d   1      45.209 -17.615  41.564  0.00  0.00    -0.215 OA
ATOM      8  O   UNL d   1      46.607 -17.893  41.442  0.00  0.00    -0.215 OA
BRANCH   6   9
ATOM      9  C   UNL d   1      45.876 -17.741  41.096  0.00  0.00     0.090 A 
ATOM     10  C   UNL d   1      45.230 -17.370  40.736  0.00  0.00     0.011 A 
ATOM     11  C   UNL d   1      45.172 -17.346  39.911  0.00  0.00     0.001 A 
ATOM     12  C   UNL d   1      45.764 -17.696  39.446  0.00  0.00     0.000 A 
ATOM     13  C   UNL d   1      46.411 -18.068  39.805  0.00  0.00     0.001 A 
ATOM     14  C   UNL d   1      46.463 -18.088  40.634  0.00  0.00     0.011 A 
ENDBRANCH   6   9
ENDBRANCH   1   6
BRANCH   3  15
ATOM     15  N   UNL d   1      45.933 -16.383  43.161  0.00  0.00    -0.219 NA
BRANCH  15  16
ATOM     16  C   UNL d   1      45.387 -15.933  43.577  0.00  0.00     0.103 C 
BRANCH  16  17
ATOM     17  C   UNL d   1      45.612 -15.193  43.862  0.00  0.00     0.038 A 
ATOM     18  C   UNL d   1      46.265 -15.122  44.366  0.00  0.00     0.101 A 
ATOM     19  N   UNL d   1      46.486 -14.380  44.648  0.00  0.00    -0.242 NA
ATOM     20  C   UNL d   1      46.054 -13.719  44.425  0.00  0.00     0.099 A 
ATOM     21  C   UNL d   1      45.407 -13.787  43.926  0.00  0.00     0.021 A 
ATOM     22  C   UNL d   1      45.184 -14.530  43.641  0.00  0.00     0.005 A 
ENDBRANCH  16  17
ENDBRANCH  15  16
ENDBRANCH   3  15
BRANCH   4  23
ATOM     23  C   UNL d   1      46.233 -19.075  44.323  0.00  0.00     0.141 A 
ATOM     24  O   UNL d   1      46.645 -19.464  44.917  0.00  0.00    -0.302 OA
ATOM     25  C   UNL d   1      46.373 -20.242  44.954  0.00  0.00     0.123 A 
ATOM     26  C   UNL d   1      45.788 -20.329  44.377  0.00  0.00     0.029 A 
ATOM     27  C   UNL d   1      45.701 -19.610  43.988  0.00  0.00     0.030 A 
ENDBRANCH   4  23
TORSDOF 6
ENDMDL
MODEL 2
REMARK VINA RESULT:      39.3      0.926      3.342
REMARK  6 active torsions:
REMARK  status: ('A' for Active; 'I' for Inactive)
REMARK    1  A    between atoms: S_3  and  C_1 
REMARK    2  A    between atoms: C_11  and  S_3 
REMARK    3  A    between atoms: N_8  and  C_4 
REMARK    4  A    between atoms: C_7  and  C_5 
REMARK    5  A    between atoms: C_18  and  N_8 
REMARK    6  A    between atoms: C_17  and  C_18 
ROOT
ATOM      1  C   UNL d   1      45.888 -18.036  42.579  0.00  0.00     0.212 A 
ATOM      2  N   UNL d   1      45.836 -18.249  41.785  0.00  0.00    -0.205 NA
ATOM      3  C   UNL d   1      45.901 -17.211  42.623  0.00  0.00     0.213 A 
ATOM      4  C   UNL d   1      45.817 -17.557  41.338  0.00  0.00     0.208 A 
ATOM      5  O   UNL d   1      45.857 -16.919  41.853  0.00  0.00    -0.267 OA
ENDROOT
BRANCH   1   6
ATOM      6  S   UNL d   1      45.917 -18.613  43.167  0.00  0.00     0.230 S 
ATOM      7  O   UNL d   1      45.560 -19.346  43.052  0.00  0.00    -0.215 OA
ATOM      8  O   UNL d   1      46.310 -18.455  43.882  0.00  0.00    -0.215 OA
BRANCH   6   9
ATOM      9  C   UNL d   1      45.951 -19.184  43.759  0.00  0.00     0.090 A 
ATOM     10  C   UNL d   1      46.616 -19.673  43.832  0.00  0.00     0.011 A 
ATOM     11  C   UNL d   1      46.647 -20.245  44.429  0.00  0.00     0.001 A 
ATOM     12  C   UNL d   1      46.009 -20.329  44.954  0.00  0.00     0.000 A 
ATOM     13  C   UNL d   1      45.344 -19.841  44.882  0.00  0.00     0.001 A 
ATOM     14  C   UNL d   1      45.320 -19.268  44.281  0.00  0.00     0.011 A 
ENDBRANCH   6   9
ENDBRANCH   1   6
BRANCH   3  15
ATOM     15  N   UNL d   1      45.949 -16.759  43.312  0.00  0.00    -0.219 NA
BRANCH  15  16
ATOM     16  C   UNL d   1      46.241 -15.992  43.288  0.00  0.00     0.103 C 
BRANCH  16  17
ATOM     17  C   UNL d   1      45.874 -15.410  43.741  0.00  0.00     0.038 A 
ATOM     18  C   UNL d   1      45.418 -15.620  44.398  0.00  0.00     0.101 A 
ATOM     19  N   UNL d   1      45.052 -15.034  44.848  0.00  0.00    -0.242 NA
ATOM     20  C   UNL d   1      45.146 -14.246  44.637  0.00  0.00     0.099 A 
ATOM     21  C   UNL d   1      45.597 -14.036  43.985  0.00  0.00     0.021 A 
ATOM     22  C   UNL d   1      45.965 -14.622  43.533  0.00  0.00     0.005 A 
ENDBRANCH  16  17
ENDBRANCH  15  16
ENDBRANCH   3  15
BRANCH   4  23
ATOM     23  C   UNL d   1      45.766 -17.769  40.549  0.00  0.00     0.141 A 
ATOM     24  O   UNL d   1      45.347 -17.646  39.854  0.00  0.00    -0.302 OA
ATOM     25  C   UNL d   1      45.682 -18.115  39.264  0.00  0.00     0.123 A 
ATOM     26  C   UNL d   1      46.312 -18.529  39.602  0.00  0.00     0.029 A 
ATOM     27  C   UNL d   1      46.363 -18.316  40.394  0.00  0.00     0.030 A 
ENDBRANCH   4  23
TORSDOF 6
ENDMDL
