MODEL 1
REMARK VINA RESULT:      -7.4      0.000      0.000
REMARK  5 active torsions:
REMARK  status: ('A' for Active; 'I' for Inactive)
REMARK    1  A    between atoms: S_2  and  C_10 
REMARK    2  A    between atoms: N_7  and  S_2 
REMARK    3  A    between atoms: C_9  and  N_7 
REMARK    4  A    between atoms: O_23  and  C_16 
REMARK    5  A    between atoms: O_24  and  C_19 
ROOT
ATOM      1  S   UNL d   1     -48.218  14.263  23.136  0.00  0.00     0.285 S 
ATOM      2  O   UNL d   1     -48.458  13.642  23.621  0.00  0.00    -0.198 OA
ATOM      3  O   UNL d   1     -47.979  14.883  22.650  0.00  0.00    -0.198 OA
ENDROOT
BRANCH   1   4
ATOM      4  C   UNL d   1     -47.500  13.882  23.004  0.00  0.00     0.107 A 
ATOM      5  C   UNL d   1     -47.394  13.108  23.254  0.00  0.00     0.032 A 
ATOM      6  C   UNL d   1     -46.672  12.726  23.122  0.00  0.00     0.085 A 
ATOM      7  N   UNL d   1     -46.403  11.966  23.305  0.00  0.00    -0.256 N 
ATOM      8  C   UNL d   1     -46.061  13.120  22.740  0.00  0.00     0.085 A 
ATOM      9  C   UNL d   1     -45.641  11.894  23.041  0.00  0.00     0.339 A 
ATOM     10  C   UNL d   1     -46.831  11.373  23.692  0.00  0.00     0.104 C 
ATOM     11  N   UNL d   1     -45.420  12.604  22.689  0.00  0.00    -0.256 N 
ATOM     12  O   UNL d   1     -45.164  11.213  23.114  0.00  0.00    -0.245 OA
ATOM     13  C   UNL d   1     -44.681  12.767  22.345  0.00  0.00     0.104 C 
ATOM     14  C   UNL d   1     -46.167  13.899  22.488  0.00  0.00     0.020 A 
ATOM     15  C   UNL d   1     -46.889  14.281  22.620  0.00  0.00     0.015 A 
ENDBRANCH   1   4
BRANCH   1  16
ATOM     16  N   UNL d   1     -48.936  14.643  23.267  0.00  0.00    -0.156 NA
BRANCH  16  17
ATOM     17  C   UNL d   1     -49.580  14.486  22.783  0.00  0.00     0.118 A 
ATOM     18  C   UNL d   1     -49.515  13.938  22.172  0.00  0.00     0.046 A 
ATOM     19  C   UNL d   1     -50.160  13.782  21.688  0.00  0.00     0.096 A 
ATOM     20  C   UNL d   1     -50.883  14.176  21.811  0.00  0.00     0.026 A 
ATOM     21  C   UNL d   1     -50.949  14.724  22.422  0.00  0.00     0.028 A 
ATOM     22  C   UNL d   1     -50.295  14.879  22.909  0.00  0.00     0.113 A 
BRANCH  19  23
ATOM     23  O   UNL d   1     -50.086  13.233  21.079  0.00  0.00    -0.328 OA
ATOM     24  C   UNL d   1     -50.540  12.547  21.085  0.00  0.00     0.181 C 
ENDBRANCH  19  23
BRANCH  22  25
ATOM     25  O   UNL d   1     -50.361  15.427  23.519  0.00  0.00    -0.327 OA
ATOM     26  C   UNL d   1     -51.062  15.840  23.627  0.00  0.00     0.181 C 
ENDBRANCH  22  25
ENDBRANCH  16  17
ENDBRANCH   1  16
TORSDOF 5
ENDMDL
MODEL 2
REMARK VINA RESULT:      -6.4      8.655      9.414
REMARK  5 active torsions:
REMARK  status: ('A' for Active; 'I' for Inactive)
REMARK    1  A    between atoms: S_2  and  C_10 
REMARK    2  A    between atoms: N_7  and  S_2 
REMARK    3  A    between atoms: C_9  and  N_7 
REMARK    4  A    between atoms: O_23  and  C_16 
REMARK    5  A    between atoms: O_24  and  C_19 
ROOT
ATOM      1  S   UNL d   1     -40.463  15.046  19.745  0.00  0.00     0.285 S 
ATOM      2  O   UNL d   1     -40.854  14.369  20.003  0.00  0.00    -0.198 OA
ATOM      3  O   UNL d   1     -40.072  15.722  19.487  0.00  0.00    -0.198 OA
ENDROOT
BRANCH   1   4
ATOM      4  C   UNL d   1     -40.109  15.123  20.484  0.00  0.00     0.107 A 
ATOM      5  C   UNL d   1     -39.652  14.511  20.787  0.00  0.00     0.032 A 
ATOM      6  C   UNL d   1     -39.297  14.589  21.529  0.00  0.00     0.085 A 
ATOM      7  N   UNL d   1     -38.817  14.082  21.973  0.00  0.00    -0.256 N 
ATOM      8  C   UNL d   1     -39.400  15.278  21.966  0.00  0.00     0.085 A 
ATOM      9  C   UNL d   1     -38.628  14.452  22.668  0.00  0.00     0.339 A 
ATOM     10  C   UNL d   1     -38.567  13.326  21.752  0.00  0.00     0.104 C 
ATOM     11  N   UNL d   1     -38.985  15.193  22.673  0.00  0.00    -0.256 N 
ATOM     12  O   UNL d   1     -38.152  14.131  23.274  0.00  0.00    -0.245 OA
ATOM     13  C   UNL d   1     -38.933  15.754  23.285  0.00  0.00     0.104 C 
ATOM     14  C   UNL d   1     -39.859  15.893  21.662  0.00  0.00     0.020 A 
ATOM     15  C   UNL d   1     -40.214  15.815  20.920  0.00  0.00     0.015 A 
ENDBRANCH   1   4
BRANCH   1  16
ATOM     16  N   UNL d   1     -40.817  14.969  19.006  0.00  0.00    -0.156 NA
BRANCH  16  17
ATOM     17  C   UNL d   1     -40.376  14.711  18.363  0.00  0.00     0.118 A 
ATOM     18  C   UNL d   1     -39.777  14.157  18.468  0.00  0.00     0.046 A 
ATOM     19  C   UNL d   1     -39.336  13.900  17.824  0.00  0.00     0.096 A 
ATOM     20  C   UNL d   1     -39.492  14.198  17.062  0.00  0.00     0.026 A 
ATOM     21  C   UNL d   1     -40.091  14.752  16.957  0.00  0.00     0.028 A 
ATOM     22  C   UNL d   1     -40.534  15.009  17.610  0.00  0.00     0.113 A 
BRANCH  19  23
ATOM     23  O   UNL d   1     -38.738  13.345  17.937  0.00  0.00    -0.328 OA
ATOM     24  C   UNL d   1     -38.672  12.700  17.432  0.00  0.00     0.181 C 
ENDBRANCH  19  23
BRANCH  22  25
ATOM     25  O   UNL d   1     -41.133  15.563  17.504  0.00  0.00    -0.327 OA
ATOM     26  C   UNL d   1     -41.372  15.772  16.747  0.00  0.00     0.181 C 
ENDBRANCH  22  25
ENDBRANCH  16  17
ENDBRANCH   1  16
TORSDOF 5
ENDMDL
MODEL 3
REMARK VINA RESULT:      -6.1      1.182      4.545
REMARK  5 active torsions:
REMARK  status: ('A' for Active; 'I' for Inactive)
REMARK    1  A    between atoms: S_2  and  C_10 
REMARK    2  A    between atoms: N_7  and  S_2 
REMARK    3  A    between atoms: C_9  and  N_7 
REMARK    4  A    between atoms: O_23  and  C_16 
REMARK    5  A    between atoms: O_24  and  C_19 
ROOT
ATOM      1  S   UNL d   1     -46.764  13.977  22.535  0.00  0.00     0.285 S 
ATOM      2  O   UNL d   1     -46.744  14.194  23.329  0.00  0.00    -0.198 OA
ATOM      3  O   UNL d   1     -46.783  13.760  21.741  0.00  0.00    -0.198 OA
ENDROOT
BRANCH   1   4
ATOM      4  C   UNL d   1     -47.564  14.165  22.503  0.00  0.00     0.107 A 
ATOM      5  C   UNL d   1     -48.088  13.665  22.115  0.00  0.00     0.032 A 
ATOM      6  C   UNL d   1     -48.893  13.854  22.083  0.00  0.00     0.085 A 
ATOM      7  N   UNL d   1     -49.542  13.472  21.742  0.00  0.00    -0.256 N 
ATOM      8  C   UNL d   1     -49.169  14.541  22.439  0.00  0.00     0.085 A 
ATOM      9  C   UNL d   1     -50.204  13.914  21.885  0.00  0.00     0.339 A 
ATOM     10  C   UNL d   1     -49.526  12.758  21.324  0.00  0.00     0.104 C 
ATOM     11  N   UNL d   1     -49.984  14.579  22.316  0.00  0.00    -0.256 N 
ATOM     12  O   UNL d   1     -50.978  13.725  21.635  0.00  0.00    -0.245 OA
ATOM     13  C   UNL d   1     -50.495  15.180  22.579  0.00  0.00     0.104 C 
ATOM     14  C   UNL d   1     -48.643  15.044  22.829  0.00  0.00     0.020 A 
ATOM     15  C   UNL d   1     -47.839  14.855  22.861  0.00  0.00     0.015 A 
ENDBRANCH   1   4
BRANCH   1  16
ATOM     16  N   UNL d   1     -45.963  13.789  22.567  0.00  0.00    -0.156 NA
BRANCH  16  17
ATOM     17  C   UNL d   1     -45.726  13.019  22.725  0.00  0.00     0.118 A 
ATOM     18  C   UNL d   1     -46.229  12.507  23.128  0.00  0.00     0.046 A 
ATOM     19  C   UNL d   1     -45.992  11.736  23.286  0.00  0.00     0.096 A 
ATOM     20  C   UNL d   1     -45.243  11.468  23.040  0.00  0.00     0.026 A 
ATOM     21  C   UNL d   1     -44.740  11.981  22.637  0.00  0.00     0.028 A 
ATOM     22  C   UNL d   1     -44.983  12.758  22.480  0.00  0.00     0.113 A 
BRANCH  19  23
ATOM     23  O   UNL d   1     -46.500  11.230  23.689  0.00  0.00    -0.328 OA
ATOM     24  C   UNL d   1     -46.915  10.648  23.281  0.00  0.00     0.181 C 
ENDBRANCH  19  23
BRANCH  22  25
ATOM     25  O   UNL d   1     -44.480  13.270  22.077  0.00  0.00    -0.327 OA
ATOM     26  C   UNL d   1     -43.901  12.969  21.579  0.00  0.00     0.181 C 
ENDBRANCH  22  25
ENDBRANCH  16  17
ENDBRANCH   1  16
TORSDOF 5
ENDMDL
MODEL 4
REMARK VINA RESULT:      -5.7      1.389      1.998
REMARK  5 active torsions:
REMARK  status: ('A' for Active; 'I' for Inactive)
REMARK    1  A    between atoms: S_2  and  C_10 
REMARK    2  A    between atoms: N_7  and  S_2 
REMARK    3  A    between atoms: C_9  and  N_7 
REMARK    4  A    between atoms: O_23  and  C_16 
REMARK    5  A    between atoms: O_24  and  C_19 
ROOT
ATOM      1  S   UNL d   1     -47.594  12.590  23.264  0.00  0.00     0.285 S 
ATOM      2  O   UNL d   1     -47.734  11.905  22.830  0.00  0.00    -0.198 OA
ATOM      3  O   UNL d   1     -47.454  13.275  23.698  0.00  0.00    -0.198 OA
ENDROOT
BRANCH   1   4
ATOM      4  C   UNL d   1     -46.819  12.608  22.986  0.00  0.00     0.107 A 
ATOM      5  C   UNL d   1     -46.296  12.009  23.189  0.00  0.00     0.032 A 
ATOM      6  C   UNL d   1     -45.518  12.027  22.909  0.00  0.00     0.085 A 
ATOM      7  N   UNL d   1     -44.876  11.516  23.015  0.00  0.00    -0.256 N 
ATOM      8  C   UNL d   1     -45.267  12.644  22.428  0.00  0.00     0.085 A 
ATOM      9  C   UNL d   1     -44.243  11.813  22.607  0.00  0.00     0.339 A 
ATOM     10  C   UNL d   1     -44.872  10.819  23.459  0.00  0.00     0.104 C 
ATOM     11  N   UNL d   1     -44.475  12.512  22.239  0.00  0.00    -0.256 N 
ATOM     12  O   UNL d   1     -43.485  11.466  22.567  0.00  0.00    -0.245 OA
ATOM     13  C   UNL d   1     -43.994  12.995  21.764  0.00  0.00     0.104 C 
ATOM     14  C   UNL d   1     -45.793  13.246  22.223  0.00  0.00     0.020 A 
ATOM     15  C   UNL d   1     -46.571  13.228  22.503  0.00  0.00     0.015 A 
ENDBRANCH   1   4
BRANCH   1  16
ATOM     16  N   UNL d   1     -48.368  12.572  23.542  0.00  0.00    -0.156 NA
BRANCH  16  17
ATOM     17  C   UNL d   1     -48.982  12.841  23.069  0.00  0.00     0.118 A 
ATOM     18  C   UNL d   1     -48.935  13.581  22.712  0.00  0.00     0.046 A 
ATOM     19  C   UNL d   1     -49.550  13.850  22.238  0.00  0.00     0.096 A 
ATOM     20  C   UNL d   1     -50.224  13.377  22.117  0.00  0.00     0.026 A 
ATOM     21  C   UNL d   1     -50.272  12.637  22.474  0.00  0.00     0.028 A 
ATOM     22  C   UNL d   1     -49.649  12.369  22.951  0.00  0.00     0.113 A 
BRANCH  19  23
ATOM     23  O   UNL d   1     -49.495  14.591  21.884  0.00  0.00    -0.328 OA
ATOM     24  C   UNL d   1     -49.785  15.256  22.271  0.00  0.00     0.181 C 
ENDBRANCH  19  23
BRANCH  22  25
ATOM     25  O   UNL d   1     -49.696  11.629  23.308  0.00  0.00    -0.327 OA
ATOM     26  C   UNL d   1     -50.384  11.404  23.698  0.00  0.00     0.181 C 
ENDBRANCH  22  25
ENDBRANCH  16  17
ENDBRANCH   1  16
TORSDOF 5
ENDMDL
MODEL 5
REMARK VINA RESULT:      -5.5      8.243     10.570
REMARK  5 active torsions:
REMARK  status: ('A' for Active; 'I' for Inactive)
REMARK    1  A    between atoms: S_2  and  C_10 
REMARK    2  A    between atoms: N_7  and  S_2 
REMARK    3  A    between atoms: C_9  and  N_7 
REMARK    4  A    between atoms: O_23  and  C_16 
REMARK    5  A    between atoms: O_24  and  C_19 
ROOT
ATOM      1  S   UNL d   1     -39.833  15.201  17.818  0.00  0.00     0.285 S 
ATOM      2  O   UNL d   1     -39.290  15.817  17.858  0.00  0.00    -0.198 OA
ATOM      3  O   UNL d   1     -40.377  14.584  17.779  0.00  0.00    -0.198 OA
ENDROOT
BRANCH   1   4
ATOM      4  C   UNL d   1     -40.055  15.346  18.598  0.00  0.00     0.107 A 
ATOM      5  C   UNL d   1     -39.483  15.389  19.186  0.00  0.00     0.032 A 
ATOM      6  C   UNL d   1     -39.705  15.535  19.969  0.00  0.00     0.085 A 
ATOM      7  N   UNL d   1     -39.269  15.608  20.667  0.00  0.00    -0.256 N 
ATOM      8  C   UNL d   1     -40.498  15.638  20.160  0.00  0.00     0.085 A 
ATOM      9  C   UNL d   1     -39.782  15.753  21.276  0.00  0.00     0.339 A 
ATOM     10  C   UNL d   1     -38.448  15.545  20.741  0.00  0.00     0.104 C 
ATOM     11  N   UNL d   1     -40.547  15.773  20.972  0.00  0.00    -0.256 N 
ATOM     12  O   UNL d   1     -39.569  15.862  22.076  0.00  0.00    -0.245 OA
ATOM     13  C   UNL d   1     -41.241  15.906  21.409  0.00  0.00     0.104 C 
ATOM     14  C   UNL d   1     -41.073  15.595  19.570  0.00  0.00     0.020 A 
ATOM     15  C   UNL d   1     -40.851  15.449  18.787  0.00  0.00     0.015 A 
ENDBRANCH   1   4
BRANCH   1  16
ATOM     16  N   UNL d   1     -39.612  15.055  17.039  0.00  0.00    -0.156 NA
BRANCH  16  17
ATOM     17  C   UNL d   1     -39.058  14.473  16.870  0.00  0.00     0.118 A 
ATOM     18  C   UNL d   1     -39.029  13.787  17.323  0.00  0.00     0.046 A 
ATOM     19  C   UNL d   1     -38.475  13.204  17.153  0.00  0.00     0.096 A 
ATOM     20  C   UNL d   1     -37.940  13.305  16.522  0.00  0.00     0.026 A 
ATOM     21  C   UNL d   1     -37.969  13.992  16.070  0.00  0.00     0.028 A 
ATOM     22  C   UNL d   1     -38.530  14.577  16.244  0.00  0.00     0.113 A 
BRANCH  19  23
ATOM     23  O   UNL d   1     -38.451  12.520  17.610  0.00  0.00    -0.328 OA
ATOM     24  C   UNL d   1     -38.196  11.812  17.280  0.00  0.00     0.181 C 
ENDBRANCH  19  23
BRANCH  22  25
ATOM     25  O   UNL d   1     -38.560  15.264  15.792  0.00  0.00    -0.327 OA
ATOM     26  C   UNL d   1     -37.985  15.406  15.223  0.00  0.00     0.181 C 
ENDBRANCH  22  25
ENDBRANCH  16  17
ENDBRANCH   1  16
TORSDOF 5
ENDMDL
MODEL 6
REMARK VINA RESULT:      -5.1      7.504     10.119
REMARK  5 active torsions:
REMARK  status: ('A' for Active; 'I' for Inactive)
REMARK    1  A    between atoms: S_2  and  C_10 
REMARK    2  A    between atoms: N_7  and  S_2 
REMARK    3  A    between atoms: C_9  and  N_7 
REMARK    4  A    between atoms: O_23  and  C_16 
REMARK    5  A    between atoms: O_24  and  C_19 
ROOT
ATOM      1  S   UNL d   1     -40.176  15.094  18.838  0.00  0.00     0.285 S 
ATOM      2  O   UNL d   1     -40.502  14.356  18.674  0.00  0.00    -0.198 OA
ATOM      3  O   UNL d   1     -39.850  15.832  19.002  0.00  0.00    -0.198 OA
ENDROOT
BRANCH   1   4
ATOM      4  C   UNL d   1     -39.780  15.079  18.117  0.00  0.00     0.107 A 
ATOM      5  C   UNL d   1     -39.445  14.380  17.846  0.00  0.00     0.032 A 
ATOM      6  C   UNL d   1     -39.047  14.365  17.121  0.00  0.00     0.085 A 
ATOM      7  N   UNL d   1     -38.661  13.761  16.710  0.00  0.00    -0.256 N 
ATOM      8  C   UNL d   1     -38.986  15.050  16.671  0.00  0.00     0.085 A 
ATOM      9  C   UNL d   1     -38.368  14.067  16.020  0.00  0.00     0.339 A 
ATOM     10  C   UNL d   1     -38.582  12.974  16.954  0.00  0.00     0.104 C 
ATOM     11  N   UNL d   1     -38.564  14.865  15.987  0.00  0.00    -0.256 N 
ATOM     12  O   UNL d   1     -37.940  13.641  15.444  0.00  0.00    -0.245 OA
ATOM     13  C   UNL d   1     -38.370  15.388  15.371  0.00  0.00     0.104 C 
ATOM     14  C   UNL d   1     -39.322  15.753  16.942  0.00  0.00     0.020 A 
ATOM     15  C   UNL d   1     -39.720  15.768  17.666  0.00  0.00     0.015 A 
ENDBRANCH   1   4
BRANCH   1  16
ATOM     16  N   UNL d   1     -40.572  15.109  19.559  0.00  0.00    -0.156 NA
BRANCH  16  17
ATOM     17  C   UNL d   1     -40.203  14.832  20.238  0.00  0.00     0.118 A 
ATOM     18  C   UNL d   1     -39.400  14.969  20.356  0.00  0.00     0.046 A 
ATOM     19  C   UNL d   1     -39.030  14.692  21.036  0.00  0.00     0.096 A 
ATOM     20  C   UNL d   1     -39.465  14.272  21.609  0.00  0.00     0.026 A 
ATOM     21  C   UNL d   1     -40.268  14.135  21.490  0.00  0.00     0.028 A 
ATOM     22  C   UNL d   1     -40.637  14.416  20.803  0.00  0.00     0.113 A 
BRANCH  19  23
ATOM     23  O   UNL d   1     -38.227  14.833  21.147  0.00  0.00    -0.328 OA
ATOM     24  C   UNL d   1     -37.940  15.017  21.895  0.00  0.00     0.181 C 
ENDBRANCH  19  23
BRANCH  22  25
ATOM     25  O   UNL d   1     -41.440  14.279  20.685  0.00  0.00    -0.327 OA
ATOM     26  C   UNL d   1     -41.876  13.877  21.253  0.00  0.00     0.181 C 
ENDBRANCH  22  25
ENDBRANCH  16  17
ENDBRANCH   1  16
TORSDOF 5
ENDMDL
MODEL 7
REMARK VINA RESULT:      -5.0      8.342     10.735
REMARK  5 active torsions:
REMARK  status: ('A' for Active; 'I' for Inactive)
REMARK    1  A    between atoms: S_2  and  C_10 
REMARK    2  A    between atoms: N_7  and  S_2 
REMARK    3  A    between atoms: C_9  and  N_7 
REMARK    4  A    between atoms: O_23  and  C_16 
REMARK    5  A    between atoms: O_24  and  C_19 
ROOT
ATOM      1  S   UNL d   1     -38.187  14.747  19.331  0.00  0.00     0.285 S 
ATOM      2  O   UNL d   1     -37.992  15.528  19.503  0.00  0.00    -0.198 OA
ATOM      3  O   UNL d   1     -38.382  13.966  19.159  0.00  0.00    -0.198 OA
ENDROOT
BRANCH   1   4
ATOM      4  C   UNL d   1     -38.159  14.917  18.526  0.00  0.00     0.107 A 
ATOM      5  C   UNL d   1     -38.112  14.307  17.978  0.00  0.00     0.032 A 
ATOM      6  C   UNL d   1     -38.083  14.479  17.170  0.00  0.00     0.085 A 
ATOM      7  N   UNL d   1     -38.036  13.997  16.500  0.00  0.00    -0.256 N 
ATOM      8  C   UNL d   1     -38.102  15.259  16.913  0.00  0.00     0.085 A 
ATOM      9  C   UNL d   1     -38.025  14.471  15.844  0.00  0.00     0.339 A 
ATOM     10  C   UNL d   1     -38.004  13.171  16.491  0.00  0.00     0.104 C 
ATOM     11  N   UNL d   1     -38.066  15.255  16.089  0.00  0.00    -0.256 N 
ATOM     12  O   UNL d   1     -37.981  14.205  15.053  0.00  0.00    -0.245 OA
ATOM     13  C   UNL d   1     -38.070  15.921  15.592  0.00  0.00     0.104 C 
ATOM     14  C   UNL d   1     -38.149  15.873  17.463  0.00  0.00     0.020 A 
ATOM     15  C   UNL d   1     -38.177  15.701  18.271  0.00  0.00     0.015 A 
ENDBRANCH   1   4
BRANCH   1  16
ATOM     16  N   UNL d   1     -38.215  14.576  20.136  0.00  0.00    -0.156 NA
BRANCH  16  17
ATOM     17  C   UNL d   1     -38.938  14.543  20.524  0.00  0.00     0.118 A 
ATOM     18  C   UNL d   1     -39.579  14.975  20.242  0.00  0.00     0.046 A 
ATOM     19  C   UNL d   1     -40.302  14.941  20.632  0.00  0.00     0.096 A 
ATOM     20  C   UNL d   1     -40.390  14.471  21.314  0.00  0.00     0.026 A 
ATOM     21  C   UNL d   1     -39.748  14.040  21.596  0.00  0.00     0.028 A 
ATOM     22  C   UNL d   1     -39.020  14.076  21.200  0.00  0.00     0.113 A 
BRANCH  19  23
ATOM     23  O   UNL d   1     -40.939  15.375  20.343  0.00  0.00    -0.328 OA
ATOM     24  C   UNL d   1     -41.320  15.920  20.827  0.00  0.00     0.181 C 
ENDBRANCH  19  23
BRANCH  22  25
ATOM     25  O   UNL d   1     -38.379  13.645  21.482  0.00  0.00    -0.327 OA
ATOM     26  C   UNL d   1     -38.427  13.265  22.209  0.00  0.00     0.181 C 
ENDBRANCH  22  25
ENDBRANCH  16  17
ENDBRANCH   1  16
TORSDOF 5
ENDMDL
MODEL 8
REMARK VINA RESULT:      -4.6      9.188     10.400
REMARK  5 active torsions:
REMARK  status: ('A' for Active; 'I' for Inactive)
REMARK    1  A    between atoms: S_2  and  C_10 
REMARK    2  A    between atoms: N_7  and  S_2 
REMARK    3  A    between atoms: C_9  and  N_7 
REMARK    4  A    between atoms: O_23  and  C_16 
REMARK    5  A    between atoms: O_24  and  C_19 
ROOT
ATOM      1  S   UNL d   1     -39.541  13.771  19.085  0.00  0.00     0.285 S 
ATOM      2  O   UNL d   1     -38.738  13.593  19.092  0.00  0.00    -0.198 OA
ATOM      3  O   UNL d   1     -40.345  13.949  19.077  0.00  0.00    -0.198 OA
ENDROOT
BRANCH   1   4
ATOM      4  C   UNL d   1     -39.461  14.164  19.804  0.00  0.00     0.107 A 
ATOM      5  C   UNL d   1     -39.052  13.810  20.422  0.00  0.00     0.032 A 
ATOM      6  C   UNL d   1     -38.972  14.204  21.144  0.00  0.00     0.085 A 
ATOM      7  N   UNL d   1     -38.600  13.997  21.853  0.00  0.00    -0.256 N 
ATOM      8  C   UNL d   1     -39.300  14.951  21.245  0.00  0.00     0.085 A 
ATOM      9  C   UNL d   1     -38.699  14.604  22.380  0.00  0.00     0.339 A 
ATOM     10  C   UNL d   1     -38.195  13.293  22.007  0.00  0.00     0.104 C 
ATOM     11  N   UNL d   1     -39.131  15.200  22.013  0.00  0.00    -0.256 N 
ATOM     12  O   UNL d   1     -38.409  14.619  23.163  0.00  0.00    -0.245 OA
ATOM     13  C   UNL d   1     -39.355  15.922  22.358  0.00  0.00     0.104 C 
ATOM     14  C   UNL d   1     -39.712  15.307  20.625  0.00  0.00     0.020 A 
ATOM     15  C   UNL d   1     -39.792  14.913  19.902  0.00  0.00     0.015 A 
ENDBRANCH   1   4
BRANCH   1  16
ATOM     16  N   UNL d   1     -39.622  13.379  18.366  0.00  0.00    -0.156 NA
BRANCH  16  17
ATOM     17  C   UNL d   1     -39.223  13.650  17.702  0.00  0.00     0.118 A 
ATOM     18  C   UNL d   1     -39.330  14.424  17.442  0.00  0.00     0.046 A 
ATOM     19  C   UNL d   1     -38.931  14.695  16.777  0.00  0.00     0.096 A 
ATOM     20  C   UNL d   1     -38.415  14.189  16.362  0.00  0.00     0.026 A 
ATOM     21  C   UNL d   1     -38.308  13.416  16.621  0.00  0.00     0.028 A 
ATOM     22  C   UNL d   1     -38.713  13.146  17.293  0.00  0.00     0.113 A 
BRANCH  19  23
ATOM     23  O   UNL d   1     -39.044  15.470  16.524  0.00  0.00    -0.328 OA
ATOM     24  C   UNL d   1     -38.402  15.922  16.279  0.00  0.00     0.181 C 
ENDBRANCH  19  23
BRANCH  22  25
ATOM     25  O   UNL d   1     -38.605  12.372  17.552  0.00  0.00    -0.327 OA
ATOM     26  C   UNL d   1     -38.030  11.899  17.206  0.00  0.00     0.181 C 
ENDBRANCH  22  25
ENDBRANCH  16  17
ENDBRANCH   1  16
TORSDOF 5
ENDMDL
MODEL 9
REMARK VINA RESULT:      -4.5      8.698     10.810
REMARK  5 active torsions:
REMARK  status: ('A' for Active; 'I' for Inactive)
REMARK    1  A    between atoms: S_2  and  C_10 
REMARK    2  A    between atoms: N_7  and  S_2 
REMARK    3  A    between atoms: C_9  and  N_7 
REMARK    4  A    between atoms: O_23  and  C_16 
REMARK    5  A    between atoms: O_24  and  C_19 
ROOT
ATOM      1  S   UNL d   1     -38.714  13.893  18.373  0.00  0.00     0.285 S 
ATOM      2  O   UNL d   1     -38.158  14.495  18.450  0.00  0.00    -0.198 OA
ATOM      3  O   UNL d   1     -39.270  13.291  18.295  0.00  0.00    -0.198 OA
ENDROOT
BRANCH   1   4
ATOM      4  C   UNL d   1     -38.553  13.848  17.567  0.00  0.00     0.107 A 
ATOM      5  C   UNL d   1     -38.494  14.536  17.121  0.00  0.00     0.032 A 
ATOM      6  C   UNL d   1     -38.332  14.491  16.311  0.00  0.00     0.085 A 
ATOM      7  N   UNL d   1     -38.242  15.070  15.728  0.00  0.00    -0.256 N 
ATOM      8  C   UNL d   1     -38.231  13.759  15.951  0.00  0.00     0.085 A 
ATOM      9  C   UNL d   1     -38.087  14.703  15.024  0.00  0.00     0.339 A 
ATOM     10  C   UNL d   1     -38.298  15.888  15.837  0.00  0.00     0.104 C 
ATOM     11  N   UNL d   1     -38.078  13.890  15.151  0.00  0.00    -0.256 N 
ATOM     12  O   UNL d   1     -37.960  15.087  14.294  0.00  0.00    -0.245 OA
ATOM     13  C   UNL d   1     -37.940  13.309  14.573  0.00  0.00     0.104 C 
ATOM     14  C   UNL d   1     -38.290  13.068  16.398  0.00  0.00     0.020 A 
ATOM     15  C   UNL d   1     -38.451  13.113  17.208  0.00  0.00     0.015 A 
ENDBRANCH   1   4
BRANCH   1  16
ATOM     16  N   UNL d   1     -38.874  13.937  19.178  0.00  0.00    -0.156 NA
BRANCH  16  17
ATOM     17  C   UNL d   1     -39.467  14.435  19.454  0.00  0.00     0.118 A 
ATOM     18  C   UNL d   1     -39.865  14.931  18.931  0.00  0.00     0.046 A 
ATOM     19  C   UNL d   1     -40.458  15.429  19.207  0.00  0.00     0.096 A 
ATOM     20  C   UNL d   1     -40.659  15.434  20.016  0.00  0.00     0.026 A 
ATOM     21  C   UNL d   1     -40.261  14.938  20.538  0.00  0.00     0.028 A 
ATOM     22  C   UNL d   1     -39.663  14.437  20.255  0.00  0.00     0.113 A 
BRANCH  19  23
ATOM     23  O   UNL d   1     -40.852  15.922  18.679  0.00  0.00    -0.328 OA
ATOM     24  C   UNL d   1     -41.666  15.856  18.581  0.00  0.00     0.181 C 
ENDBRANCH  19  23
BRANCH  22  25
ATOM     25  O   UNL d   1     -39.265  13.941  20.777  0.00  0.00    -0.327 OA
ATOM     26  C   UNL d   1     -39.474  13.926  21.571  0.00  0.00     0.181 C 
ENDBRANCH  22  25
ENDBRANCH  16  17
ENDBRANCH   1  16
TORSDOF 5
ENDMDL
