MODEL 1
REMARK VINA RESULT:      -8.5      0.000      0.000
REMARK  7 active torsions:
REMARK  status: ('A' for Active; 'I' for Inactive)
REMARK    1  A    between atoms: C_13  and  N_1 
REMARK    2  A    between atoms: C_2  and  N_6 
REMARK    3  A    between atoms: C_9  and  C_5 
REMARK       I    between atoms: N_6  and  C_9 
REMARK    4  A    between atoms: S_14  and  C_7 
REMARK    5  A    between atoms: C_21  and  S_14 
REMARK    6  A    between atoms: C_15  and  C_21 
REMARK    7  A    between atoms: O_25  and  C_15 
ROOT
ATOM      1  N   UNL d   1      51.087  34.094  52.665  0.00  0.00    -0.181 NA
ATOM      2  C   UNL d   1      51.178  33.439  53.078  0.00  0.00     0.283 C 
ATOM      3  O   UNL d   1      50.554  33.032  53.304  0.00  0.00    -0.265 OA
ENDROOT
BRANCH   2   4
ATOM      4  C   UNL d   1      51.890  33.195  53.262  0.00  0.00     0.080 A 
ATOM      5  C   UNL d   1      52.374  33.525  53.771  0.00  0.00     0.088 A 
ATOM      6  N   UNL d   1      53.028  33.104  53.789  0.00  0.00    -0.273 N 
ATOM      7  C   UNL d   1      52.948  32.517  53.293  0.00  0.00     0.265 A 
ATOM      8  C   UNL d   1      52.242  32.569  52.963  0.00  0.00     0.067 A 
ATOM      9  O   UNL d   1      53.481  31.964  53.146  0.00  0.00    -0.267 OA
BRANCH   6  10
ATOM     10  C   UNL d   1      53.701  33.265  54.265  0.00  0.00     0.067 A 
ATOM     11  C   UNL d   1      54.325  33.722  53.954  0.00  0.00     0.020 A 
ATOM     12  C   UNL d   1      54.991  33.876  54.436  0.00  0.00     0.031 A 
ATOM     13  C   UNL d   1      55.033  33.582  55.208  0.00  0.00     0.140 A 
ATOM     14  C   UNL d   1      54.402  33.123  55.515  0.00  0.00     0.031 A 
ATOM     15  F   UNL d   1      55.705  33.739  55.691  0.00  0.00    -0.204 F 
ATOM     16  C   UNL d   1      53.743  32.966  55.048  0.00  0.00     0.020 A 
ENDBRANCH   6  10
ENDBRANCH   2   4
BRANCH   1  17
ATOM     17  C   UNL d   1      50.375  34.342  52.479  0.00  0.00     0.219 A 
ATOM     18  S   UNL d   1      49.931  34.823  52.900  0.00  0.00    -0.019 SA
ATOM     19  C   UNL d   1      49.268  34.930  52.522  0.00  0.00     0.165 A 
ATOM     20  N   UNL d   1      49.286  34.519  51.860  0.00  0.00    -0.133 NA
ATOM     21  N   UNL d   1      49.983  34.149  51.834  0.00  0.00    -0.120 NA
BRANCH  19  22
ATOM     22  S   UNL d   1      48.116  35.963  53.259  0.00  0.00    -0.053 SA
BRANCH  22  23
ATOM     23  C   UNL d   1      47.576  36.390  52.789  0.00  0.00     0.106 C 
BRANCH  23  24
ATOM     24  C   UNL d   1      46.783  36.514  53.058  0.00  0.00     0.303 C 
ATOM     25  O   UNL d   1      46.617  36.567  53.874  0.00  0.00    -0.259 OA
BRANCH  24  26
ATOM     26  O   UNL d   1      46.168  36.581  52.484  0.00  0.00    -0.295 OA
ATOM     27  C   UNL d   1      45.388  36.709  52.750  0.00  0.00     0.185 C 
ENDBRANCH  24  26
ENDBRANCH  23  24
ENDBRANCH  22  23
ENDBRANCH  19  22
ENDBRANCH   1  17
TORSDOF 7
ENDMDL
MODEL 2
REMARK VINA RESULT:      -7.9      1.830      2.331
REMARK  7 active torsions:
REMARK  status: ('A' for Active; 'I' for Inactive)
REMARK    1  A    between atoms: C_13  and  N_1 
REMARK    2  A    between atoms: C_2  and  N_6 
REMARK    3  A    between atoms: C_9  and  C_5 
REMARK       I    between atoms: N_6  and  C_9 
REMARK    4  A    between atoms: S_14  and  C_7 
REMARK    5  A    between atoms: C_21  and  S_14 
REMARK    6  A    between atoms: C_15  and  C_21 
REMARK    7  A    between atoms: O_25  and  C_15 
ROOT
ATOM      1  N   UNL d   1      51.017  33.733  53.150  0.00  0.00    -0.181 NA
ATOM      2  C   UNL d   1      51.746  33.879  52.919  0.00  0.00     0.283 C 
ATOM      3  O   UNL d   1      51.916  34.557  52.576  0.00  0.00    -0.265 OA
ENDROOT
BRANCH   2   4
ATOM      4  C   UNL d   1      52.301  33.350  53.031  0.00  0.00     0.080 A 
ATOM      5  C   UNL d   1      52.196  32.594  53.169  0.00  0.00     0.088 A 
ATOM      6  N   UNL d   1      52.896  32.264  53.248  0.00  0.00    -0.273 N 
ATOM      7  C   UNL d   1      53.431  32.814  53.158  0.00  0.00     0.265 A 
ATOM      8  C   UNL d   1      53.066  33.492  53.023  0.00  0.00     0.067 A 
ATOM      9  O   UNL d   1      54.205  32.713  53.195  0.00  0.00    -0.267 OA
BRANCH   6  10
ATOM     10  C   UNL d   1      53.040  31.452  53.402  0.00  0.00     0.067 A 
ATOM     11  C   UNL d   1      53.368  31.225  54.135  0.00  0.00     0.020 A 
ATOM     12  C   UNL d   1      53.508  30.413  54.280  0.00  0.00     0.031 A 
ATOM     13  C   UNL d   1      53.326  29.842  53.709  0.00  0.00     0.140 A 
ATOM     14  C   UNL d   1      52.996  30.077  52.975  0.00  0.00     0.031 A 
ATOM     15  F   UNL d   1      53.468  29.025  53.858  0.00  0.00    -0.204 F 
ATOM     16  C   UNL d   1      52.855  30.874  52.823  0.00  0.00     0.020 A 
ENDBRANCH   6  10
ENDBRANCH   2   4
BRANCH   1  17
ATOM     17  C   UNL d   1      50.458  34.261  53.040  0.00  0.00     0.219 A 
ATOM     18  S   UNL d   1      49.906  34.238  52.492  0.00  0.00    -0.019 SA
ATOM     19  C   UNL d   1      49.464  34.864  52.571  0.00  0.00     0.165 A 
ATOM     20  N   UNL d   1      49.730  35.287  53.169  0.00  0.00    -0.133 NA
ATOM     21  N   UNL d   1      50.356  34.907  53.463  0.00  0.00    -0.120 NA
BRANCH  19  22
ATOM     22  S   UNL d   1      48.165  35.037  51.465  0.00  0.00    -0.053 SA
BRANCH  22  23
ATOM     23  C   UNL d   1      47.602  35.643  51.573  0.00  0.00     0.106 C 
BRANCH  23  24
ATOM     24  C   UNL d   1      46.793  35.513  51.362  0.00  0.00     0.303 C 
ATOM     25  O   UNL d   1      46.594  34.957  50.772  0.00  0.00    -0.259 OA
BRANCH  24  26
ATOM     26  O   UNL d   1      46.196  35.956  51.761  0.00  0.00    -0.295 OA
ATOM     27  C   UNL d   1      45.417  35.934  51.463  0.00  0.00     0.185 C 
ENDBRANCH  24  26
ENDBRANCH  23  24
ENDBRANCH  22  23
ENDBRANCH  19  22
ENDBRANCH   1  17
TORSDOF 7
ENDMDL
MODEL 3
REMARK VINA RESULT:      -7.6      1.510      1.914
REMARK  7 active torsions:
REMARK  status: ('A' for Active; 'I' for Inactive)
REMARK    1  A    between atoms: C_13  and  N_1 
REMARK    2  A    between atoms: C_2  and  N_6 
REMARK    3  A    between atoms: C_9  and  C_5 
REMARK       I    between atoms: N_6  and  C_9 
REMARK    4  A    between atoms: S_14  and  C_7 
REMARK    5  A    between atoms: C_21  and  S_14 
REMARK    6  A    between atoms: C_15  and  C_21 
REMARK    7  A    between atoms: O_25  and  C_15 
ROOT
ATOM      1  N   UNL d   1      50.641  33.949  52.901  0.00  0.00    -0.181 NA
ATOM      2  C   UNL d   1      51.333  33.995  52.547  0.00  0.00     0.283 C 
ATOM      3  O   UNL d   1      51.423  34.457  51.927  0.00  0.00    -0.265 OA
ENDROOT
BRANCH   2   4
ATOM      4  C   UNL d   1      51.932  33.580  52.813  0.00  0.00     0.080 A 
ATOM      5  C   UNL d   1      51.973  32.808  52.859  0.00  0.00     0.088 A 
ATOM      6  N   UNL d   1      52.667  32.621  53.157  0.00  0.00    -0.273 N 
ATOM      7  C   UNL d   1      53.052  33.276  53.294  0.00  0.00     0.265 A 
ATOM      8  C   UNL d   1      52.599  33.877  53.082  0.00  0.00     0.067 A 
ATOM      9  O   UNL d   1      53.772  33.332  53.594  0.00  0.00    -0.267 OA
BRANCH   6  10
ATOM     10  C   UNL d   1      52.945  31.842  53.302  0.00  0.00     0.067 A 
ATOM     11  C   UNL d   1      53.456  31.701  53.945  0.00  0.00     0.020 A 
ATOM     12  C   UNL d   1      53.728  30.921  54.081  0.00  0.00     0.031 A 
ATOM     13  C   UNL d   1      53.495  30.299  53.589  0.00  0.00     0.140 A 
ATOM     14  C   UNL d   1      52.980  30.447  52.944  0.00  0.00     0.031 A 
ATOM     15  F   UNL d   1      53.770  29.514  53.729  0.00  0.00    -0.204 F 
ATOM     16  C   UNL d   1      52.708  31.211  52.802  0.00  0.00     0.020 A 
ENDBRANCH   6  10
ENDBRANCH   2   4
BRANCH   1  17
ATOM     17  C   UNL d   1      50.039  34.362  52.637  0.00  0.00     0.219 A 
ATOM     18  S   UNL d   1      49.593  34.844  53.056  0.00  0.00    -0.019 SA
ATOM     19  C   UNL d   1      49.059  35.144  52.589  0.00  0.00     0.165 A 
ATOM     20  N   UNL d   1      49.162  34.857  51.872  0.00  0.00    -0.133 NA
ATOM     21  N   UNL d   1      49.778  34.365  51.903  0.00  0.00    -0.120 NA
BRANCH  19  22
ATOM     22  S   UNL d   1      47.949  36.246  53.291  0.00  0.00    -0.053 SA
BRANCH  22  23
ATOM     23  C   UNL d   1      47.351  36.592  52.823  0.00  0.00     0.106 C 
BRANCH  23  24
ATOM     24  C   UNL d   1      46.564  36.661  53.124  0.00  0.00     0.303 C 
ATOM     25  O   UNL d   1      46.427  36.686  53.948  0.00  0.00    -0.259 OA
BRANCH  24  26
ATOM     26  O   UNL d   1      45.924  36.706  52.576  0.00  0.00    -0.295 OA
ATOM     27  C   UNL d   1      45.144  36.700  52.871  0.00  0.00     0.185 C 
ENDBRANCH  24  26
ENDBRANCH  23  24
ENDBRANCH  22  23
ENDBRANCH  19  22
ENDBRANCH   1  17
TORSDOF 7
ENDMDL
MODEL 4
REMARK VINA RESULT:      -6.2      2.893      6.472
REMARK  7 active torsions:
REMARK  status: ('A' for Active; 'I' for Inactive)
REMARK    1  A    between atoms: C_13  and  N_1 
REMARK    2  A    between atoms: C_2  and  N_6 
REMARK    3  A    between atoms: C_9  and  C_5 
REMARK       I    between atoms: N_6  and  C_9 
REMARK    4  A    between atoms: S_14  and  C_7 
REMARK    5  A    between atoms: C_21  and  S_14 
REMARK    6  A    between atoms: C_15  and  C_21 
REMARK    7  A    between atoms: O_25  and  C_15 
ROOT
ATOM      1  N   UNL d   1      51.151  34.547  52.542  0.00  0.00    -0.181 NA
ATOM      2  C   UNL d   1      50.438  34.338  52.776  0.00  0.00     0.283 C 
ATOM      3  O   UNL d   1      50.349  33.926  53.431  0.00  0.00    -0.265 OA
ENDROOT
BRANCH   2   4
ATOM      4  C   UNL d   1      49.818  34.540  52.357  0.00  0.00     0.080 A 
ATOM      5  C   UNL d   1      49.216  34.965  52.599  0.00  0.00     0.088 A 
ATOM      6  N   UNL d   1      48.718  35.037  52.005  0.00  0.00    -0.273 N 
ATOM      7  C   UNL d   1      49.012  34.657  51.401  0.00  0.00     0.265 A 
ATOM      8  C   UNL d   1      49.696  34.345  51.614  0.00  0.00     0.067 A 
ATOM      9  O   UNL d   1      48.682  34.593  50.694  0.00  0.00    -0.267 OA
BRANCH   6  10
ATOM     10  C   UNL d   1      47.991  35.455  52.024  0.00  0.00     0.067 A 
ATOM     11  C   UNL d   1      47.392  35.263  51.477  0.00  0.00     0.020 A 
ATOM     12  C   UNL d   1      46.670  35.685  51.503  0.00  0.00     0.031 A 
ATOM     13  C   UNL d   1      46.549  36.283  52.062  0.00  0.00     0.140 A 
ATOM     14  C   UNL d   1      47.155  36.471  52.610  0.00  0.00     0.031 A 
ATOM     15  F   UNL d   1      45.821  36.707  52.086  0.00  0.00    -0.204 F 
ATOM     16  C   UNL d   1      47.868  36.061  52.591  0.00  0.00     0.020 A 
ENDBRANCH   6  10
ENDBRANCH   2   4
BRANCH   1  17
ATOM     17  C   UNL d   1      51.774  34.347  52.960  0.00  0.00     0.219 A 
ATOM     18  S   UNL d   1      52.103  33.642  52.985  0.00  0.00    -0.019 SA
ATOM     19  C   UNL d   1      52.706  33.676  53.463  0.00  0.00     0.165 A 
ATOM     20  N   UNL d   1      52.765  34.400  53.744  0.00  0.00    -0.133 NA
ATOM     21  N   UNL d   1      52.178  34.822  53.427  0.00  0.00    -0.120 NA
BRANCH  19  22
ATOM     22  S   UNL d   1      53.599  32.229  53.684  0.00  0.00    -0.053 SA
BRANCH  22  23
ATOM     23  C   UNL d   1      53.487  31.585  53.165  0.00  0.00     0.106 C 
BRANCH  23  24
ATOM     24  C   UNL d   1      53.343  30.812  53.474  0.00  0.00     0.303 C 
ATOM     25  O   UNL d   1      53.610  30.604  54.238  0.00  0.00    -0.259 OA
BRANCH  24  26
ATOM     26  O   UNL d   1      52.926  30.257  52.994  0.00  0.00    -0.295 OA
ATOM     27  C   UNL d   1      52.729  29.515  53.322  0.00  0.00     0.185 C 
ENDBRANCH  24  26
ENDBRANCH  23  24
ENDBRANCH  22  23
ENDBRANCH  19  22
ENDBRANCH   1  17
TORSDOF 7
ENDMDL
