MODEL 1
REMARK VINA RESULT:      33.2      0.000      0.000
REMARK  6 active torsions:
REMARK  status: ('A' for Active; 'I' for Inactive)
REMARK    1  A    between atoms: C_3  and  S_1 
REMARK    2  A    between atoms: N_12  and  S_1 
REMARK    3  A    between atoms: C_6  and  C_16 
REMARK    4  A    between atoms: C_17  and  N_12 
REMARK    5  A    between atoms: O_18  and  C_13 
REMARK    6  A    between atoms: C_16  and  C_17 
ROOT
ATOM      1  S   UNL d   1     -54.892-102.077 -42.329  0.00  0.00     0.285 S 
ATOM      2  O   UNL d   1     -54.713-101.477 -41.781  0.00  0.00    -0.198 OA
ATOM      3  O   UNL d   1     -55.070-102.673 -42.875  0.00  0.00    -0.198 OA
ENDROOT
BRANCH   1   4
ATOM      4  C   UNL d   1     -54.927-101.516 -42.929  0.00  0.00     0.105 A 
ATOM      5  C   UNL d   1     -54.860-100.717 -42.750  0.00  0.00     0.015 A 
ATOM      6  C   UNL d   1     -54.896-100.156 -43.362  0.00  0.00     0.023 A 
ATOM      7  C   UNL d   1     -54.829 -99.349 -43.184  0.00  0.00     0.002 C 
ATOM      8  C   UNL d   1     -54.998-100.396 -44.133  0.00  0.00     0.094 A 
ATOM      9  C   UNL d   1     -55.065-101.199 -44.311  0.00  0.00     0.025 A 
ATOM     10  C   UNL d   1     -55.029-101.756 -43.712  0.00  0.00     0.015 A 
BRANCH   8  11
ATOM     11  O   UNL d   1     -55.033 -99.839 -44.737  0.00  0.00    -0.328 OA
ATOM     12  C   UNL d   1     -55.537 -99.194 -44.675  0.00  0.00     0.181 C 
ENDBRANCH   8  11
ENDBRANCH   1   4
BRANCH   1  13
ATOM     13  N   UNL d   1     -54.855-102.634 -41.721  0.00  0.00    -0.157 NA
BRANCH  13  14
ATOM     14  C   UNL d   1     -55.145-102.431 -40.959  0.00  0.00     0.114 C 
BRANCH  14  15
ATOM     15  C   UNL d   1     -54.883-102.844 -40.301  0.00  0.00     0.041 C 
BRANCH  15  16
ATOM     16  C   UNL d   1     -54.894-102.494 -39.553  0.00  0.00     0.090 A 
ATOM     17  N   UNL d   1     -55.093-102.879 -38.848  0.00  0.00    -0.238 NA
ATOM     18  C   UNL d   1     -55.031-102.325 -38.236  0.00  0.00     0.111 A 
ATOM     19  C   UNL d   1     -55.179-102.464 -37.428  0.00  0.00     0.028 C 
ATOM     20  S   UNL d   1     -54.796-101.603 -38.560  0.00  0.00    -0.066 SA
ATOM     21  C   UNL d   1     -54.711-101.709 -39.379  0.00  0.00     0.056 A 
ENDBRANCH  15  16
ENDBRANCH  14  15
ENDBRANCH  13  14
ENDBRANCH   1  13
TORSDOF 6
ENDMDL
MODEL 2
REMARK VINA RESULT:      35.8      1.363      2.251
REMARK  6 active torsions:
REMARK  status: ('A' for Active; 'I' for Inactive)
REMARK    1  A    between atoms: C_3  and  S_1 
REMARK    2  A    between atoms: N_12  and  S_1 
REMARK    3  A    between atoms: C_6  and  C_16 
REMARK    4  A    between atoms: C_17  and  N_12 
REMARK    5  A    between atoms: O_18  and  C_13 
REMARK    6  A    between atoms: C_16  and  C_17 
ROOT
ATOM      1  S   UNL d   1     -54.998-102.198 -40.199  0.00  0.00     0.285 S 
ATOM      2  O   UNL d   1     -55.045-101.515 -39.726  0.00  0.00    -0.198 OA
ATOM      3  O   UNL d   1     -54.951-102.877 -40.672  0.00  0.00    -0.198 OA
ENDROOT
BRANCH   1   4
ATOM      4  C   UNL d   1     -54.927-101.726 -40.869  0.00  0.00     0.105 A 
ATOM      5  C   UNL d   1     -54.949-102.066 -41.616  0.00  0.00     0.015 A 
ATOM      6  C   UNL d   1     -54.877-101.582 -42.289  0.00  0.00     0.023 A 
ATOM      7  C   UNL d   1     -54.899-101.923 -43.044  0.00  0.00     0.002 C 
ATOM      8  C   UNL d   1     -54.784-100.777 -42.206  0.00  0.00     0.094 A 
ATOM      9  C   UNL d   1     -54.762-100.438 -41.455  0.00  0.00     0.025 A 
ATOM     10  C   UNL d   1     -54.833-100.909 -40.789  0.00  0.00     0.015 A 
BRANCH   8  11
ATOM     11  O   UNL d   1     -54.712-100.301 -42.873  0.00  0.00    -0.328 OA
ATOM     12  C   UNL d   1     -55.251-100.368 -43.489  0.00  0.00     0.181 C 
ENDBRANCH   8  11
ENDBRANCH   1   4
BRANCH   1  13
ATOM     13  N   UNL d   1     -55.070-102.664 -39.522  0.00  0.00    -0.157 NA
BRANCH  13  14
ATOM     14  C   UNL d   1     -54.780-102.373 -38.790  0.00  0.00     0.114 C 
BRANCH  14  15
ATOM     15  C   UNL d   1     -54.747-102.871 -38.139  0.00  0.00     0.041 C 
BRANCH  15  16
ATOM     16  C   UNL d   1     -55.070-102.640 -37.415  0.00  0.00     0.090 A 
ATOM     17  N   UNL d   1     -54.713-102.126 -36.874  0.00  0.00    -0.238 NA
ATOM     18  C   UNL d   1     -55.226-102.048 -36.229  0.00  0.00     0.111 A 
ATOM     19  C   UNL d   1     -55.097-101.584 -35.549  0.00  0.00     0.028 C 
ATOM     20  S   UNL d   1     -55.895-102.511 -36.370  0.00  0.00    -0.066 SA
ATOM     21  C   UNL d   1     -55.798-102.878 -37.108  0.00  0.00     0.056 A 
ENDBRANCH  15  16
ENDBRANCH  14  15
ENDBRANCH  13  14
ENDBRANCH   1  13
TORSDOF 6
ENDMDL
