MODEL 1
REMARK VINA RESULT:       8.7      0.000      0.000
REMARK  4 active torsions:
REMARK  status: ('A' for Active; 'I' for Inactive)
REMARK    1  A    between atoms: C_5  and  C_1 
REMARK       I    between atoms: N_8  and  C_5 
REMARK    2  A    between atoms: C_10  and  N_8 
REMARK    3  A    between atoms: C_13  and  C_10 
REMARK    4  A    between atoms: C_11  and  C_13 
ROOT
ATOM      1  C   UNL d   1      45.637 -15.483  44.580  0.00  0.00     0.299 C 
ATOM      2  O   UNL d   1      44.931 -15.704  44.933  0.00  0.00    -0.263 OA
ATOM      3  N   UNL d   1      46.113 -16.051  44.215  0.00  0.00    -0.205 NA
ENDROOT
BRANCH   1   4
ATOM      4  C   UNL d   1      45.874 -14.691  44.590  0.00  0.00     0.162 A 
ATOM      5  N   UNL d   1      46.547 -14.400  44.955  0.00  0.00    -0.143 NA
ATOM      6  N   UNL d   1      46.576 -13.578  44.831  0.00  0.00    -0.148 NA
ATOM      7  C   UNL d   1      45.905 -13.375  44.380  0.00  0.00     0.105 A 
ATOM      8  C   UNL d   1      45.474 -14.065  44.234  0.00  0.00     0.044 A 
ATOM      9  C   UNL d   1      45.645 -12.658  44.095  0.00  0.00     0.021 A 
ATOM     10  C   UNL d   1      44.780 -14.020  43.797  0.00  0.00     0.003 A 
ATOM     11  C   UNL d   1      44.521 -13.307  43.513  0.00  0.00     0.000 A 
ATOM     12  C   UNL d   1      44.949 -12.627  43.660  0.00  0.00     0.002 A 
ENDBRANCH   1   4
BRANCH   3  13
ATOM     13  C   UNL d   1      45.875 -16.842  44.206  0.00  0.00     0.102 C 
BRANCH  13  14
ATOM     14  C   UNL d   1      46.079 -17.320  43.559  0.00  0.00     0.021 C 
BRANCH  14  15
ATOM     15  C   UNL d   1      46.255 -18.120  43.692  0.00  0.00     0.002 A 
ATOM     16  C   UNL d   1      46.293 -18.636  43.042  0.00  0.00     0.000 A 
ATOM     17  C   UNL d   1      46.469 -19.436  43.174  0.00  0.00     0.000 A 
ATOM     18  C   UNL d   1      46.603 -19.712  43.934  0.00  0.00     0.000 A 
ATOM     19  C   UNL d   1      46.562 -19.191  44.568  0.00  0.00     0.000 A 
ATOM     20  C   UNL d   1      46.391 -18.407  44.455  0.00  0.00     0.000 A 
ENDBRANCH  14  15
ENDBRANCH  13  14
ENDBRANCH   3  13
TORSDOF 4
ENDMDL
MODEL 2
REMARK VINA RESULT:       9.0      1.376      5.046
REMARK  4 active torsions:
REMARK  status: ('A' for Active; 'I' for Inactive)
REMARK    1  A    between atoms: C_5  and  C_1 
REMARK       I    between atoms: N_8  and  C_5 
REMARK    2  A    between atoms: C_10  and  N_8 
REMARK    3  A    between atoms: C_13  and  C_10 
REMARK    4  A    between atoms: C_11  and  C_13 
ROOT
ATOM      1  C   UNL d   1      46.209 -17.546  43.708  0.00  0.00     0.299 C 
ATOM      2  O   UNL d   1      46.346 -17.219  42.969  0.00  0.00    -0.263 OA
ATOM      3  N   UNL d   1      45.983 -17.062  44.339  0.00  0.00    -0.205 NA
ENDROOT
BRANCH   1   4
ATOM      4  C   UNL d   1      46.296 -18.359  43.824  0.00  0.00     0.162 A 
ATOM      5  N   UNL d   1      46.281 -18.742  44.547  0.00  0.00    -0.143 NA
ATOM      6  N   UNL d   1      46.389 -19.556  44.415  0.00  0.00    -0.148 NA
ATOM      7  C   UNL d   1      46.470 -19.660  43.592  0.00  0.00     0.105 A 
ATOM      8  C   UNL d   1      46.412 -18.920  43.231  0.00  0.00     0.044 A 
ATOM      9  C   UNL d   1      46.587 -20.330  43.144  0.00  0.00     0.021 A 
ATOM     10  C   UNL d   1      46.474 -18.865  42.413  0.00  0.00     0.003 A 
ATOM     11  C   UNL d   1      46.590 -19.531  41.967  0.00  0.00     0.000 A 
ATOM     12  C   UNL d   1      46.647 -20.262  42.327  0.00  0.00     0.002 A 
ENDBRANCH   1   4
BRANCH   3  13
ATOM     13  C   UNL d   1      45.896 -16.249  44.223  0.00  0.00     0.102 C 
BRANCH  13  14
ATOM     14  C   UNL d   1      45.520 -15.794  44.805  0.00  0.00     0.021 C 
BRANCH  14  15
ATOM     15  C   UNL d   1      45.511 -14.967  44.724  0.00  0.00     0.002 A 
ATOM     16  C   UNL d   1      44.780 -14.578  44.665  0.00  0.00     0.000 A 
ATOM     17  C   UNL d   1      44.771 -13.751  44.584  0.00  0.00     0.000 A 
ATOM     18  C   UNL d   1      45.472 -13.328  44.563  0.00  0.00     0.000 A 
ATOM     19  C   UNL d   1      46.188 -13.726  44.622  0.00  0.00     0.000 A 
ATOM     20  C   UNL d   1      46.214 -14.533  44.702  0.00  0.00     0.000 A 
ENDBRANCH  14  15
ENDBRANCH  13  14
ENDBRANCH   3  13
TORSDOF 4
ENDMDL
