MODEL 1
REMARK VINA RESULT:      56.0      0.000      0.000
REMARK  7 active torsions:
REMARK  status: ('A' for Active; 'I' for Inactive)
REMARK    1  A    between atoms: C_5  and  C_1 
REMARK    2  A    between atoms: N_6  and  C_2 
REMARK    3  A    between atoms: C_7  and  C_5 
REMARK    4  A    between atoms: C_8  and  C_5 
REMARK       I    between atoms: N_13  and  C_7 
REMARK    5  A    between atoms: C_17  and  N_13 
REMARK    6  A    between atoms: C_23  and  C_17 
REMARK    7  A    between atoms: C_18  and  C_23 
ROOT
ATOM      1  C   UNL d   1     -54.928-100.996 -42.710  0.00  0.00     0.117 A 
ATOM      2  C   UNL d   1     -54.978-101.813 -42.812  0.00  0.00     0.145 A 
ATOM      3  N   UNL d   1     -54.948-102.313 -42.154  0.00  0.00    -0.230 NA
ATOM      4  N   UNL d   1     -54.849-100.678 -41.950  0.00  0.00    -0.241 NA
ATOM      5  C   UNL d   1     -54.870-101.996 -41.399  0.00  0.00     0.100 A 
ATOM      6  C   UNL d   1     -54.820-101.178 -41.297  0.00  0.00     0.099 A 
ATOM      7  C   UNL d   1     -54.841-102.495 -40.746  0.00  0.00     0.021 A 
ATOM      8  C   UNL d   1     -54.742-100.860 -40.542  0.00  0.00     0.021 A 
ATOM      9  C   UNL d   1     -54.762-102.179 -39.982  0.00  0.00     0.002 A 
ATOM     10  C   UNL d   1     -54.713-101.362 -39.880  0.00  0.00     0.002 A 
ENDROOT
BRANCH   1  11
ATOM     11  C   UNL d   1     -54.972-100.648 -43.454  0.00  0.00     0.099 C 
BRANCH  11  12
ATOM     12  C   UNL d   1     -55.204 -99.883 -43.699  0.00  0.00     0.282 C 
ATOM     13  O   UNL d   1     -54.717 -99.228 -43.536  0.00  0.00    -0.265 OA
ATOM     14  N   UNL d   1     -55.920 -99.782 -44.104  0.00  0.00    -0.206 NA
BRANCH  14  15
ATOM     15  C   UNL d   1     -56.148 -99.018 -44.348  0.00  0.00     0.102 C 
BRANCH  15  16
ATOM     16  C   UNL d   1     -56.874 -98.766 -44.656  0.00  0.00     0.021 C 
BRANCH  16  17
ATOM     17  C   UNL d   1     -57.568 -98.891 -44.234  0.00  0.00     0.002 A 
ATOM     18  C   UNL d   1     -58.235 -99.150 -44.632  0.00  0.00     0.000 A 
ATOM     19  C   UNL d   1     -58.934 -99.276 -44.207  0.00  0.00     0.000 A 
ATOM     20  C   UNL d   1     -58.957 -99.141 -43.395  0.00  0.00     0.000 A 
ATOM     21  C   UNL d   1     -58.274 -98.880 -43.010  0.00  0.00     0.000 A 
ATOM     22  C   UNL d   1     -57.585 -98.756 -43.429  0.00  0.00     0.000 A 
ENDBRANCH  16  17
ENDBRANCH  15  16
ENDBRANCH  14  15
ENDBRANCH  11  12
BRANCH  11  23
ATOM     23  C   UNL d   1     -54.758-101.103 -44.097  0.00  0.00     0.129 C 
ATOM     24  N   UNL d   1     -54.831-101.032 -44.916  0.00  0.00    -0.146 N 
ENDBRANCH  11  23
ENDBRANCH   1  11
BRANCH   2  25
ATOM     25  N   UNL d   1     -55.052-101.968 -43.618  0.00  0.00    -0.188 NA
ATOM     26  C   UNL d   1     -54.732-102.631 -43.981  0.00  0.00     0.083 A 
ATOM     27  C   UNL d   1     -55.108-102.346 -44.977  0.00  0.00     0.136 A 
ATOM     28  O   UNL d   1     -55.039-102.667 -45.567  0.00  0.00    -0.301 OA
ATOM     29  C   UNL d   1     -55.371-101.960 -45.134  0.00  0.00     0.136 A 
ATOM     30  C   UNL d   1     -55.009-102.248 -44.216  0.00  0.00     0.083 A 
ENDBRANCH   2  25
TORSDOF 7
ENDMDL
