MODEL 1
REMARK VINA RESULT:      -6.7      0.000      0.000
REMARK  4 active torsions:
REMARK  status: ('A' for Active; 'I' for Inactive)
REMARK       I    between atoms: C_3  and  N_1 
REMARK    1  A    between atoms: C_9  and  C_3 
REMARK    2  A    between atoms: S_8  and  C_9 
REMARK    3  A    between atoms: C_12  and  S_8 
REMARK    4  A    between atoms: C_11  and  C_12 
ROOT
ATOM      1  N   UNL d   1     -46.615  12.996  22.869  0.00  0.00    -0.274 N 
ATOM      2  C   UNL d   1     -46.232  12.301  23.092  0.00  0.00     0.067 A 
ATOM      3  C   UNL d   1     -47.393  13.218  23.073  0.00  0.00     0.259 C 
ATOM      4  C   UNL d   1     -46.094  13.443  22.402  0.00  0.00     0.083 A 
ATOM      5  C   UNL d   1     -45.475  12.311  22.768  0.00  0.00     0.018 A 
ATOM      6  O   UNL d   1     -47.862  12.719  23.547  0.00  0.00    -0.267 OA
ATOM      7  C   UNL d   1     -45.395  13.013  22.346  0.00  0.00     0.021 A 
ATOM      8  C   UNL d   1     -46.474  11.661  23.548  0.00  0.00     0.018 A 
ATOM      9  C   UNL d   1     -44.960  11.690  22.895  0.00  0.00     0.002 A 
ATOM     10  C   UNL d   1     -45.970  11.036  23.683  0.00  0.00     0.002 A 
ATOM     11  C   UNL d   1     -45.205  11.039  23.359  0.00  0.00     0.000 A 
ENDROOT
BRANCH   3  12
ATOM     12  C   UNL d   1     -47.707  13.942  22.804  0.00  0.00     0.125 C 
BRANCH  12  13
ATOM     13  S   UNL d   1     -48.487  14.139  22.972  0.00  0.00    -0.094 SA
BRANCH  13  14
ATOM     14  C   UNL d   1     -48.828  14.805  22.614  0.00  0.00     0.035 C 
BRANCH  14  15
ATOM     15  C   UNL d   1     -49.581  15.063  22.856  0.00  0.00     0.006 A 
ATOM     16  C   UNL d   1     -50.254  14.755  22.491  0.00  0.00     0.001 A 
ATOM     17  C   UNL d   1     -51.002  15.011  22.731  0.00  0.00     0.000 A 
ATOM     18  C   UNL d   1     -51.063  15.574  23.335  0.00  0.00     0.000 A 
ATOM     19  C   UNL d   1     -50.394  15.879  23.696  0.00  0.00     0.000 A 
ATOM     20  C   UNL d   1     -49.652  15.626  23.460  0.00  0.00     0.001 A 
ENDBRANCH  14  15
ENDBRANCH  13  14
ENDBRANCH  12  13
ENDBRANCH   3  12
TORSDOF 4
ENDMDL
MODEL 2
REMARK VINA RESULT:      -5.8      1.249      5.153
REMARK  4 active torsions:
REMARK  status: ('A' for Active; 'I' for Inactive)
REMARK       I    between atoms: C_3  and  N_1 
REMARK    1  A    between atoms: C_9  and  C_3 
REMARK    2  A    between atoms: S_8  and  C_9 
REMARK    3  A    between atoms: C_12  and  S_8 
REMARK    4  A    between atoms: C_11  and  C_12 
ROOT
ATOM      1  N   UNL d   1     -48.235  13.207  23.091  0.00  0.00    -0.274 N 
ATOM      2  C   UNL d   1     -48.542  13.954  22.927  0.00  0.00     0.067 A 
ATOM      3  C   UNL d   1     -47.429  13.011  23.173  0.00  0.00     0.259 C 
ATOM      4  C   UNL d   1     -48.869  12.675  23.162  0.00  0.00     0.083 A 
ATOM      5  C   UNL d   1     -49.362  13.893  22.895  0.00  0.00     0.018 A 
ATOM      6  O   UNL d   1     -46.843  13.597  23.089  0.00  0.00    -0.267 OA
ATOM      7  C   UNL d   1     -49.558  13.106  23.040  0.00  0.00     0.021 A 
ATOM      8  C   UNL d   1     -48.180  14.682  22.802  0.00  0.00     0.018 A 
ATOM      9  C   UNL d   1     -49.822  14.550  22.741  0.00  0.00     0.002 A 
ATOM     10  C   UNL d   1     -48.627  15.344  22.648  0.00  0.00     0.002 A 
ATOM     11  C   UNL d   1     -49.455  15.290  22.614  0.00  0.00     0.000 A 
ENDROOT
BRANCH   3  12
ATOM     12  C   UNL d   1     -47.201  12.226  23.340  0.00  0.00     0.125 C 
BRANCH  12  13
ATOM     13  S   UNL d   1     -46.406  12.019  23.340  0.00  0.00    -0.094 SA
BRANCH  13  14
ATOM     14  C   UNL d   1     -46.190  11.221  23.398  0.00  0.00     0.035 C 
BRANCH  14  15
ATOM     15  C   UNL d   1     -45.386  11.007  23.362  0.00  0.00     0.006 A 
ATOM     16  C   UNL d   1     -44.848  11.510  22.992  0.00  0.00     0.001 A 
ATOM     17  C   UNL d   1     -44.049  11.299  22.956  0.00  0.00     0.000 A 
ATOM     18  C   UNL d   1     -43.805  10.584  23.295  0.00  0.00     0.000 A 
ATOM     19  C   UNL d   1     -44.341  10.085  23.662  0.00  0.00     0.000 A 
ATOM     20  C   UNL d   1     -45.132  10.293  23.698  0.00  0.00     0.001 A 
ENDBRANCH  14  15
ENDBRANCH  13  14
ENDBRANCH  12  13
ENDBRANCH   3  12
TORSDOF 4
ENDMDL
MODEL 3
REMARK VINA RESULT:      -5.6      1.097      4.959
REMARK  4 active torsions:
REMARK  status: ('A' for Active; 'I' for Inactive)
REMARK       I    between atoms: C_3  and  N_1 
REMARK    1  A    between atoms: C_9  and  C_3 
REMARK    2  A    between atoms: S_8  and  C_9 
REMARK    3  A    between atoms: C_12  and  S_8 
REMARK    4  A    between atoms: C_11  and  C_12 
ROOT
ATOM      1  N   UNL d   1     -48.776  13.924  22.498  0.00  0.00    -0.274 N 
ATOM      2  C   UNL d   1     -49.529  13.972  22.167  0.00  0.00     0.067 A 
ATOM      3  C   UNL d   1     -48.208  13.331  22.349  0.00  0.00     0.259 C 
ATOM      4  C   UNL d   1     -48.674  14.569  23.010  0.00  0.00     0.083 A 
ATOM      5  C   UNL d   1     -49.898  14.643  22.468  0.00  0.00     0.018 A 
ATOM      6  O   UNL d   1     -48.377  12.709  21.821  0.00  0.00    -0.267 OA
ATOM      7  C   UNL d   1     -49.370  15.006  22.985  0.00  0.00     0.021 A 
ATOM      8  C   UNL d   1     -49.926  13.492  21.629  0.00  0.00     0.018 A 
ATOM      9  C   UNL d   1     -50.657  14.838  22.239  0.00  0.00     0.002 A 
ATOM     10  C   UNL d   1     -50.682  13.675  21.392  0.00  0.00     0.002 A 
ATOM     11  C   UNL d   1     -51.061  14.351  21.693  0.00  0.00     0.000 A 
ENDROOT
BRANCH   3  12
ATOM     12  C   UNL d   1     -47.466  13.355  22.728  0.00  0.00     0.125 C 
BRANCH  12  13
ATOM     13  S   UNL d   1     -47.016  12.671  22.798  0.00  0.00    -0.094 SA
BRANCH  13  14
ATOM     14  C   UNL d   1     -46.357  12.662  23.301  0.00  0.00     0.035 C 
BRANCH  14  15
ATOM     15  C   UNL d   1     -45.852  12.001  23.307  0.00  0.00     0.006 A 
ATOM     16  C   UNL d   1     -46.090  11.310  23.690  0.00  0.00     0.001 A 
ATOM     17  C   UNL d   1     -45.589  10.653  23.697  0.00  0.00     0.000 A 
ATOM     18  C   UNL d   1     -44.854  10.701  23.317  0.00  0.00     0.000 A 
ATOM     19  C   UNL d   1     -44.619  11.388  22.937  0.00  0.00     0.000 A 
ATOM     20  C   UNL d   1     -45.115  12.039  22.929  0.00  0.00     0.001 A 
ENDBRANCH  14  15
ENDBRANCH  13  14
ENDBRANCH  12  13
ENDBRANCH   3  12
TORSDOF 4
ENDMDL
MODEL 4
REMARK VINA RESULT:      -5.5      1.192      5.007
REMARK  4 active torsions:
REMARK  status: ('A' for Active; 'I' for Inactive)
REMARK       I    between atoms: C_3  and  N_1 
REMARK    1  A    between atoms: C_9  and  C_3 
REMARK    2  A    between atoms: S_8  and  C_9 
REMARK    3  A    between atoms: C_12  and  S_8 
REMARK    4  A    between atoms: C_11  and  C_12 
ROOT
ATOM      1  N   UNL d   1     -49.159  13.953  23.242  0.00  0.00    -0.274 N 
ATOM      2  C   UNL d   1     -49.693  14.574  23.336  0.00  0.00     0.067 A 
ATOM      3  C   UNL d   1     -48.359  14.020  23.016  0.00  0.00     0.259 C 
ATOM      4  C   UNL d   1     -49.553  13.243  23.411  0.00  0.00     0.083 A 
ATOM      5  C   UNL d   1     -50.417  14.256  23.562  0.00  0.00     0.018 A 
ATOM      6  O   UNL d   1     -48.026  14.768  22.860  0.00  0.00    -0.267 OA
ATOM      7  C   UNL d   1     -50.326  13.439  23.608  0.00  0.00     0.021 A 
ATOM      8  C   UNL d   1     -49.613  15.388  23.244  0.00  0.00     0.018 A 
ATOM      9  C   UNL d   1     -51.060  14.741  23.698  0.00  0.00     0.002 A 
ATOM     10  C   UNL d   1     -50.246  15.882  23.376  0.00  0.00     0.002 A 
ATOM     11  C   UNL d   1     -50.980  15.568  23.605  0.00  0.00     0.000 A 
ENDROOT
BRANCH   3  12
ATOM     12  C   UNL d   1     -47.884  13.339  22.943  0.00  0.00     0.125 C 
BRANCH  12  13
ATOM     13  S   UNL d   1     -47.070  13.411  22.856  0.00  0.00    -0.094 SA
BRANCH  13  14
ATOM     14  C   UNL d   1     -46.578  12.770  23.042  0.00  0.00     0.035 C 
BRANCH  14  15
ATOM     15  C   UNL d   1     -45.822  12.718  22.700  0.00  0.00     0.006 A 
ATOM     16  C   UNL d   1     -45.573  13.300  22.171  0.00  0.00     0.001 A 
ATOM     17  C   UNL d   1     -44.821  13.249  21.831  0.00  0.00     0.000 A 
ATOM     18  C   UNL d   1     -44.330  12.611  22.028  0.00  0.00     0.000 A 
ATOM     19  C   UNL d   1     -44.579  12.034  22.553  0.00  0.00     0.000 A 
ATOM     20  C   UNL d   1     -45.323  12.083  22.891  0.00  0.00     0.001 A 
ENDBRANCH  14  15
ENDBRANCH  13  14
ENDBRANCH  12  13
ENDBRANCH   3  12
TORSDOF 4
ENDMDL
MODEL 5
REMARK VINA RESULT:      -5.3      8.852      9.833
REMARK  4 active torsions:
REMARK  status: ('A' for Active; 'I' for Inactive)
REMARK       I    between atoms: C_3  and  N_1 
REMARK    1  A    between atoms: C_9  and  C_3 
REMARK    2  A    between atoms: S_8  and  C_9 
REMARK    3  A    between atoms: C_12  and  S_8 
REMARK    4  A    between atoms: C_11  and  C_12 
ROOT
ATOM      1  N   UNL d   1     -39.701  14.562  18.677  0.00  0.00    -0.274 N 
ATOM      2  C   UNL d   1     -40.186  14.982  18.159  0.00  0.00     0.067 A 
ATOM      3  C   UNL d   1     -39.639  14.681  19.500  0.00  0.00     0.259 C 
ATOM      4  C   UNL d   1     -39.280  13.996  18.239  0.00  0.00     0.083 A 
ATOM      5  C   UNL d   1     -40.071  14.682  17.401  0.00  0.00     0.018 A 
ATOM      6  O   UNL d   1     -40.093  15.269  19.876  0.00  0.00    -0.267 OA
ATOM      7  C   UNL d   1     -39.514  14.077  17.455  0.00  0.00     0.021 A 
ATOM      8  C   UNL d   1     -40.717  15.599  18.279  0.00  0.00     0.018 A 
ATOM      9  C   UNL d   1     -40.479  14.991  16.765  0.00  0.00     0.002 A 
ATOM     10  C   UNL d   1     -41.131  15.915  17.654  0.00  0.00     0.002 A 
ATOM     11  C   UNL d   1     -41.020  15.617  16.887  0.00  0.00     0.000 A 
ENDROOT
BRANCH   3  12
ATOM     12  C   UNL d   1     -39.122  14.211  19.955  0.00  0.00     0.125 C 
BRANCH  12  13
ATOM     13  S   UNL d   1     -39.068  14.324  20.767  0.00  0.00    -0.094 SA
BRANCH  13  14
ATOM     14  C   UNL d   1     -38.496  13.911  21.202  0.00  0.00     0.035 C 
BRANCH  14  15
ATOM     15  C   UNL d   1     -38.491  13.966  22.032  0.00  0.00     0.006 A 
ATOM     16  C   UNL d   1     -38.184  14.641  22.394  0.00  0.00     0.001 A 
ATOM     17  C   UNL d   1     -38.178  14.696  23.219  0.00  0.00     0.000 A 
ATOM     18  C   UNL d   1     -38.482  14.070  23.668  0.00  0.00     0.000 A 
ATOM     19  C   UNL d   1     -38.787  13.401  23.307  0.00  0.00     0.000 A 
ATOM     20  C   UNL d   1     -38.793  13.345  22.491  0.00  0.00     0.001 A 
ENDBRANCH  14  15
ENDBRANCH  13  14
ENDBRANCH  12  13
ENDBRANCH   3  12
TORSDOF 4
ENDMDL
MODEL 6
REMARK VINA RESULT:      -4.9      8.826     10.055
REMARK  4 active torsions:
REMARK  status: ('A' for Active; 'I' for Inactive)
REMARK       I    between atoms: C_3  and  N_1 
REMARK    1  A    between atoms: C_9  and  C_3 
REMARK    2  A    between atoms: S_8  and  C_9 
REMARK    3  A    between atoms: C_12  and  S_8 
REMARK    4  A    between atoms: C_11  and  C_12 
ROOT
ATOM      1  N   UNL d   1     -39.270  14.362  17.830  0.00  0.00    -0.274 N 
ATOM      2  C   UNL d   1     -38.847  14.059  17.190  0.00  0.00     0.067 A 
ATOM      3  C   UNL d   1     -39.199  14.122  18.626  0.00  0.00     0.259 C 
ATOM      4  C   UNL d   1     -39.782  14.950  17.548  0.00  0.00     0.083 A 
ATOM      5  C   UNL d   1     -39.092  14.454  16.511  0.00  0.00     0.018 A 
ATOM      6  O   UNL d   1     -38.662  13.523  18.839  0.00  0.00    -0.267 OA
ATOM      7  C   UNL d   1     -39.666  15.000  16.736  0.00  0.00     0.021 A 
ATOM      8  C   UNL d   1     -38.270  13.474  17.138  0.00  0.00     0.018 A 
ATOM      9  C   UNL d   1     -38.768  14.272  15.784  0.00  0.00     0.002 A 
ATOM     10  C   UNL d   1     -37.940  13.283  16.420  0.00  0.00     0.002 A 
ATOM     11  C   UNL d   1     -38.182  13.678  15.730  0.00  0.00     0.000 A 
ENDROOT
BRANCH   3  12
ATOM     12  C   UNL d   1     -39.667  14.482  19.215  0.00  0.00     0.125 C 
BRANCH  12  13
ATOM     13  S   UNL d   1     -39.428  14.458  20.001  0.00  0.00    -0.094 SA
BRANCH  13  14
ATOM     14  C   UNL d   1     -39.935  14.741  20.593  0.00  0.00     0.035 C 
BRANCH  14  15
ATOM     15  C   UNL d   1     -39.627  14.934  21.342  0.00  0.00     0.006 A 
ATOM     16  C   UNL d   1     -39.423  14.331  21.866  0.00  0.00     0.001 A 
ATOM     17  C   UNL d   1     -39.118  14.523  22.610  0.00  0.00     0.000 A 
ATOM     18  C   UNL d   1     -39.022  15.319  22.815  0.00  0.00     0.000 A 
ATOM     19  C   UNL d   1     -39.225  15.917  22.293  0.00  0.00     0.000 A 
ATOM     20  C   UNL d   1     -39.528  15.729  21.556  0.00  0.00     0.001 A 
ENDBRANCH  14  15
ENDBRANCH  13  14
ENDBRANCH  12  13
ENDBRANCH   3  12
TORSDOF 4
ENDMDL
