MODEL 1
REMARK VINA RESULT:      -3.4      0.000      0.000
REMARK  1 active torsions:
REMARK  status: ('A' for Active; 'I' for Inactive)
REMARK    1  A    between atoms: C_7  and  N_1 
ROOT
ATOM      1  N   UNL d   1      30.118  16.755 -24.174  0.00  0.00    -0.259 N 
ATOM      2  C   UNL d   1      30.789  16.448 -23.778  0.00  0.00     0.267 A 
ATOM      3  C   UNL d   1      30.192  17.381 -24.708  0.00  0.00     0.150 A 
ATOM      4  N   UNL d   1      30.943  17.711 -24.856  0.00  0.00    -0.228 NA
ATOM      5  C   UNL d   1      31.532  16.781 -23.931  0.00  0.00     0.074 A 
ATOM      6  C   UNL d   1      31.607  17.415 -24.471  0.00  0.00     0.088 A 
ATOM      7  O   UNL d   1      30.707  15.824 -23.248  0.00  0.00    -0.267 OA
ATOM      8  C   UNL d   1      29.528  17.682 -25.096  0.00  0.00     0.041 C 
ATOM      9  C   UNL d   1      32.192  16.481 -23.543  0.00  0.00     0.006 A 
ATOM     10  C   UNL d   1      32.356  17.735 -24.610  0.00  0.00     0.019 A 
ATOM     11  C   UNL d   1      32.934  16.811 -23.692  0.00  0.00     0.000 A 
ATOM     12  C   UNL d   1      33.016  17.435 -24.224  0.00  0.00     0.002 A 
ENDROOT
BRANCH   1  13
ATOM     13  C   UNL d   1      29.376  16.431 -24.030  0.00  0.00     0.068 A 
ATOM     14  C   UNL d   1      29.114  15.778 -24.470  0.00  0.00     0.020 A 
ATOM     15  C   UNL d   1      28.368  15.458 -24.320  0.00  0.00     0.031 A 
ATOM     16  C   UNL d   1      27.882  15.780 -23.738  0.00  0.00     0.140 A 
ATOM     17  C   UNL d   1      28.149  16.429 -23.304  0.00  0.00     0.031 A 
ATOM     18  F   UNL d   1      27.141  15.456 -23.594  0.00  0.00    -0.204 F 
ATOM     19  C   UNL d   1      28.893  16.752 -23.450  0.00  0.00     0.020 A 
ENDBRANCH   1  13
TORSDOF 1
ENDMDL
MODEL 2
REMARK VINA RESULT:      -2.9      1.906      3.806
REMARK  1 active torsions:
REMARK  status: ('A' for Active; 'I' for Inactive)
REMARK    1  A    between atoms: C_7  and  N_1 
ROOT
ATOM      1  N   UNL d   1      30.718  16.902 -23.855  0.00  0.00    -0.259 N 
ATOM      2  C   UNL d   1      29.933  17.137 -24.031  0.00  0.00     0.267 A 
ATOM      3  C   UNL d   1      30.868  16.193 -23.457  0.00  0.00     0.150 A 
ATOM      4  N   UNL d   1      30.232  15.705 -23.228  0.00  0.00    -0.228 NA
ATOM      5  C   UNL d   1      29.307  16.646 -23.799  0.00  0.00     0.074 A 
ATOM      6  C   UNL d   1      29.459  15.929 -23.397  0.00  0.00     0.088 A 
ATOM      7  O   UNL d   1      29.791  17.844 -24.427  0.00  0.00    -0.267 OA
ATOM      8  C   UNL d   1      31.642  15.965 -23.285  0.00  0.00     0.041 C 
ATOM      9  C   UNL d   1      28.536  16.875 -23.971  0.00  0.00     0.006 A 
ATOM     10  C   UNL d   1      28.821  15.453 -23.174  0.00  0.00     0.019 A 
ATOM     11  C   UNL d   1      27.909  16.389 -23.742  0.00  0.00     0.000 A 
ATOM     12  C   UNL d   1      28.050  15.681 -23.345  0.00  0.00     0.002 A 
ENDROOT
BRANCH   1  13
ATOM     13  C   UNL d   1      31.346  17.381 -24.080  0.00  0.00     0.068 A 
ATOM     14  C   UNL d   1      31.575  17.421 -24.876  0.00  0.00     0.020 A 
ATOM     15  C   UNL d   1      32.208  17.905 -25.095  0.00  0.00     0.031 A 
ATOM     16  C   UNL d   1      32.613  18.347 -24.531  0.00  0.00     0.140 A 
ATOM     17  C   UNL d   1      32.380  18.303 -23.740  0.00  0.00     0.031 A 
ATOM     18  F   UNL d   1      33.241  18.827 -24.756  0.00  0.00    -0.204 F 
ATOM     19  C   UNL d   1      31.749  17.822 -23.518  0.00  0.00     0.020 A 
ENDBRANCH   1  13
TORSDOF 1
ENDMDL
MODEL 3
REMARK VINA RESULT:      -2.4      5.688      6.679
REMARK  1 active torsions:
REMARK  status: ('A' for Active; 'I' for Inactive)
REMARK    1  A    between atoms: C_7  and  N_1 
ROOT
ATOM      1  N   UNL d   1      32.792  21.868 -21.557  0.00  0.00    -0.259 N 
ATOM      2  C   UNL d   1      32.681  21.039 -21.529  0.00  0.00     0.267 A 
ATOM      3  C   UNL d   1      33.049  22.237 -22.251  0.00  0.00     0.150 A 
ATOM      4  N   UNL d   1      33.200  21.779 -22.931  0.00  0.00    -0.228 NA
ATOM      5  C   UNL d   1      32.833  20.591 -22.209  0.00  0.00     0.074 A 
ATOM      6  C   UNL d   1      33.093  20.963 -22.910  0.00  0.00     0.088 A 
ATOM      7  O   UNL d   1      32.425  20.679 -20.835  0.00  0.00    -0.267 OA
ATOM      8  C   UNL d   1      33.158  23.055 -22.275  0.00  0.00     0.041 C 
ATOM      9  C   UNL d   1      32.725  19.775 -22.183  0.00  0.00     0.006 A 
ATOM     10  C   UNL d   1      33.240  20.499 -23.579  0.00  0.00     0.019 A 
ATOM     11  C   UNL d   1      32.876  19.325 -22.859  0.00  0.00     0.000 A 
ATOM     12  C   UNL d   1      33.132  19.686 -23.554  0.00  0.00     0.002 A 
ENDROOT
BRANCH   1  13
ATOM     13  C   UNL d   1      32.644  22.322 -20.888  0.00  0.00     0.068 A 
ATOM     14  C   UNL d   1      33.191  22.335 -20.264  0.00  0.00     0.020 A 
ATOM     15  C   UNL d   1      33.035  22.794 -19.595  0.00  0.00     0.031 A 
ATOM     16  C   UNL d   1      32.344  23.237 -19.541  0.00  0.00     0.140 A 
ATOM     17  C   UNL d   1      31.803  23.219 -20.166  0.00  0.00     0.031 A 
ATOM     18  F   UNL d   1      32.195  23.690 -18.873  0.00  0.00    -0.204 F 
ATOM     19  C   UNL d   1      31.955  22.763 -20.835  0.00  0.00     0.020 A 
ENDBRANCH   1  13
TORSDOF 1
ENDMDL
MODEL 4
REMARK VINA RESULT:      -2.2      2.724      3.884
REMARK  1 active torsions:
REMARK  status: ('A' for Active; 'I' for Inactive)
REMARK    1  A    between atoms: C_7  and  N_1 
ROOT
ATOM      1  N   UNL d   1      32.781  18.687 -23.777  0.00  0.00    -0.259 N 
ATOM      2  C   UNL d   1      32.766  18.782 -22.945  0.00  0.00     0.267 A 
ATOM      3  C   UNL d   1      32.942  19.329 -24.273  0.00  0.00     0.150 A 
ATOM      4  N   UNL d   1      33.090  20.079 -23.942  0.00  0.00    -0.228 NA
ATOM      5  C   UNL d   1      32.915  19.531 -22.624  0.00  0.00     0.074 A 
ATOM      6  C   UNL d   1      33.077  20.180 -23.125  0.00  0.00     0.088 A 
ATOM      7  O   UNL d   1      32.605  18.138 -22.458  0.00  0.00    -0.267 OA
ATOM      8  C   UNL d   1      32.956  19.232 -25.092  0.00  0.00     0.041 C 
ATOM      9  C   UNL d   1      32.900  19.626 -21.807  0.00  0.00     0.006 A 
ATOM     10  C   UNL d   1      33.223  20.920 -22.787  0.00  0.00     0.019 A 
ATOM     11  C   UNL d   1      33.048  20.371 -21.484  0.00  0.00     0.000 A 
ATOM     12  C   UNL d   1      33.209  21.016 -21.971  0.00  0.00     0.002 A 
ENDROOT
BRANCH   1  13
ATOM     13  C   UNL d   1      32.635  17.948 -24.105  0.00  0.00     0.068 A 
ATOM     14  C   UNL d   1      31.879  17.762 -24.392  0.00  0.00     0.020 A 
ATOM     15  C   UNL d   1      31.739  17.017 -24.721  0.00  0.00     0.031 A 
ATOM     16  C   UNL d   1      32.343  16.459 -24.767  0.00  0.00     0.140 A 
ATOM     17  C   UNL d   1      33.093  16.650 -24.480  0.00  0.00     0.031 A 
ATOM     18  F   UNL d   1      32.196  15.720 -25.095  0.00  0.00    -0.204 F 
ATOM     19  C   UNL d   1      33.236  17.392 -24.151  0.00  0.00     0.020 A 
ENDBRANCH   1  13
TORSDOF 1
ENDMDL
MODEL 5
REMARK VINA RESULT:      -1.8      1.682      3.591
REMARK  1 active torsions:
REMARK  status: ('A' for Active; 'I' for Inactive)
REMARK    1  A    between atoms: C_7  and  N_1 
ROOT
ATOM      1  N   UNL d   1      30.038  16.747 -24.128  0.00  0.00    -0.259 N 
ATOM      2  C   UNL d   1      29.769  16.137 -23.620  0.00  0.00     0.267 A 
ATOM      3  C   UNL d   1      29.509  17.300 -24.441  0.00  0.00     0.150 A 
ATOM      4  N   UNL d   1      28.699  17.251 -24.250  0.00  0.00    -0.228 NA
ATOM      5  C   UNL d   1      28.963  16.096 -23.435  0.00  0.00     0.074 A 
ATOM      6  C   UNL d   1      28.428  16.655 -23.752  0.00  0.00     0.088 A 
ATOM      7  O   UNL d   1      30.302  15.590 -23.312  0.00  0.00    -0.267 OA
ATOM      8  C   UNL d   1      29.777  17.900 -24.941  0.00  0.00     0.041 C 
ATOM      9  C   UNL d   1      28.697  15.497 -22.937  0.00  0.00     0.006 A 
ATOM     10  C   UNL d   1      27.627  16.597 -23.556  0.00  0.00     0.019 A 
ATOM     11  C   UNL d   1      27.894  15.453 -22.750  0.00  0.00     0.000 A 
ATOM     12  C   UNL d   1      27.361  16.000 -23.058  0.00  0.00     0.002 A 
ENDROOT
BRANCH   1  13
ATOM     13  C   UNL d   1      30.836  16.797 -24.318  0.00  0.00     0.068 A 
ATOM     14  C   UNL d   1      31.327  17.332 -23.916  0.00  0.00     0.020 A 
ATOM     15  C   UNL d   1      32.128  17.377 -24.113  0.00  0.00     0.031 A 
ATOM     16  C   UNL d   1      32.443  16.896 -24.702  0.00  0.00     0.140 A 
ATOM     17  C   UNL d   1      31.949  16.366 -25.097  0.00  0.00     0.031 A 
ATOM     18  F   UNL d   1      33.241  16.946 -24.891  0.00  0.00    -0.204 F 
ATOM     19  C   UNL d   1      31.150  16.318 -24.904  0.00  0.00     0.020 A 
ENDBRANCH   1  13
TORSDOF 1
ENDMDL
MODEL 6
REMARK VINA RESULT:      -1.5      2.488      4.070
REMARK  1 active torsions:
REMARK  status: ('A' for Active; 'I' for Inactive)
REMARK    1  A    between atoms: C_7  and  N_1 
ROOT
ATOM      1  N   UNL d   1      32.099  17.821 -23.702  0.00  0.00    -0.259 N 
ATOM      2  C   UNL d   1      31.377  17.731 -24.117  0.00  0.00     0.267 A 
ATOM      3  C   UNL d   1      32.530  17.159 -23.456  0.00  0.00     0.150 A 
ATOM      4  N   UNL d   1      32.243  16.394 -23.622  0.00  0.00    -0.228 NA
ATOM      5  C   UNL d   1      31.099  16.968 -24.278  0.00  0.00     0.074 A 
ATOM      6  C   UNL d   1      31.534  16.299 -24.030  0.00  0.00     0.088 A 
ATOM      7  O   UNL d   1      30.954  18.395 -24.358  0.00  0.00    -0.267 OA
ATOM      8  C   UNL d   1      33.241  17.250 -23.047  0.00  0.00     0.041 C 
ATOM      9  C   UNL d   1      30.390  16.878 -24.686  0.00  0.00     0.006 A 
ATOM     10  C   UNL d   1      31.241  15.545 -24.200  0.00  0.00     0.019 A 
ATOM     11  C   UNL d   1      30.109  16.119 -24.849  0.00  0.00     0.000 A 
ATOM     12  C   UNL d   1      30.533  15.455 -24.607  0.00  0.00     0.002 A 
ENDROOT
BRANCH   1  13
ATOM     13  C   UNL d   1      32.384  18.574 -23.537  0.00  0.00     0.068 A 
ATOM     14  C   UNL d   1      32.849  18.974 -24.094  0.00  0.00     0.020 A 
ATOM     15  C   UNL d   1      33.132  19.731 -23.921  0.00  0.00     0.031 A 
ATOM     16  C   UNL d   1      32.956  20.090 -23.202  0.00  0.00     0.140 A 
ATOM     17  C   UNL d   1      32.492  19.686 -22.651  0.00  0.00     0.031 A 
ATOM     18  F   UNL d   1      33.241  20.843 -23.037  0.00  0.00    -0.204 F 
ATOM     19  C   UNL d   1      32.208  18.931 -22.820  0.00  0.00     0.020 A 
ENDBRANCH   1  13
TORSDOF 1
ENDMDL
MODEL 7
REMARK VINA RESULT:      -1.1      4.603      5.632
REMARK  1 active torsions:
REMARK  status: ('A' for Active; 'I' for Inactive)
REMARK    1  A    between atoms: C_7  and  N_1 
ROOT
ATOM      1  N   UNL d   1      32.867  20.641 -22.318  0.00  0.00    -0.259 N 
ATOM      2  C   UNL d   1      32.677  20.872 -21.535  0.00  0.00     0.267 A 
ATOM      3  C   UNL d   1      33.055  21.206 -22.892  0.00  0.00     0.150 A 
ATOM      4  N   UNL d   1      33.055  22.015 -22.691  0.00  0.00    -0.228 NA
ATOM      5  C   UNL d   1      32.680  21.678 -21.344  0.00  0.00     0.074 A 
ATOM      6  C   UNL d   1      32.870  22.249 -21.924  0.00  0.00     0.088 A 
ATOM      7  O   UNL d   1      32.492  20.304 -20.969  0.00  0.00    -0.267 OA
ATOM      8  C   UNL d   1      33.241  20.974 -23.662  0.00  0.00     0.041 C 
ATOM      9  C   UNL d   1      32.494  21.907 -20.576  0.00  0.00     0.006 A 
ATOM     10  C   UNL d   1      32.868  23.049 -21.714  0.00  0.00     0.019 A 
ATOM     11  C   UNL d   1      32.496  22.710 -20.381  0.00  0.00     0.000 A 
ATOM     12  C   UNL d   1      32.682  23.278 -20.948  0.00  0.00     0.002 A 
ENDROOT
BRANCH   1  13
ATOM     13  C   UNL d   1      32.867  19.844 -22.518  0.00  0.00     0.068 A 
ATOM     14  C   UNL d   1      32.491  19.589 -23.212  0.00  0.00     0.020 A 
ATOM     15  C   UNL d   1      32.495  18.786 -23.407  0.00  0.00     0.031 A 
ATOM     16  C   UNL d   1      32.868  18.238 -22.920  0.00  0.00     0.140 A 
ATOM     17  C   UNL d   1      33.240  18.498 -22.230  0.00  0.00     0.031 A 
ATOM     18  F   UNL d   1      32.868  17.441 -23.120  0.00  0.00    -0.204 F 
ATOM     19  C   UNL d   1      33.239  19.298 -22.032  0.00  0.00     0.020 A 
ENDBRANCH   1  13
TORSDOF 1
ENDMDL
MODEL 8
REMARK VINA RESULT:      -0.7      3.914      5.137
REMARK  1 active torsions:
REMARK  status: ('A' for Active; 'I' for Inactive)
REMARK    1  A    between atoms: C_7  and  N_1 
ROOT
ATOM      1  N   UNL d   1      32.879  20.067 -22.686  0.00  0.00    -0.259 N 
ATOM      2  C   UNL d   1      32.728  19.244 -22.656  0.00  0.00     0.267 A 
ATOM      3  C   UNL d   1      33.089  20.433 -23.398  0.00  0.00     0.150 A 
ATOM      4  N   UNL d   1      33.150  19.978 -24.093  0.00  0.00    -0.228 NA
ATOM      5  C   UNL d   1      32.791  18.799 -23.353  0.00  0.00     0.074 A 
ATOM      6  C   UNL d   1      33.003  19.169 -24.072  0.00  0.00     0.088 A 
ATOM      7  O   UNL d   1      32.520  18.887 -21.945  0.00  0.00    -0.267 OA
ATOM      8  C   UNL d   1      33.237  21.244 -23.424  0.00  0.00     0.041 C 
ATOM      9  C   UNL d   1      32.643  17.990 -23.325  0.00  0.00     0.006 A 
ATOM     10  C   UNL d   1      33.061  18.709 -24.756  0.00  0.00     0.019 A 
ATOM     11  C   UNL d   1      32.705  17.544 -24.017  0.00  0.00     0.000 A 
ATOM     12  C   UNL d   1      32.913  17.901 -24.730  0.00  0.00     0.002 A 
ENDROOT
BRANCH   1  13
ATOM     13  C   UNL d   1      32.819  20.517 -22.001  0.00  0.00     0.068 A 
ATOM     14  C   UNL d   1      32.332  21.188 -21.986  0.00  0.00     0.020 A 
ATOM     15  C   UNL d   1      32.277  21.636 -21.294  0.00  0.00     0.031 A 
ATOM     16  C   UNL d   1      32.700  21.423 -20.621  0.00  0.00     0.140 A 
ATOM     17  C   UNL d   1      33.183  20.753 -20.643  0.00  0.00     0.031 A 
ATOM     18  F   UNL d   1      32.640  21.873 -19.936  0.00  0.00    -0.204 F 
ATOM     19  C   UNL d   1      33.241  20.304 -21.331  0.00  0.00     0.020 A 
ENDBRANCH   1  13
TORSDOF 1
ENDMDL
MODEL 9
REMARK VINA RESULT:      -0.6      6.897      7.666
REMARK  1 active torsions:
REMARK  status: ('A' for Active; 'I' for Inactive)
REMARK    1  A    between atoms: C_7  and  N_1 
ROOT
ATOM      1  N   UNL d   1      32.671  22.143 -20.026  0.00  0.00    -0.259 N 
ATOM      2  C   UNL d   1      32.946  21.888 -19.277  0.00  0.00     0.267 A 
ATOM      3  C   UNL d   1      32.373  22.908 -20.129  0.00  0.00     0.150 A 
ATOM      4  N   UNL d   1      32.347  23.432 -19.481  0.00  0.00    -0.228 NA
ATOM      5  C   UNL d   1      32.916  22.415 -18.638  0.00  0.00     0.074 A 
ATOM      6  C   UNL d   1      32.615  23.188 -18.742  0.00  0.00     0.088 A 
ATOM      7  O   UNL d   1      33.241  21.126 -19.183  0.00  0.00    -0.267 OA
ATOM      8  C   UNL d   1      32.103  23.157 -20.868  0.00  0.00     0.041 C 
ATOM      9  C   UNL d   1      33.186  22.166 -17.902  0.00  0.00     0.006 A 
ATOM     10  C   UNL d   1      32.593  23.699 -18.093  0.00  0.00     0.019 A 
ATOM     11  C   UNL d   1      33.158  22.687 -17.263  0.00  0.00     0.000 A 
ATOM     12  C   UNL d   1      32.863  23.451 -17.358  0.00  0.00     0.002 A 
ENDROOT
BRANCH   1  13
ATOM     13  C   UNL d   1      32.696  21.629 -20.666  0.00  0.00     0.068 A 
ATOM     14  C   UNL d   1      33.081  21.854 -21.366  0.00  0.00     0.020 A 
ATOM     15  C   UNL d   1      33.102  21.332 -22.006  0.00  0.00     0.031 A 
ATOM     16  C   UNL d   1      32.746  20.591 -21.955  0.00  0.00     0.140 A 
ATOM     17  C   UNL d   1      32.365  20.374 -21.256  0.00  0.00     0.031 A 
ATOM     18  F   UNL d   1      32.771  20.077 -22.595  0.00  0.00    -0.204 F 
ATOM     19  C   UNL d   1      32.341  20.892 -20.616  0.00  0.00     0.020 A 
ENDBRANCH   1  13
TORSDOF 1
ENDMDL
