MODEL 1
REMARK VINA RESULT:      13.4      0.000      0.000
REMARK  3 active torsions:
REMARK  status: ('A' for Active; 'I' for Inactive)
REMARK    1  A    between atoms: C_7  and  C_1 
REMARK    2  A    between atoms: C_6  and  C_3 
REMARK    3  A    between atoms: O_15  and  C_7 
ROOT
ATOM      1  C   UNL d   1      45.765 -16.672  44.443  0.00  0.00     0.167 A 
ATOM      2  C   UNL d   1      46.070 -15.918  44.289  0.00  0.00     0.047 A 
ATOM      3  C   UNL d   1      45.547 -15.364  44.604  0.00  0.00     0.105 A 
ATOM      4  N   UNL d   1      44.917 -15.774  44.955  0.00  0.00    -0.148 NA
ATOM      5  N   UNL d   1      45.059 -16.579  44.851  0.00  0.00    -0.143 NA
ENDROOT
BRANCH   3   6
ATOM      6  C   UNL d   1      45.635 -14.540  44.576  0.00  0.00     0.030 A 
ATOM      7  C   UNL d   1      45.083 -14.081  44.168  0.00  0.00     0.060 A 
ATOM      8  C   UNL d   1      45.166 -13.264  44.137  0.00  0.00     0.023 A 
ATOM      9 CL   UNL d   1      44.447 -14.449  43.790  0.00  0.00    -0.082 Cl
ATOM     10  C   UNL d   1      45.810 -12.898  44.519  0.00  0.00     0.059 A 
ATOM     11  C   UNL d   1      46.359 -13.366  44.927  0.00  0.00     0.011 A 
ATOM     12 CL   UNL d   1      45.893 -12.081  44.489  0.00  0.00    -0.082 Cl
ATOM     13  C   UNL d   1      46.271 -14.184  44.955  0.00  0.00     0.003 A 
ENDBRANCH   3   6
BRANCH   1  14
ATOM     14  C   UNL d   1      46.112 -17.387  44.225  0.00  0.00     0.316 C 
ATOM     15  O   UNL d   1      46.410 -17.890  44.807  0.00  0.00    -0.257 OA
BRANCH  14  16
ATOM     16  O   UNL d   1      46.162 -17.599  43.428  0.00  0.00    -0.294 OA
ATOM     17  C   UNL d   1      46.405 -18.354  43.212  0.00  0.00     0.185 C 
ENDBRANCH  14  16
ENDBRANCH   1  14
TORSDOF 3
ENDMDL
MODEL 2
REMARK VINA RESULT:      14.0      2.426      4.440
REMARK  3 active torsions:
REMARK  status: ('A' for Active; 'I' for Inactive)
REMARK    1  A    between atoms: C_7  and  C_1 
REMARK    2  A    between atoms: C_6  and  C_3 
REMARK    3  A    between atoms: O_15  and  C_7 
ROOT
ATOM      1  C   UNL d   1      45.801 -16.262  44.432  0.00  0.00     0.167 A 
ATOM      2  C   UNL d   1      45.716 -16.822  43.828  0.00  0.00     0.047 A 
ATOM      3  C   UNL d   1      46.238 -17.442  43.983  0.00  0.00     0.105 A 
ATOM      4  N   UNL d   1      46.647 -17.266  44.683  0.00  0.00    -0.148 NA
ATOM      5  N   UNL d   1      46.371 -16.538  44.953  0.00  0.00    -0.143 NA
ENDROOT
BRANCH   3   6
ATOM      6  C   UNL d   1      46.338 -18.122  43.520  0.00  0.00     0.030 A 
ATOM      7  C   UNL d   1      46.409 -18.860  43.884  0.00  0.00     0.060 A 
ATOM      8  C   UNL d   1      46.507 -19.537  43.429  0.00  0.00     0.023 A 
ATOM      9 CL   UNL d   1      46.380 -18.913  44.708  0.00  0.00    -0.082 Cl
ATOM     10  C   UNL d   1      46.536 -19.478  42.597  0.00  0.00     0.059 A 
ATOM     11  C   UNL d   1      46.464 -18.734  42.241  0.00  0.00     0.011 A 
ATOM     12 CL   UNL d   1      46.634 -20.156  42.142  0.00  0.00    -0.082 Cl
ATOM     13  C   UNL d   1      46.365 -18.058  42.702  0.00  0.00     0.003 A 
ENDBRANCH   3   6
BRANCH   1  14
ATOM     14  C   UNL d   1      45.384 -15.554  44.495  0.00  0.00     0.316 C 
ATOM     15  O   UNL d   1      44.613 -15.560  44.789  0.00  0.00    -0.257 OA
BRANCH  14  16
ATOM     16  O   UNL d   1      45.734 -14.842  44.265  0.00  0.00    -0.294 OA
ATOM     17  C   UNL d   1      45.321 -14.134  44.326  0.00  0.00     0.185 C 
ENDBRANCH  14  16
ENDBRANCH   1  14
TORSDOF 3
ENDMDL
MODEL 3
REMARK VINA RESULT:      15.8      7.840      8.534
REMARK  3 active torsions:
REMARK  status: ('A' for Active; 'I' for Inactive)
REMARK    1  A    between atoms: C_7  and  C_1 
REMARK    2  A    between atoms: C_6  and  C_3 
REMARK    3  A    between atoms: O_15  and  C_7 
ROOT
ATOM      1  C   UNL d   1      45.402 -15.124  36.707  0.00  0.00     0.167 A 
ATOM      2  C   UNL d   1      44.590 -14.962  36.727  0.00  0.00     0.047 A 
ATOM      3  C   UNL d   1      44.189 -15.656  36.530  0.00  0.00     0.105 A 
ATOM      4  N   UNL d   1      44.752 -16.247  36.387  0.00  0.00    -0.148 NA
ATOM      5  N   UNL d   1      45.497 -15.911  36.498  0.00  0.00    -0.143 NA
ENDROOT
BRANCH   3   6
ATOM      6  C   UNL d   1      43.366 -15.746  36.482  0.00  0.00     0.030 A 
ATOM      7  C   UNL d   1      43.040 -16.499  36.391  0.00  0.00     0.060 A 
ATOM      8  C   UNL d   1      42.225 -16.594  36.344  0.00  0.00     0.023 A 
ATOM      9 CL   UNL d   1      43.538 -17.157  36.348  0.00  0.00    -0.082 Cl
ATOM     10  C   UNL d   1      41.727 -15.926  36.388  0.00  0.00     0.059 A 
ATOM     11  C   UNL d   1      42.063 -15.174  36.480  0.00  0.00     0.011 A 
ATOM     12 CL   UNL d   1      40.912 -16.021  36.341  0.00  0.00    -0.082 Cl
ATOM     13  C   UNL d   1      42.880 -15.086  36.526  0.00  0.00     0.003 A 
ENDBRANCH   3   6
BRANCH   1  14
ATOM     14  C   UNL d   1      46.005 -14.585  36.868  0.00  0.00     0.316 C 
ATOM     15  O   UNL d   1      46.647 -14.527  36.353  0.00  0.00    -0.257 OA
BRANCH  14  16
ATOM     16  O   UNL d   1      45.967 -14.107  37.540  0.00  0.00    -0.294 OA
ATOM     17  C   UNL d   1      46.638 -13.719  37.814  0.00  0.00     0.185 C 
ENDBRANCH  14  16
ENDBRANCH   1  14
TORSDOF 3
ENDMDL
