MODEL 1
REMARK VINA RESULT:      -6.2      0.000      0.000
REMARK  5 active torsions:
REMARK  status: ('A' for Active; 'I' for Inactive)
REMARK    1  A    between atoms: S_13  and  C_7 
REMARK    2  A    between atoms: C_22  and  C_10 
REMARK    3  A    between atoms: C_11  and  C_16 
REMARK       I    between atoms: N_12  and  C_11 
REMARK    4  A    between atoms: C_16  and  S_13 
REMARK    5  A    between atoms: C_23  and  C_22 
ROOT
ATOM      1  N   UNL d   1     -48.549  15.206  22.419  0.00  0.00    -0.224 N 
ATOM      2  N   UNL d   1     -49.749  14.511  22.789  0.00  0.00    -0.241 N 
ATOM      3  C   UNL d   1     -49.377  15.192  22.515  0.00  0.00     0.343 A 
ATOM      4  C   UNL d   1     -49.294  13.843  22.967  0.00  0.00     0.160 A 
ATOM      5  C   UNL d   1     -48.102  14.537  22.598  0.00  0.00     0.273 A 
ATOM      6  C   UNL d   1     -48.474  13.857  22.872  0.00  0.00     0.115 A 
ATOM      7  C   UNL d   1     -48.028  13.188  23.051  0.00  0.00     0.120 A 
ATOM      8  N   UNL d   1     -49.666  13.154  23.244  0.00  0.00    -0.209 NA
ATOM      9  N   UNL d   1     -48.396  12.508  23.324  0.00  0.00    -0.220 NA
ATOM     10  C   UNL d   1     -49.219  12.487  23.423  0.00  0.00     0.165 A 
ATOM     11  O   UNL d   1     -49.824  15.863  22.335  0.00  0.00    -0.245 OA
ATOM     12  O   UNL d   1     -47.283  14.555  22.502  0.00  0.00    -0.266 OA
ATOM     13  C   UNL d   1     -48.185  15.886  22.146  0.00  0.00     0.107 C 
ATOM     14  C   UNL d   1     -50.568  14.497  22.885  0.00  0.00     0.105 C 
ENDROOT
BRANCH   7  15
ATOM     15  S   UNL d   1     -47.209  13.205  22.955  0.00  0.00    -0.062 SA
BRANCH  15  16
ATOM     16  C   UNL d   1     -46.750  12.564  23.199  0.00  0.00     0.098 C 
BRANCH  16  17
ATOM     17  C   UNL d   1     -45.953  12.525  23.000  0.00  0.00     0.271 C 
ATOM     18  N   UNL d   1     -45.523  11.833  23.153  0.00  0.00    -0.272 N 
ATOM     19  C   UNL d   1     -44.694  11.886  22.910  0.00  0.00     0.083 A 
ATOM     20  C   UNL d   1     -45.924  11.298  23.468  0.00  0.00     0.083 A 
ATOM     21  C   UNL d   1     -44.130  11.433  22.935  0.00  0.00     0.019 A 
ATOM     22  C   UNL d   1     -44.123  10.649  23.237  0.00  0.00     0.002 A 
ATOM     23  C   UNL d   1     -44.815  10.225  23.587  0.00  0.00     0.002 A 
ATOM     24  C   UNL d   1     -45.649  10.524  23.695  0.00  0.00     0.019 A 
ATOM     25  O   UNL d   1     -45.580  13.172  22.649  0.00  0.00    -0.266 OA
ENDBRANCH  16  17
ENDBRANCH  15  16
ENDBRANCH   7  15
BRANCH  10  26
ATOM     26  C   UNL d   1     -49.588  11.801  23.698  0.00  0.00     0.039 C 
BRANCH  26  27
ATOM     27  C   UNL d   1     -50.196  11.456  23.254  0.00  0.00     0.003 C 
ATOM     28  C   UNL d   1     -50.799  11.047  23.624  0.00  0.00     0.000 C 
ENDBRANCH  26  27
ENDBRANCH  10  26
TORSDOF 5
ENDMDL
MODEL 2
REMARK VINA RESULT:      -5.7      1.454      2.715
REMARK  5 active torsions:
REMARK  status: ('A' for Active; 'I' for Inactive)
REMARK    1  A    between atoms: S_13  and  C_7 
REMARK    2  A    between atoms: C_22  and  C_10 
REMARK    3  A    between atoms: C_11  and  C_16 
REMARK       I    between atoms: N_12  and  C_11 
REMARK    4  A    between atoms: C_16  and  S_13 
REMARK    5  A    between atoms: C_23  and  C_22 
ROOT
ATOM      1  N   UNL d   1     -49.849  11.952  23.343  0.00  0.00    -0.224 N 
ATOM      2  N   UNL d   1     -49.794  13.246  22.724  0.00  0.00    -0.241 N 
ATOM      3  C   UNL d   1     -50.235  12.626  23.038  0.00  0.00     0.343 A 
ATOM      4  C   UNL d   1     -48.969  13.194  22.713  0.00  0.00     0.160 A 
ATOM      5  C   UNL d   1     -49.027  11.907  23.329  0.00  0.00     0.273 A 
ATOM      6  C   UNL d   1     -48.587  12.527  23.015  0.00  0.00     0.115 A 
ATOM      7  C   UNL d   1     -47.765  12.482  23.001  0.00  0.00     0.120 A 
ATOM      8  N   UNL d   1     -48.521  13.818  22.397  0.00  0.00    -0.209 NA
ATOM      9  N   UNL d   1     -47.323  13.099  22.688  0.00  0.00    -0.220 NA
ATOM     10  C   UNL d   1     -47.700  13.772  22.383  0.00  0.00     0.165 A 
ATOM     11  O   UNL d   1     -51.060  12.670  23.053  0.00  0.00    -0.245 OA
ATOM     12  O   UNL d   1     -48.649  11.239  23.631  0.00  0.00    -0.266 OA
ATOM     13  C   UNL d   1     -50.292  11.339  23.654  0.00  0.00     0.107 C 
ATOM     14  C   UNL d   1     -50.176  13.913  22.422  0.00  0.00     0.105 C 
ENDROOT
BRANCH   7  15
ATOM     15  S   UNL d   1     -47.386  11.814  23.303  0.00  0.00    -0.062 SA
BRANCH  15  16
ATOM     16  C   UNL d   1     -46.583  11.694  23.160  0.00  0.00     0.098 C 
BRANCH  16  17
ATOM     17  C   UNL d   1     -46.218  10.998  23.404  0.00  0.00     0.271 C 
ATOM     18  N   UNL d   1     -45.393  10.925  23.353  0.00  0.00    -0.272 N 
ATOM     19  C   UNL d   1     -45.101  10.159  23.631  0.00  0.00     0.083 A 
ATOM     20  C   UNL d   1     -45.058  11.524  23.080  0.00  0.00     0.083 A 
ATOM     21  C   UNL d   1     -44.446   9.858  23.688  0.00  0.00     0.019 A 
ATOM     22  C   UNL d   1     -43.710  10.205  23.478  0.00  0.00     0.002 A 
ATOM     23  C   UNL d   1     -43.599  11.015  23.143  0.00  0.00     0.002 A 
ATOM     24  C   UNL d   1     -44.222  11.627  22.958  0.00  0.00     0.019 A 
ATOM     25  O   UNL d   1     -46.670  10.373  23.698  0.00  0.00    -0.266 OA
ENDBRANCH  16  17
ENDBRANCH  15  16
ENDBRANCH   7  15
BRANCH  10  26
ATOM     26  C   UNL d   1     -47.254  14.391  22.069  0.00  0.00     0.039 C 
BRANCH  26  27
ATOM     27  C   UNL d   1     -46.955  14.978  22.571  0.00  0.00     0.003 C 
ATOM     28  C   UNL d   1     -46.177  15.220  22.510  0.00  0.00     0.000 C 
ENDBRANCH  26  27
ENDBRANCH  10  26
TORSDOF 5
ENDMDL
MODEL 3
REMARK VINA RESULT:      -5.5      1.462      2.809
REMARK  5 active torsions:
REMARK  status: ('A' for Active; 'I' for Inactive)
REMARK    1  A    between atoms: S_13  and  C_7 
REMARK    2  A    between atoms: C_22  and  C_10 
REMARK    3  A    between atoms: C_11  and  C_16 
REMARK       I    between atoms: N_12  and  C_11 
REMARK    4  A    between atoms: C_16  and  S_13 
REMARK    5  A    between atoms: C_23  and  C_22 
ROOT
ATOM      1  N   UNL d   1     -49.621  11.437  23.568  0.00  0.00    -0.224 N 
ATOM      2  N   UNL d   1     -50.213  12.733  23.399  0.00  0.00    -0.241 N 
ATOM      3  C   UNL d   1     -50.296  11.925  23.529  0.00  0.00     0.343 A 
ATOM      4  C   UNL d   1     -49.456  13.054  23.308  0.00  0.00     0.160 A 
ATOM      5  C   UNL d   1     -48.871  11.764  23.476  0.00  0.00     0.273 A 
ATOM      6  C   UNL d   1     -48.788  12.572  23.346  0.00  0.00     0.115 A 
ATOM      7  C   UNL d   1     -48.038  12.898  23.254  0.00  0.00     0.120 A 
ATOM      8  N   UNL d   1     -49.369  13.870  23.176  0.00  0.00    -0.209 NA
ATOM      9  N   UNL d   1     -47.952  13.704  23.124  0.00  0.00    -0.220 NA
ATOM     10  C   UNL d   1     -48.619  14.195  23.084  0.00  0.00     0.165 A 
ATOM     11  O   UNL d   1     -51.048  11.595  23.622  0.00  0.00    -0.245 OA
ATOM     12  O   UNL d   1     -48.206  11.277  23.516  0.00  0.00    -0.266 OA
ATOM     13  C   UNL d   1     -49.710  10.633  23.698  0.00  0.00     0.107 C 
ATOM     14  C   UNL d   1     -50.881  13.216  23.360  0.00  0.00     0.105 C 
ENDROOT
BRANCH   7  15
ATOM     15  S   UNL d   1     -47.372  12.413  23.294  0.00  0.00    -0.062 SA
BRANCH  15  16
ATOM     16  C   UNL d   1     -46.643  12.688  23.022  0.00  0.00     0.098 C 
BRANCH  16  17
ATOM     17  C   UNL d   1     -45.964  12.236  23.129  0.00  0.00     0.271 C 
ATOM     18  N   UNL d   1     -45.294  12.383  22.664  0.00  0.00    -0.272 N 
ATOM     19  C   UNL d   1     -44.630  11.859  22.848  0.00  0.00     0.083 A 
ATOM     20  C   UNL d   1     -45.384  12.932  22.178  0.00  0.00     0.083 A 
ATOM     21  C   UNL d   1     -43.957  11.787  22.593  0.00  0.00     0.019 A 
ATOM     22  C   UNL d   1     -43.596  12.239  21.983  0.00  0.00     0.002 A 
ATOM     23  C   UNL d   1     -43.978  12.897  21.533  0.00  0.00     0.002 A 
ATOM     24  C   UNL d   1     -44.805  13.219  21.623  0.00  0.00     0.019 A 
ATOM     25  O   UNL d   1     -45.948  11.638  23.698  0.00  0.00    -0.266 OA
ENDBRANCH  16  17
ENDBRANCH  15  16
ENDBRANCH   7  15
BRANCH  10  26
ATOM     26  C   UNL d   1     -48.531  15.006  22.954  0.00  0.00     0.039 C 
BRANCH  26  27
ATOM     27  C   UNL d   1     -48.688  15.320  22.204  0.00  0.00     0.003 C 
ATOM     28  C   UNL d   1     -48.181  15.866  21.868  0.00  0.00     0.000 C 
ENDBRANCH  26  27
ENDBRANCH  10  26
TORSDOF 5
ENDMDL
MODEL 4
REMARK VINA RESULT:      -4.6      8.117      9.627
REMARK  5 active torsions:
REMARK  status: ('A' for Active; 'I' for Inactive)
REMARK    1  A    between atoms: S_13  and  C_7 
REMARK    2  A    between atoms: C_22  and  C_10 
REMARK    3  A    between atoms: C_11  and  C_16 
REMARK       I    between atoms: N_12  and  C_11 
REMARK    4  A    between atoms: C_16  and  S_13 
REMARK    5  A    between atoms: C_23  and  C_22 
ROOT
ATOM      1  N   UNL d   1     -38.698  14.670  17.367  0.00  0.00    -0.224 N 
ATOM      2  N   UNL d   1     -39.891  15.466  17.416  0.00  0.00    -0.241 N 
ATOM      3  C   UNL d   1     -39.277  15.131  16.982  0.00  0.00     0.343 A 
ATOM      4  C   UNL d   1     -39.926  15.342  18.233  0.00  0.00     0.160 A 
ATOM      5  C   UNL d   1     -38.740  14.551  18.180  0.00  0.00     0.273 A 
ATOM      6  C   UNL d   1     -39.353  14.887  18.613  0.00  0.00     0.115 A 
ATOM      7  C   UNL d   1     -39.395  14.768  19.427  0.00  0.00     0.120 A 
ATOM      8  N   UNL d   1     -40.545  15.680  18.673  0.00  0.00    -0.209 NA
ATOM      9  N   UNL d   1     -40.006  15.101  19.862  0.00  0.00    -0.220 NA
ATOM     10  C   UNL d   1     -40.585  15.560  19.487  0.00  0.00     0.165 A 
ATOM     11  O   UNL d   1     -39.234  15.249  16.166  0.00  0.00    -0.245 OA
ATOM     12  O   UNL d   1     -38.164  14.095  18.556  0.00  0.00    -0.266 OA
ATOM     13  C   UNL d   1     -38.090  14.339  16.930  0.00  0.00     0.107 C 
ATOM     14  C   UNL d   1     -40.464  15.922  17.036  0.00  0.00     0.105 C 
ENDROOT
BRANCH   7  15
ATOM     15  S   UNL d   1     -38.820  14.312  19.804  0.00  0.00    -0.062 SA
BRANCH  15  16
ATOM     16  C   UNL d   1     -38.647  14.439  20.601  0.00  0.00     0.098 C 
BRANCH  16  17
ATOM     17  C   UNL d   1     -38.459  13.806  21.091  0.00  0.00     0.271 C 
ATOM     18  N   UNL d   1     -38.325  13.936  21.899  0.00  0.00    -0.272 N 
ATOM     19  C   UNL d   1     -38.134  13.212  22.333  0.00  0.00     0.083 A 
ATOM     20  C   UNL d   1     -38.392  14.643  22.102  0.00  0.00     0.083 A 
ATOM     21  C   UNL d   1     -37.980  13.062  23.023  0.00  0.00     0.019 A 
ATOM     22  C   UNL d   1     -37.940  13.606  23.663  0.00  0.00     0.002 A 
ATOM     23  C   UNL d   1     -38.081  14.477  23.608  0.00  0.00     0.002 A 
ATOM     24  C   UNL d   1     -38.290  14.958  22.886  0.00  0.00     0.019 A 
ATOM     25  O   UNL d   1     -38.404  13.043  20.781  0.00  0.00    -0.266 OA
ENDBRANCH  16  17
ENDBRANCH  15  16
ENDBRANCH   7  15
BRANCH  10  26
ATOM     26  C   UNL d   1     -41.199  15.895  19.926  0.00  0.00     0.039 C 
BRANCH  26  27
ATOM     27  C   UNL d   1     -41.557  15.458  20.531  0.00  0.00     0.003 C 
ATOM     28  C   UNL d   1     -41.755  15.814  21.239  0.00  0.00     0.000 C 
ENDBRANCH  26  27
ENDBRANCH  10  26
TORSDOF 5
ENDMDL
