MODEL 1
REMARK VINA RESULT:      -6.5      0.000      0.000
REMARK  7 active torsions:
REMARK  status: ('A' for Active; 'I' for Inactive)
REMARK    1  A    between atoms: C_7  and  C_1 
REMARK    2  A    between atoms: C_11  and  N_2 
REMARK    3  A    between atoms: C_10  and  C_5 
REMARK    4  A    between atoms: C_6  and  C_7 
REMARK    5  A    between atoms: C_18  and  C_11 
REMARK    6  A    between atoms: O_20  and  C_15 
REMARK    7  A    between atoms: N_19  and  C_18 
ROOT
ATOM      1  C   UNL d   1      52.804  32.663  52.992  0.00  0.00     0.101 A 
ATOM      2  N   UNL d   1      53.194  31.473  53.455  0.00  0.00    -0.269 N 
ATOM      3  C   UNL d   1      52.453  32.077  52.524  0.00  0.00     0.256 A 
ATOM      4  C   UNL d   1      52.693  31.345  52.809  0.00  0.00     0.304 A 
ATOM      5  C   UNL d   1      53.259  32.283  53.564  0.00  0.00     0.075 A 
ATOM      6  O   UNL d   1      52.470  30.607  52.500  0.00  0.00    -0.263 OA
ATOM      7  O   UNL d   1      51.946  32.205  51.878  0.00  0.00    -0.281 OA
ENDROOT
BRANCH   1   8
ATOM      8  C   UNL d   1      52.709  33.477  52.898  0.00  0.00     0.223 C 
ATOM      9  O   UNL d   1      53.374  33.961  52.803  0.00  0.00    -0.284 OA
BRANCH   8  10
ATOM     10  C   UNL d   1      51.958  33.816  52.896  0.00  0.00     0.139 A 
ATOM     11  O   UNL d   1      51.503  33.997  53.563  0.00  0.00    -0.304 OA
ATOM     12  C   UNL d   1      50.795  34.325  53.300  0.00  0.00     0.100 A 
ATOM     13  C   UNL d   1      50.138  34.607  53.713  0.00  0.00     0.025 A 
ATOM     14  C   UNL d   1      50.808  34.348  52.483  0.00  0.00     0.025 A 
ATOM     15  C   UNL d   1      49.498  34.910  53.300  0.00  0.00     0.002 A 
ATOM     16  C   UNL d   1      49.516  34.930  52.477  0.00  0.00     0.000 A 
ATOM     17  C   UNL d   1      50.165  34.652  52.068  0.00  0.00     0.002 A 
ATOM     18  C   UNL d   1      51.530  34.031  52.234  0.00  0.00     0.030 A 
ENDBRANCH   8  10
ENDBRANCH   1   8
BRANCH   5  19
ATOM     19  C   UNL d   1      53.709  32.670  54.153  0.00  0.00     0.039 A 
ATOM     20  C   UNL d   1      54.507  32.844  54.012  0.00  0.00     0.096 A 
ATOM     21  C   UNL d   1      54.953  33.225  54.590  0.00  0.00     0.024 A 
ATOM     22  C   UNL d   1      54.602  33.438  55.322  0.00  0.00     0.002 A 
ATOM     23  C   UNL d   1      53.800  33.260  55.457  0.00  0.00     0.000 A 
ATOM     24  C   UNL d   1      53.359  32.877  54.871  0.00  0.00     0.003 A 
BRANCH  20  25
ATOM     25  O   UNL d   1      54.849  32.634  53.292  0.00  0.00    -0.328 OA
ATOM     26  C   UNL d   1      55.639  32.832  53.140  0.00  0.00     0.181 C 
ENDBRANCH  20  25
ENDBRANCH   5  19
BRANCH   2  27
ATOM     27  C   UNL d   1      53.562  30.882  53.907  0.00  0.00     0.102 C 
BRANCH  27  28
ATOM     28  C   UNL d   1      53.267  30.113  53.903  0.00  0.00     0.100 C 
BRANCH  28  29
ATOM     29  N   UNL d   1      53.609  29.535  54.394  0.00  0.00    -0.299 N 
ATOM     30  C   UNL d   1      53.236  29.330  55.101  0.00  0.00     0.100 C 
ATOM     31  C   UNL d   1      54.312  29.175  54.170  0.00  0.00     0.100 C 
ENDBRANCH  28  29
ENDBRANCH  27  28
ENDBRANCH   2  27
TORSDOF 7
ENDMDL
MODEL 2
REMARK VINA RESULT:      -6.5      1.482      4.406
REMARK  7 active torsions:
REMARK  status: ('A' for Active; 'I' for Inactive)
REMARK    1  A    between atoms: C_7  and  C_1 
REMARK    2  A    between atoms: C_11  and  N_2 
REMARK    3  A    between atoms: C_10  and  C_5 
REMARK    4  A    between atoms: C_6  and  C_7 
REMARK    5  A    between atoms: C_18  and  C_11 
REMARK    6  A    between atoms: O_20  and  C_15 
REMARK    7  A    between atoms: N_19  and  C_18 
ROOT
ATOM      1  C   UNL d   1      53.304  32.509  53.237  0.00  0.00     0.101 A 
ATOM      2  N   UNL d   1      53.358  33.751  53.725  0.00  0.00    -0.269 N 
ATOM      3  C   UNL d   1      54.088  32.668  53.451  0.00  0.00     0.256 A 
ATOM      4  C   UNL d   1      54.121  33.432  53.751  0.00  0.00     0.304 A 
ATOM      5  C   UNL d   1      52.859  33.181  53.408  0.00  0.00     0.075 A 
ATOM      6  O   UNL d   1      54.803  33.814  54.031  0.00  0.00    -0.263 OA
ATOM      7  O   UNL d   1      54.731  32.147  53.376  0.00  0.00    -0.281 OA
ENDROOT
BRANCH   1   8
ATOM      8  C   UNL d   1      53.026  31.804  52.911  0.00  0.00     0.223 C 
ATOM      9  O   UNL d   1      52.688  31.803  52.156  0.00  0.00    -0.284 OA
BRANCH   8  10
ATOM     10  C   UNL d   1      53.082  31.097  53.331  0.00  0.00     0.139 A 
ATOM     11  O   UNL d   1      53.107  31.019  54.155  0.00  0.00    -0.304 OA
ATOM     12  C   UNL d   1      53.162  30.216  54.327  0.00  0.00     0.100 A 
ATOM     13  C   UNL d   1      53.206  29.814  55.047  0.00  0.00     0.025 A 
ATOM     14  C   UNL d   1      53.171  29.799  53.624  0.00  0.00     0.025 A 
ATOM     15  C   UNL d   1      53.258  28.997  55.055  0.00  0.00     0.002 A 
ATOM     16  C   UNL d   1      53.266  28.582  54.343  0.00  0.00     0.000 A 
ATOM     17  C   UNL d   1      53.223  28.978  53.630  0.00  0.00     0.002 A 
ATOM     18  C   UNL d   1      53.121  30.348  53.007  0.00  0.00     0.030 A 
ENDBRANCH   8  10
ENDBRANCH   1   8
BRANCH   5  19
ATOM     19  C   UNL d   1      52.037  33.258  53.278  0.00  0.00     0.039 A 
ATOM     20  C   UNL d   1      51.764  33.659  52.606  0.00  0.00     0.096 A 
ATOM     21  C   UNL d   1      50.956  33.736  52.474  0.00  0.00     0.024 A 
ATOM     22  C   UNL d   1      50.406  33.411  53.018  0.00  0.00     0.002 A 
ATOM     23  C   UNL d   1      50.687  33.010  53.691  0.00  0.00     0.000 A 
ATOM     24  C   UNL d   1      51.502  32.936  53.816  0.00  0.00     0.003 A 
BRANCH  20  25
ATOM     25  O   UNL d   1      52.307  33.977  52.072  0.00  0.00    -0.328 OA
ATOM     26  C   UNL d   1      52.038  34.451  51.449  0.00  0.00     0.181 C 
ENDBRANCH  20  25
ENDBRANCH   5  19
BRANCH   2  27
ATOM     27  C   UNL d   1      53.143  34.512  53.976  0.00  0.00     0.102 C 
BRANCH  27  28
ATOM     28  C   UNL d   1      53.517  34.857  54.623  0.00  0.00     0.100 C 
BRANCH  28  29
ATOM     29  N   UNL d   1      53.239  35.580  54.926  0.00  0.00    -0.299 N 
ATOM     30  C   UNL d   1      53.331  36.270  54.481  0.00  0.00     0.100 C 
ATOM     31  C   UNL d   1      52.878  35.600  55.663  0.00  0.00     0.100 C 
ENDBRANCH  28  29
ENDBRANCH  27  28
ENDBRANCH   2  27
TORSDOF 7
ENDMDL
MODEL 3
REMARK VINA RESULT:      -5.7      1.052      4.107
REMARK  7 active torsions:
REMARK  status: ('A' for Active; 'I' for Inactive)
REMARK    1  A    between atoms: C_7  and  C_1 
REMARK    2  A    between atoms: C_11  and  N_2 
REMARK    3  A    between atoms: C_10  and  C_5 
REMARK    4  A    between atoms: C_6  and  C_7 
REMARK    5  A    between atoms: C_18  and  C_11 
REMARK    6  A    between atoms: O_20  and  C_15 
REMARK    7  A    between atoms: N_19  and  C_18 
ROOT
ATOM      1  C   UNL d   1      53.396  31.669  53.325  0.00  0.00     0.101 A 
ATOM      2  N   UNL d   1      52.690  32.802  53.293  0.00  0.00    -0.269 N 
ATOM      3  C   UNL d   1      52.771  31.567  52.793  0.00  0.00     0.256 A 
ATOM      4  C   UNL d   1      52.336  32.264  52.772  0.00  0.00     0.304 A 
ATOM      5  C   UNL d   1      53.340  32.433  53.630  0.00  0.00     0.075 A 
ATOM      6  O   UNL d   1      51.660  32.401  52.309  0.00  0.00    -0.263 OA
ATOM      7  O   UNL d   1      52.609  30.880  52.353  0.00  0.00    -0.281 OA
ENDROOT
BRANCH   1   8
ATOM      8  C   UNL d   1      53.968  31.105  53.513  0.00  0.00     0.223 C 
ATOM      9  O   UNL d   1      54.751  31.212  53.266  0.00  0.00    -0.284 OA
BRANCH   8  10
ATOM     10  C   UNL d   1      53.768  30.432  53.945  0.00  0.00     0.139 A 
ATOM     11  O   UNL d   1      53.359  30.417  54.664  0.00  0.00    -0.304 OA
ATOM     12  C   UNL d   1      53.284  29.630  54.892  0.00  0.00     0.100 A 
ATOM     13  C   UNL d   1      52.931  29.284  55.554  0.00  0.00     0.025 A 
ATOM     14  C   UNL d   1      53.640  29.161  54.325  0.00  0.00     0.025 A 
ATOM     15  C   UNL d   1      52.938  28.470  55.640  0.00  0.00     0.002 A 
ATOM     16  C   UNL d   1      53.299  28.002  55.065  0.00  0.00     0.000 A 
ATOM     17  C   UNL d   1      53.648  28.342  54.411  0.00  0.00     0.002 A 
ATOM     18  C   UNL d   1      53.940  29.660  53.738  0.00  0.00     0.030 A 
ENDBRANCH   8  10
ENDBRANCH   1   8
BRANCH   5  19
ATOM     19  C   UNL d   1      53.864  32.766  54.190  0.00  0.00     0.039 A 
ATOM     20  C   UNL d   1      54.549  33.153  53.931  0.00  0.00     0.096 A 
ATOM     21  C   UNL d   1      55.068  33.481  54.479  0.00  0.00     0.024 A 
ATOM     22  C   UNL d   1      54.905  33.426  55.301  0.00  0.00     0.002 A 
ATOM     23  C   UNL d   1      54.214  33.036  55.554  0.00  0.00     0.000 A 
ATOM     24  C   UNL d   1      53.698  32.708  54.996  0.00  0.00     0.003 A 
BRANCH  20  25
ATOM     25  O   UNL d   1      54.707  33.205  53.123  0.00  0.00    -0.328 OA
ATOM     26  C   UNL d   1      55.391  33.594  52.864  0.00  0.00     0.181 C 
ENDBRANCH  20  25
ENDBRANCH   5  19
BRANCH   2  27
ATOM     27  C   UNL d   1      52.427  33.575  53.441  0.00  0.00     0.102 C 
BRANCH  27  28
ATOM     28  C   UNL d   1      51.725  33.846  53.107  0.00  0.00     0.100 C 
BRANCH  28  29
ATOM     29  N   UNL d   1      51.422  34.589  53.324  0.00  0.00    -0.299 N 
ATOM     30  C   UNL d   1      50.613  34.673  53.466  0.00  0.00     0.100 C 
ATOM     31  C   UNL d   1      51.930  35.231  53.396  0.00  0.00     0.100 C 
ENDBRANCH  28  29
ENDBRANCH  27  28
ENDBRANCH   2  27
TORSDOF 7
ENDMDL
MODEL 4
REMARK VINA RESULT:      -4.5      1.504      2.685
REMARK  7 active torsions:
REMARK  status: ('A' for Active; 'I' for Inactive)
REMARK    1  A    between atoms: C_7  and  C_1 
REMARK    2  A    between atoms: C_11  and  N_2 
REMARK    3  A    between atoms: C_10  and  C_5 
REMARK    4  A    between atoms: C_6  and  C_7 
REMARK    5  A    between atoms: C_18  and  C_11 
REMARK    6  A    between atoms: O_20  and  C_15 
REMARK    7  A    between atoms: N_19  and  C_18 
ROOT
ATOM      1  C   UNL d   1      52.273  34.096  52.974  0.00  0.00     0.101 A 
ATOM      2  N   UNL d   1      53.049  33.872  54.037  0.00  0.00    -0.269 N 
ATOM      3  C   UNL d   1      52.545  34.827  53.252  0.00  0.00     0.256 A 
ATOM      4  C   UNL d   1      53.023  34.689  53.906  0.00  0.00     0.304 A 
ATOM      5  C   UNL d   1      52.588  33.512  53.462  0.00  0.00     0.075 A 
ATOM      6  O   UNL d   1      53.410  35.271  54.356  0.00  0.00    -0.263 OA
ATOM      7  O   UNL d   1      52.367  35.571  52.928  0.00  0.00    -0.281 OA
ENDROOT
BRANCH   1   8
ATOM      8  C   UNL d   1      51.777  33.981  52.325  0.00  0.00     0.223 C 
ATOM      9  O   UNL d   1      52.060  33.588  51.653  0.00  0.00    -0.284 OA
BRANCH   8  10
ATOM     10  C   UNL d   1      50.999  34.254  52.336  0.00  0.00     0.139 A 
ATOM     11  O   UNL d   1      50.605  34.576  52.989  0.00  0.00    -0.304 OA
ATOM     12  C   UNL d   1      49.843  34.772  52.748  0.00  0.00     0.100 A 
ATOM     13  C   UNL d   1      49.210  35.108  53.158  0.00  0.00     0.025 A 
ATOM     14  C   UNL d   1      49.762  34.576  51.958  0.00  0.00     0.025 A 
ATOM     15  C   UNL d   1      48.501  35.244  52.771  0.00  0.00     0.002 A 
ATOM     16  C   UNL d   1      48.426  35.044  51.975  0.00  0.00     0.000 A 
ATOM     17  C   UNL d   1      49.050  34.712  51.568  0.00  0.00     0.002 A 
ATOM     18  C   UNL d   1      50.481  34.254  51.705  0.00  0.00     0.030 A 
ENDBRANCH   8  10
ENDBRANCH   1   8
BRANCH   5  19
ATOM     19  C   UNL d   1      52.453  32.691  53.377  0.00  0.00     0.039 A 
ATOM     20  C   UNL d   1      53.035  32.213  53.032  0.00  0.00     0.096 A 
ATOM     21  C   UNL d   1      52.905  31.405  52.947  0.00  0.00     0.024 A 
ATOM     22  C   UNL d   1      52.184  31.063  53.208  0.00  0.00     0.002 A 
ATOM     23  C   UNL d   1      51.604  31.550  53.553  0.00  0.00     0.000 A 
ATOM     24  C   UNL d   1      51.742  32.361  53.636  0.00  0.00     0.003 A 
BRANCH  20  25
ATOM     25  O   UNL d   1      53.742  32.552  52.777  0.00  0.00    -0.328 OA
ATOM     26  C   UNL d   1      54.389  32.066  52.602  0.00  0.00     0.181 C 
ENDBRANCH  20  25
ENDBRANCH   5  19
BRANCH   2  27
ATOM     27  C   UNL d   1      53.470  33.493  54.643  0.00  0.00     0.102 C 
BRANCH  27  28
ATOM     28  C   UNL d   1      53.952  33.928  55.149  0.00  0.00     0.100 C 
BRANCH  28  29
ATOM     29  N   UNL d   1      54.551  33.547  55.582  0.00  0.00    -0.299 N 
ATOM     30  C   UNL d   1      55.336  33.786  55.487  0.00  0.00     0.100 C 
ATOM     31  C   UNL d   1      54.357  32.939  56.098  0.00  0.00     0.100 C 
ENDBRANCH  28  29
ENDBRANCH  27  28
ENDBRANCH   2  27
TORSDOF 7
ENDMDL
MODEL 5
REMARK VINA RESULT:      -3.9      1.343      2.323
REMARK  7 active torsions:
REMARK  status: ('A' for Active; 'I' for Inactive)
REMARK    1  A    between atoms: C_7  and  C_1 
REMARK    2  A    between atoms: C_11  and  N_2 
REMARK    3  A    between atoms: C_10  and  C_5 
REMARK    4  A    between atoms: C_6  and  C_7 
REMARK    5  A    between atoms: C_18  and  C_11 
REMARK    6  A    between atoms: O_20  and  C_15 
REMARK    7  A    between atoms: N_19  and  C_18 
ROOT
ATOM      1  C   UNL d   1      51.182  33.582  53.331  0.00  0.00     0.101 A 
ATOM      2  N   UNL d   1      52.179  32.695  53.304  0.00  0.00    -0.269 N 
ATOM      3  C   UNL d   1      50.851  32.823  53.343  0.00  0.00     0.256 A 
ATOM      4  C   UNL d   1      51.466  32.276  53.326  0.00  0.00     0.304 A 
ATOM      5  C   UNL d   1      52.001  33.495  53.307  0.00  0.00     0.075 A 
ATOM      6  O   UNL d   1      51.380  31.450  53.331  0.00  0.00    -0.263 OA
ATOM      7  O   UNL d   1      50.041  32.642  53.368  0.00  0.00    -0.281 OA
ENDROOT
BRANCH   1   8
ATOM      8  C   UNL d   1      50.761  34.291  53.342  0.00  0.00     0.223 C 
ATOM      9  O   UNL d   1      50.928  34.861  53.918  0.00  0.00    -0.284 OA
BRANCH   8  10
ATOM     10  C   UNL d   1      50.174  34.440  52.783  0.00  0.00     0.139 A 
ATOM     11  O   UNL d   1      50.194  34.224  51.984  0.00  0.00    -0.304 OA
ATOM     12  C   UNL d   1      49.494  34.484  51.638  0.00  0.00     0.100 A 
ATOM     13  C   UNL d   1      49.213  34.424  50.864  0.00  0.00     0.025 A 
ATOM     14  C   UNL d   1      49.044  34.856  52.211  0.00  0.00     0.025 A 
ATOM     15  C   UNL d   1      48.482  34.739  50.672  0.00  0.00     0.002 A 
ATOM     16  C   UNL d   1      48.033  35.113  51.253  0.00  0.00     0.000 A 
ATOM     17  C   UNL d   1      48.309  35.173  52.019  0.00  0.00     0.002 A 
ATOM     18  C   UNL d   1      49.468  34.828  52.920  0.00  0.00     0.030 A 
ENDBRANCH   8  10
ENDBRANCH   1   8
BRANCH   5  19
ATOM     19  C   UNL d   1      52.550  34.126  53.289  0.00  0.00     0.039 A 
ATOM     20  C   UNL d   1      52.925  34.364  53.988  0.00  0.00     0.096 A 
ATOM     21  C   UNL d   1      53.465  34.984  53.974  0.00  0.00     0.024 A 
ATOM     22  C   UNL d   1      53.638  35.378  53.253  0.00  0.00     0.002 A 
ATOM     23  C   UNL d   1      53.257  35.133  52.554  0.00  0.00     0.000 A 
ATOM     24  C   UNL d   1      52.715  34.509  52.577  0.00  0.00     0.003 A 
BRANCH  20  25
ATOM     25  O   UNL d   1      52.753  33.976  54.695  0.00  0.00    -0.328 OA
ATOM     26  C   UNL d   1      53.188  34.155  55.377  0.00  0.00     0.181 C 
ENDBRANCH  20  25
ENDBRANCH   5  19
BRANCH   2  27
ATOM     27  C   UNL d   1      52.937  32.357  53.282  0.00  0.00     0.102 C 
BRANCH  27  28
ATOM     28  C   UNL d   1      53.033  31.564  53.081  0.00  0.00     0.100 C 
BRANCH  28  29
ATOM     29  N   UNL d   1      53.737  31.168  53.277  0.00  0.00    -0.299 N 
ATOM     30  C   UNL d   1      53.715  30.536  53.808  0.00  0.00     0.100 C 
ATOM     31  C   UNL d   1      54.446  31.409  52.940  0.00  0.00     0.100 C 
ENDBRANCH  28  29
ENDBRANCH  27  28
ENDBRANCH   2  27
TORSDOF 7
ENDMDL
