MODEL 1
REMARK VINA RESULT:      -8.9      0.000      0.000
REMARK  2 active torsions:
REMARK  status: ('A' for Active; 'I' for Inactive)
REMARK    1  A    between atoms: N_7  and  C_3 
REMARK    2  A    between atoms: C_15  and  C_5 
ROOT
ATOM      1  N   UNL d   1     -48.748  14.100  22.905  0.00  0.00    -0.196 N 
ATOM      2  C   UNL d   1     -48.172  13.487  22.952  0.00  0.00     0.167 A 
ATOM      3  C   UNL d   1     -49.554  13.912  22.975  0.00  0.00     0.153 A 
ATOM      4  N   UNL d   1     -47.712  15.060  22.719  0.00  0.00    -0.163 NA
ATOM      5  C   UNL d   1     -47.385  13.669  22.883  0.00  0.00     0.055 A 
ATOM      6  N   UNL d   1     -48.422  12.709  23.069  0.00  0.00    -0.227 NA
ATOM      7  C   UNL d   1     -49.785  13.139  23.090  0.00  0.00     0.052 A 
ATOM      8  C   UNL d   1     -47.145  14.457  22.765  0.00  0.00     0.104 A 
ATOM      9  C   UNL d   1     -49.215  12.521  23.139  0.00  0.00     0.086 A 
ATOM     10  C   UNL d   1     -50.516  12.792  23.178  0.00  0.00     0.005 A 
ATOM     11  C   UNL d   1     -46.346  14.632  22.697  0.00  0.00     0.023 C 
ATOM     12  C   UNL d   1     -49.610  11.809  23.255  0.00  0.00     0.019 A 
ATOM     13  C   UNL d   1     -50.425  11.981  23.279  0.00  0.00     0.002 A 
ENDROOT
BRANCH   3  14
ATOM     14  N   UNL d   1     -50.139  14.528  22.928  0.00  0.00    -0.274 N 
ATOM     15  C   UNL d   1     -50.705  14.930  22.451  0.00  0.00     0.149 A 
ATOM     16  N   UNL d   1     -51.063  15.534  22.924  0.00  0.00    -0.225 NA
ATOM     17  C   UNL d   1     -50.881  14.760  21.653  0.00  0.00     0.041 C 
ATOM     18  C   UNL d   1     -50.709  15.495  23.690  0.00  0.00     0.120 A 
ATOM     19  C   UNL d   1     -50.147  14.885  23.696  0.00  0.00     0.104 A 
ENDBRANCH   3  14
BRANCH   5  20
ATOM     20  C   UNL d   1     -46.821  13.069  22.929  0.00  0.00     0.004 A 
ATOM     21  C   UNL d   1     -46.426  12.817  22.250  0.00  0.00     0.000 A 
ATOM     22  C   UNL d   1     -45.865  12.221  22.292  0.00  0.00     0.000 A 
ATOM     23  C   UNL d   1     -45.693  11.869  23.022  0.00  0.00     0.000 A 
ATOM     24  C   UNL d   1     -46.078  12.112  23.697  0.00  0.00     0.000 A 
ATOM     25  C   UNL d   1     -46.647  12.718  23.650  0.00  0.00     0.000 A 
ENDBRANCH   5  20
TORSDOF 2
ENDMDL
MODEL 2
REMARK VINA RESULT:      -7.8      1.095      4.363
REMARK  2 active torsions:
REMARK  status: ('A' for Active; 'I' for Inactive)
REMARK    1  A    between atoms: N_7  and  C_3 
REMARK    2  A    between atoms: C_15  and  C_5 
ROOT
ATOM      1  N   UNL d   1     -47.699  12.701  22.610  0.00  0.00    -0.196 N 
ATOM      2  C   UNL d   1     -48.368  13.203  22.513  0.00  0.00     0.167 A 
ATOM      3  C   UNL d   1     -46.952  13.036  22.752  0.00  0.00     0.153 A 
ATOM      4  N   UNL d   1     -48.529  11.558  22.424  0.00  0.00    -0.163 NA
ATOM      5  C   UNL d   1     -49.098  12.878  22.374  0.00  0.00     0.055 A 
ATOM      6  N   UNL d   1     -48.267  14.022  22.560  0.00  0.00    -0.227 NA
ATOM      7  C   UNL d   1     -46.868  13.846  22.797  0.00  0.00     0.052 A 
ATOM      8  C   UNL d   1     -49.188  12.052  22.328  0.00  0.00     0.104 A 
ATOM      9  C   UNL d   1     -47.533  14.354  22.700  0.00  0.00     0.086 A 
ATOM     10  C   UNL d   1     -46.224  14.325  22.926  0.00  0.00     0.005 A 
ATOM     11  C   UNL d   1     -49.930  11.731  22.187  0.00  0.00     0.023 C 
ATOM     12  C   UNL d   1     -47.280  15.133  22.773  0.00  0.00     0.019 A 
ATOM     13  C   UNL d   1     -46.459  15.112  22.915  0.00  0.00     0.002 A 
ENDROOT
BRANCH   3  14
ATOM     14  N   UNL d   1     -46.274  12.533  22.852  0.00  0.00    -0.274 N 
ATOM     15  C   UNL d   1     -45.529  12.282  22.548  0.00  0.00     0.149 A 
ATOM     16  N   UNL d   1     -45.216  11.697  23.074  0.00  0.00    -0.225 NA
ATOM     17  C   UNL d   1     -45.165  12.564  21.851  0.00  0.00     0.041 C 
ATOM     18  C   UNL d   1     -45.777  11.595  23.698  0.00  0.00     0.120 A 
ATOM     19  C   UNL d   1     -46.421  12.101  23.565  0.00  0.00     0.104 A 
ENDBRANCH   3  14
BRANCH   5  20
ATOM     20  C   UNL d   1     -49.753  13.369  22.278  0.00  0.00     0.004 A 
ATOM     21  C   UNL d   1     -50.188  13.613  22.935  0.00  0.00     0.000 A 
ATOM     22  C   UNL d   1     -50.841  14.102  22.844  0.00  0.00     0.000 A 
ATOM     23  C   UNL d   1     -51.064  14.353  22.087  0.00  0.00     0.000 A 
ATOM     24  C   UNL d   1     -50.640  14.116  21.433  0.00  0.00     0.000 A 
ATOM     25  C   UNL d   1     -49.978  13.620  21.530  0.00  0.00     0.000 A 
ENDBRANCH   5  20
TORSDOF 2
ENDMDL
MODEL 3
REMARK VINA RESULT:      -7.8      8.469     10.712
REMARK  2 active torsions:
REMARK  status: ('A' for Active; 'I' for Inactive)
REMARK    1  A    between atoms: N_7  and  C_3 
REMARK    2  A    between atoms: C_15  and  C_5 
ROOT
ATOM      1  N   UNL d   1     -39.277  14.991  17.949  0.00  0.00    -0.196 N 
ATOM      2  C   UNL d   1     -39.852  15.114  18.551  0.00  0.00     0.167 A 
ATOM      3  C   UNL d   1     -39.466  15.163  17.158  0.00  0.00     0.153 A 
ATOM      4  N   UNL d   1     -38.349  14.534  18.929  0.00  0.00    -0.163 NA
ATOM      5  C   UNL d   1     -39.669  14.947  19.323  0.00  0.00     0.055 A 
ATOM      6  N   UNL d   1     -40.597  15.405  18.342  0.00  0.00    -0.227 NA
ATOM      7  C   UNL d   1     -40.205  15.449  16.968  0.00  0.00     0.052 A 
ATOM      8  C   UNL d   1     -38.916  14.655  19.522  0.00  0.00     0.104 A 
ATOM      9  C   UNL d   1     -40.786  15.574  17.565  0.00  0.00     0.086 A 
ATOM     10  C   UNL d   1     -40.545  15.663  16.260  0.00  0.00     0.005 A 
ATOM     11  C   UNL d   1     -38.739  14.489  20.306  0.00  0.00     0.023 C 
ATOM     12  C   UNL d   1     -41.469  15.863  17.209  0.00  0.00     0.019 A 
ATOM     13  C   UNL d   1     -41.315  15.917  16.391  0.00  0.00     0.002 A 
ENDROOT
BRANCH   3  14
ATOM     14  N   UNL d   1     -38.887  15.040  16.548  0.00  0.00    -0.274 N 
ATOM     15  C   UNL d   1     -38.520  14.494  16.021  0.00  0.00     0.149 A 
ATOM     16  N   UNL d   1     -37.940  14.916  15.571  0.00  0.00    -0.225 NA
ATOM     17  C   UNL d   1     -38.700  13.682  15.956  0.00  0.00     0.041 C 
ATOM     18  C   UNL d   1     -37.958  15.721  15.830  0.00  0.00     0.120 A 
ATOM     19  C   UNL d   1     -38.533  15.799  16.423  0.00  0.00     0.104 A 
ENDBRANCH   3  14
BRANCH   5  20
ATOM     20  C   UNL d   1     -40.233  15.068  19.913  0.00  0.00     0.004 A 
ATOM     21  C   UNL d   1     -40.282  15.796  20.297  0.00  0.00     0.000 A 
ATOM     22  C   UNL d   1     -40.842  15.919  20.884  0.00  0.00     0.000 A 
ATOM     23  C   UNL d   1     -41.361  15.308  21.093  0.00  0.00     0.000 A 
ATOM     24  C   UNL d   1     -41.319  14.587  20.718  0.00  0.00     0.000 A 
ATOM     25  C   UNL d   1     -40.750  14.465  20.122  0.00  0.00     0.000 A 
ENDBRANCH   5  20
TORSDOF 2
ENDMDL
MODEL 4
REMARK VINA RESULT:      -7.5      9.275     10.292
REMARK  2 active torsions:
REMARK  status: ('A' for Active; 'I' for Inactive)
REMARK    1  A    between atoms: N_7  and  C_3 
REMARK    2  A    between atoms: C_15  and  C_5 
ROOT
ATOM      1  N   UNL d   1     -39.651  14.936  19.044  0.00  0.00    -0.196 N 
ATOM      2  C   UNL d   1     -39.305  14.536  19.699  0.00  0.00     0.167 A 
ATOM      3  C   UNL d   1     -39.550  14.632  18.277  0.00  0.00     0.153 A 
ATOM      4  N   UNL d   1     -40.186  15.919  19.925  0.00  0.00    -0.163 NA
ATOM      5  C   UNL d   1     -39.404  14.831  20.447  0.00  0.00     0.055 A 
ATOM      6  N   UNL d   1     -38.869  13.847  19.565  0.00  0.00    -0.227 NA
ATOM      7  C   UNL d   1     -39.116  13.952  18.161  0.00  0.00     0.052 A 
ATOM      8  C   UNL d   1     -39.845  15.526  20.571  0.00  0.00     0.104 A 
ATOM      9  C   UNL d   1     -38.767  13.547  18.811  0.00  0.00     0.086 A 
ATOM     10  C   UNL d   1     -38.924  13.530  17.492  0.00  0.00     0.005 A 
ATOM     11  C   UNL d   1     -39.941  15.817  21.332  0.00  0.00     0.023 C 
ATOM     12  C   UNL d   1     -38.369  12.886  18.526  0.00  0.00     0.019 A 
ATOM     13  C   UNL d   1     -38.469  12.878  17.698  0.00  0.00     0.002 A 
ENDROOT
BRANCH   3  14
ATOM     14  N   UNL d   1     -39.898  15.033  17.613  0.00  0.00    -0.274 N 
ATOM     15  C   UNL d   1     -39.781  15.556  16.962  0.00  0.00     0.149 A 
ATOM     16  N   UNL d   1     -40.523  15.645  16.563  0.00  0.00    -0.225 NA
ATOM     17  C   UNL d   1     -39.061  15.922  16.752  0.00  0.00     0.041 C 
ATOM     18  C   UNL d   1     -41.088  15.171  16.976  0.00  0.00     0.120 A 
ATOM     19  C   UNL d   1     -40.711  14.798  17.614  0.00  0.00     0.104 A 
ENDBRANCH   3  14
BRANCH   5  20
ATOM     20  C   UNL d   1     -39.065  14.440  21.090  0.00  0.00     0.004 A 
ATOM     21  C   UNL d   1     -38.287  14.603  21.311  0.00  0.00     0.000 A 
ATOM     22  C   UNL d   1     -37.946  14.216  21.949  0.00  0.00     0.000 A 
ATOM     23  C   UNL d   1     -38.386  13.657  22.374  0.00  0.00     0.000 A 
ATOM     24  C   UNL d   1     -39.155  13.491  22.162  0.00  0.00     0.000 A 
ATOM     25  C   UNL d   1     -39.497  13.886  21.513  0.00  0.00     0.000 A 
ENDBRANCH   5  20
TORSDOF 2
ENDMDL
MODEL 5
REMARK VINA RESULT:      -7.3      8.156     10.329
REMARK  2 active torsions:
REMARK  status: ('A' for Active; 'I' for Inactive)
REMARK    1  A    between atoms: N_7  and  C_3 
REMARK    2  A    between atoms: C_15  and  C_5 
ROOT
ATOM      1  N   UNL d   1     -40.075  14.850  18.890  0.00  0.00    -0.196 N 
ATOM      2  C   UNL d   1     -39.495  14.657  18.311  0.00  0.00     0.167 A 
ATOM      3  C   UNL d   1     -39.920  14.699  19.692  0.00  0.00     0.153 A 
ATOM      4  N   UNL d   1     -40.939  15.332  17.865  0.00  0.00    -0.163 NA
ATOM      5  C   UNL d   1     -39.645  14.804  17.528  0.00  0.00     0.055 A 
ATOM      6  N   UNL d   1     -38.780  14.321  18.554  0.00  0.00    -0.227 NA
ATOM      7  C   UNL d   1     -39.210  14.367  19.916  0.00  0.00     0.052 A 
ATOM      8  C   UNL d   1     -40.368  15.143  17.295  0.00  0.00     0.104 A 
ATOM      9  C   UNL d   1     -38.625  14.172  19.342  0.00  0.00     0.086 A 
ATOM     10  C   UNL d   1     -38.905  14.159  20.642  0.00  0.00     0.005 A 
ATOM     11  C   UNL d   1     -40.512  15.288  16.500  0.00  0.00     0.023 C 
ATOM     12  C   UNL d   1     -37.975  13.849  19.729  0.00  0.00     0.019 A 
ATOM     13  C   UNL d   1     -38.154  13.842  20.544  0.00  0.00     0.002 A 
ENDROOT
BRANCH   3  14
ATOM     14  N   UNL d   1     -40.503  14.892  20.280  0.00  0.00    -0.274 N 
ATOM     15  C   UNL d   1     -41.163  14.630  20.734  0.00  0.00     0.149 A 
ATOM     16  N   UNL d   1     -41.410  15.271  21.230  0.00  0.00    -0.225 NA
ATOM     17  C   UNL d   1     -41.511  13.872  20.698  0.00  0.00     0.041 C 
ATOM     18  C   UNL d   1     -40.894  15.922  21.073  0.00  0.00     0.120 A 
ATOM     19  C   UNL d   1     -40.342  15.694  20.496  0.00  0.00     0.104 A 
ENDBRANCH   3  14
BRANCH   5  20
ATOM     20  C   UNL d   1     -39.077  14.615  16.960  0.00  0.00     0.004 A 
ATOM     21  C   UNL d   1     -38.532  15.184  16.714  0.00  0.00     0.000 A 
ATOM     22  C   UNL d   1     -37.965  15.000  16.150  0.00  0.00     0.000 A 
ATOM     23  C   UNL d   1     -37.940  14.239  15.825  0.00  0.00     0.000 A 
ATOM     24  C   UNL d   1     -38.475  13.672  16.062  0.00  0.00     0.000 A 
ATOM     25  C   UNL d   1     -39.048  13.862  16.635  0.00  0.00     0.000 A 
ENDBRANCH   5  20
TORSDOF 2
ENDMDL
MODEL 6
REMARK VINA RESULT:      -7.2      1.269      3.893
REMARK  2 active torsions:
REMARK  status: ('A' for Active; 'I' for Inactive)
REMARK    1  A    between atoms: N_7  and  C_3 
REMARK    2  A    between atoms: C_15  and  C_5 
ROOT
ATOM      1  N   UNL d   1     -47.484  13.310  22.522  0.00  0.00    -0.196 N 
ATOM      2  C   UNL d   1     -48.216  12.953  22.737  0.00  0.00     0.167 A 
ATOM      3  C   UNL d   1     -46.770  12.926  22.703  0.00  0.00     0.153 A 
ATOM      4  N   UNL d   1     -48.189  14.412  21.956  0.00  0.00    -0.163 NA
ATOM      5  C   UNL d   1     -48.913  13.327  22.560  0.00  0.00     0.055 A 
ATOM      6  N   UNL d   1     -48.208  12.224  23.126  0.00  0.00    -0.227 NA
ATOM      7  C   UNL d   1     -46.779  12.207  23.088  0.00  0.00     0.052 A 
ATOM      8  C   UNL d   1     -48.909  14.061  22.168  0.00  0.00     0.104 A 
ATOM      9  C   UNL d   1     -47.507  11.844  23.306  0.00  0.00     0.086 A 
ATOM     10  C   UNL d   1     -46.185  11.709  23.334  0.00  0.00     0.005 A 
ATOM     11  C   UNL d   1     -49.619  14.432  21.993  0.00  0.00     0.023 C 
ATOM     12  C   UNL d   1     -47.342  11.131  23.682  0.00  0.00     0.019 A 
ATOM     13  C   UNL d   1     -46.512  11.049  23.698  0.00  0.00     0.002 A 
ENDROOT
BRANCH   3  14
ATOM     14  N   UNL d   1     -46.030  13.284  22.488  0.00  0.00    -0.274 N 
ATOM     15  C   UNL d   1     -45.347  13.253  21.994  0.00  0.00     0.149 A 
ATOM     16  N   UNL d   1     -44.852  13.911  22.193  0.00  0.00    -0.225 NA
ATOM     17  C   UNL d   1     -45.189  12.675  21.414  0.00  0.00     0.041 C 
ATOM     18  C   UNL d   1     -45.241  14.340  22.809  0.00  0.00     0.120 A 
ATOM     19  C   UNL d   1     -45.956  13.961  22.990  0.00  0.00     0.104 A 
ENDBRANCH   3  14
BRANCH   5  20
ATOM     20  C   UNL d   1     -49.630  12.977  22.771  0.00  0.00     0.004 A 
ATOM     21  C   UNL d   1     -50.005  13.191  23.474  0.00  0.00     0.000 A 
ATOM     22  C   UNL d   1     -50.717  12.845  23.687  0.00  0.00     0.000 A 
ATOM     23  C   UNL d   1     -51.063  12.277  23.193  0.00  0.00     0.000 A 
ATOM     24  C   UNL d   1     -50.699  12.061  22.498  0.00  0.00     0.000 A 
ATOM     25  C   UNL d   1     -49.976  12.414  22.285  0.00  0.00     0.000 A 
ENDBRANCH   5  20
TORSDOF 2
ENDMDL
MODEL 7
REMARK VINA RESULT:      -7.1      8.485     10.229
REMARK  2 active torsions:
REMARK  status: ('A' for Active; 'I' for Inactive)
REMARK    1  A    between atoms: N_7  and  C_3 
REMARK    2  A    between atoms: C_15  and  C_5 
ROOT
ATOM      1  N   UNL d   1     -39.074  14.639  20.188  0.00  0.00    -0.196 N 
ATOM      2  C   UNL d   1     -39.415  14.831  19.443  0.00  0.00     0.167 A 
ATOM      3  C   UNL d   1     -39.462  14.863  20.888  0.00  0.00     0.153 A 
ATOM      4  N   UNL d   1     -37.979  14.011  19.526  0.00  0.00    -0.163 NA
ATOM      5  C   UNL d   1     -39.037  14.613  18.760  0.00  0.00     0.055 A 
ATOM      6  N   UNL d   1     -40.132  15.241  19.423  0.00  0.00    -0.227 NA
ATOM      7  C   UNL d   1     -40.169  15.267  20.851  0.00  0.00     0.052 A 
ATOM      8  C   UNL d   1     -38.315  14.200  18.792  0.00  0.00     0.104 A 
ATOM      9  C   UNL d   1     -40.516  15.463  20.109  0.00  0.00     0.086 A 
ATOM     10  C   UNL d   1     -40.667  15.555  21.427  0.00  0.00     0.005 A 
ATOM     11  C   UNL d   1     -37.939  13.983  18.095  0.00  0.00     0.023 C 
ATOM     12  C   UNL d   1     -41.219  15.866  20.247  0.00  0.00     0.019 A 
ATOM     13  C   UNL d   1     -41.312  15.922  21.074  0.00  0.00     0.002 A 
ENDROOT
BRANCH   3  14
ATOM     14  N   UNL d   1     -39.120  14.671  21.642  0.00  0.00    -0.274 N 
ATOM     15  C   UNL d   1     -38.624  14.917  22.277  0.00  0.00     0.149 A 
ATOM     16  N   UNL d   1     -38.608  14.295  22.852  0.00  0.00    -0.225 NA
ATOM     17  C   UNL d   1     -38.220  15.646  22.328  0.00  0.00     0.041 C 
ATOM     18  C   UNL d   1     -39.098  13.671  22.560  0.00  0.00     0.120 A 
ATOM     19  C   UNL d   1     -39.411  13.897  21.825  0.00  0.00     0.104 A 
ENDBRANCH   3  14
BRANCH   5  20
ATOM     20  C   UNL d   1     -39.371  14.801  18.029  0.00  0.00     0.004 A 
ATOM     21  C   UNL d   1     -39.897  14.280  17.667  0.00  0.00     0.000 A 
ATOM     22  C   UNL d   1     -40.232  14.464  16.941  0.00  0.00     0.000 A 
ATOM     23  C   UNL d   1     -40.039  15.178  16.568  0.00  0.00     0.000 A 
ATOM     24  C   UNL d   1     -39.520  15.698  16.919  0.00  0.00     0.000 A 
ATOM     25  C   UNL d   1     -39.183  15.508  17.657  0.00  0.00     0.000 A 
ENDBRANCH   5  20
TORSDOF 2
ENDMDL
MODEL 8
REMARK VINA RESULT:      -6.7      1.025      2.313
REMARK  2 active torsions:
REMARK  status: ('A' for Active; 'I' for Inactive)
REMARK    1  A    between atoms: N_7  and  C_3 
REMARK    2  A    between atoms: C_15  and  C_5 
ROOT
ATOM      1  N   UNL d   1     -49.290  13.467  22.928  0.00  0.00    -0.196 N 
ATOM      2  C   UNL d   1     -48.588  13.002  22.912  0.00  0.00     0.167 A 
ATOM      3  C   UNL d   1     -49.243  14.287  22.801  0.00  0.00     0.153 A 
ATOM      4  N   UNL d   1     -50.059  12.298  23.195  0.00  0.00    -0.163 NA
ATOM      5  C   UNL d   1     -48.633  12.202  23.036  0.00  0.00     0.055 A 
ATOM      6  N   UNL d   1     -47.864  13.373  22.769  0.00  0.00    -0.227 NA
ATOM      7  C   UNL d   1     -48.521  14.638  22.661  0.00  0.00     0.052 A 
ATOM      8  C   UNL d   1     -49.368  11.840  23.179  0.00  0.00     0.104 A 
ATOM      9  C   UNL d   1     -47.815  14.179  22.643  0.00  0.00     0.086 A 
ATOM     10  C   UNL d   1     -48.303  15.409  22.521  0.00  0.00     0.005 A 
ATOM     11  C   UNL d   1     -49.404  11.029  23.303  0.00  0.00     0.023 C 
ATOM     12  C   UNL d   1     -47.180  14.680  22.492  0.00  0.00     0.019 A 
ATOM     13  C   UNL d   1     -47.490  15.451  22.415  0.00  0.00     0.002 A 
ENDROOT
BRANCH   3  14
ATOM     14  N   UNL d   1     -49.949  14.760  22.818  0.00  0.00    -0.274 N 
ATOM     15  C   UNL d   1     -50.651  14.998  22.415  0.00  0.00     0.149 A 
ATOM     16  N   UNL d   1     -51.064  15.544  22.912  0.00  0.00    -0.225 NA
ATOM     17  C   UNL d   1     -50.892  14.738  21.659  0.00  0.00     0.041 C 
ATOM     18  C   UNL d   1     -50.609  15.635  23.618  0.00  0.00     0.120 A 
ATOM     19  C   UNL d   1     -49.931  15.160  23.563  0.00  0.00     0.104 A 
ENDBRANCH   3  14
BRANCH   5  20
ATOM     20  C   UNL d   1     -47.946  11.747  23.019  0.00  0.00     0.004 A 
ATOM     21  C   UNL d   1     -47.483  11.669  23.698  0.00  0.00     0.000 A 
ATOM     22  C   UNL d   1     -46.799  11.217  23.685  0.00  0.00     0.000 A 
ATOM     23  C   UNL d   1     -46.571  10.835  22.986  0.00  0.00     0.000 A 
ATOM     24  C   UNL d   1     -47.022  10.907  22.312  0.00  0.00     0.000 A 
ATOM     25  C   UNL d   1     -47.716  11.367  22.329  0.00  0.00     0.000 A 
ENDBRANCH   5  20
TORSDOF 2
ENDMDL
MODEL 9
REMARK VINA RESULT:      -6.1      1.206      2.261
REMARK  2 active torsions:
REMARK  status: ('A' for Active; 'I' for Inactive)
REMARK    1  A    between atoms: N_7  and  C_3 
REMARK    2  A    between atoms: C_15  and  C_5 
ROOT
ATOM      1  N   UNL d   1     -48.402  12.806  22.725  0.00  0.00    -0.196 N 
ATOM      2  C   UNL d   1     -47.657  13.177  22.602  0.00  0.00     0.167 A 
ATOM      3  C   UNL d   1     -49.102  13.232  22.586  0.00  0.00     0.153 A 
ATOM      4  N   UNL d   1     -47.741  11.606  23.118  0.00  0.00    -0.163 NA
ATOM      5  C   UNL d   1     -46.974  12.761  22.737  0.00  0.00     0.055 A 
ATOM      6  N   UNL d   1     -47.636  13.961  22.344  0.00  0.00    -0.227 NA
ATOM      7  C   UNL d   1     -49.065  14.006  22.332  0.00  0.00     0.052 A 
ATOM      8  C   UNL d   1     -47.006  11.972  22.997  0.00  0.00     0.104 A 
ATOM      9  C   UNL d   1     -48.322  14.383  22.207  0.00  0.00     0.086 A 
ATOM     10  C   UNL d   1     -49.640  14.553  22.153  0.00  0.00     0.005 A 
ATOM     11  C   UNL d   1     -46.310  11.559  23.132  0.00  0.00     0.023 C 
ATOM     12  C   UNL d   1     -48.460  15.154  21.953  0.00  0.00     0.019 A 
ATOM     13  C   UNL d   1     -49.287  15.257  21.921  0.00  0.00     0.002 A 
ENDROOT
BRANCH   3  14
ATOM     14  N   UNL d   1     -49.856  12.861  22.710  0.00  0.00    -0.274 N 
ATOM     15  C   UNL d   1     -50.505  12.446  22.367  0.00  0.00     0.149 A 
ATOM     16  N   UNL d   1     -51.064  12.282  22.981  0.00  0.00    -0.225 NA
ATOM     17  C   UNL d   1     -50.580  12.236  21.562  0.00  0.00     0.041 C 
ATOM     18  C   UNL d   1     -50.749  12.601  23.698  0.00  0.00     0.120 A 
ATOM     19  C   UNL d   1     -50.015  12.953  23.536  0.00  0.00     0.104 A 
ENDBRANCH   3  14
BRANCH   5  20
ATOM     20  C   UNL d   1     -46.243  13.125  22.617  0.00  0.00     0.004 A 
ATOM     21  C   UNL d   1     -45.793  12.940  21.950  0.00  0.00     0.000 A 
ATOM     22  C   UNL d   1     -45.066  13.300  21.827  0.00  0.00     0.000 A 
ATOM     23  C   UNL d   1     -44.782  13.852  22.375  0.00  0.00     0.000 A 
ATOM     24  C   UNL d   1     -45.220  14.040  23.035  0.00  0.00     0.000 A 
ATOM     25  C   UNL d   1     -45.958  13.673  23.157  0.00  0.00     0.000 A 
ENDBRANCH   5  20
TORSDOF 2
ENDMDL
