MODEL 1
REMARK VINA RESULT:      19.6      0.000      0.000
REMARK  1 active torsions:
REMARK  status: ('A' for Active; 'I' for Inactive)
REMARK       I    between atoms: C_2  and  N_1 
REMARK    1  A    between atoms: C_4  and  C_2 
ROOT
ATOM      1  N   UNL d   1     -57.513 -98.776 -44.429  0.00  0.00    -0.272 N 
ATOM      2  C   UNL d   1     -56.854 -98.784 -44.929  0.00  0.00     0.287 C 
ATOM      3  C   UNL d   1     -58.306 -98.770 -44.659  0.00  0.00     0.067 A 
ATOM      4  C   UNL d   1     -57.473 -98.774 -43.621  0.00  0.00     0.083 A 
ATOM      5  O   UNL d   1     -56.961 -98.786 -45.748  0.00  0.00    -0.264 OA
ATOM      6  C   UNL d   1     -58.770 -98.763 -43.985  0.00  0.00     0.018 A 
ATOM      7  C   UNL d   1     -58.260 -98.766 -43.333  0.00  0.00     0.021 A 
ATOM      8  C   UNL d   1     -58.664 -98.769 -45.392  0.00  0.00     0.018 A 
ATOM      9  C   UNL d   1     -59.593 -98.756 -44.035  0.00  0.00     0.002 A 
ATOM     10  C   UNL d   1     -59.486 -98.762 -45.458  0.00  0.00     0.002 A 
ATOM     11  C   UNL d   1     -59.949 -98.755 -44.778  0.00  0.00     0.000 A 
ENDROOT
BRANCH   2  12
ATOM     12  C   UNL d   1     -56.089 -98.790 -44.611  0.00  0.00     0.156 A 
ATOM     13  O   UNL d   1     -55.802 -98.823 -43.834  0.00  0.00    -0.300 OA
ATOM     14  C   UNL d   1     -54.985 -98.812 -43.865  0.00  0.00     0.123 A 
ATOM     15  C   UNL d   1     -54.754 -98.772 -44.647  0.00  0.00     0.029 A 
ATOM     16  C   UNL d   1     -55.430 -98.758 -45.115  0.00  0.00     0.032 A 
ENDBRANCH   2  12
TORSDOF 1
ENDMDL
MODEL 2
REMARK VINA RESULT:      19.7      0.637      1.391
REMARK  1 active torsions:
REMARK  status: ('A' for Active; 'I' for Inactive)
REMARK       I    between atoms: C_2  and  N_1 
REMARK    1  A    between atoms: C_4  and  C_2 
ROOT
ATOM      1  N   UNL d   1     -57.500 -98.789 -44.405  0.00  0.00    -0.272 N 
ATOM      2  C   UNL d   1     -56.808 -98.796 -43.951  0.00  0.00     0.287 C 
ATOM      3  C   UNL d   1     -58.276 -98.782 -44.119  0.00  0.00     0.067 A 
ATOM      4  C   UNL d   1     -57.517 -98.786 -45.213  0.00  0.00     0.083 A 
ATOM      5  O   UNL d   1     -56.858 -98.798 -43.127  0.00  0.00    -0.264 OA
ATOM      6  C   UNL d   1     -58.785 -98.776 -44.759  0.00  0.00     0.018 A 
ATOM      7  C   UNL d   1     -58.322 -98.778 -45.445  0.00  0.00     0.021 A 
ATOM      8  C   UNL d   1     -58.581 -98.782 -43.363  0.00  0.00     0.018 A 
ATOM      9  C   UNL d   1     -59.603 -98.768 -44.652  0.00  0.00     0.002 A 
ATOM     10  C   UNL d   1     -59.397 -98.774 -43.240  0.00  0.00     0.002 A 
ATOM     11  C   UNL d   1     -59.906 -98.768 -43.886  0.00  0.00     0.000 A 
ENDROOT
BRANCH   2  12
ATOM     12  C   UNL d   1     -56.068 -98.802 -44.322  0.00  0.00     0.156 A 
ATOM     13  O   UNL d   1     -55.835 -98.841 -45.116  0.00  0.00    -0.300 OA
ATOM     14  C   UNL d   1     -55.018 -98.827 -45.143  0.00  0.00     0.123 A 
ATOM     15  C   UNL d   1     -54.733 -98.779 -44.379  0.00  0.00     0.029 A 
ATOM     16  C   UNL d   1     -55.375 -98.764 -43.865  0.00  0.00     0.032 A 
ENDBRANCH   2  12
TORSDOF 1
ENDMDL
