MODEL 1
REMARK VINA RESULT:      45.0      0.000      0.000
REMARK  4 active torsions:
REMARK  status: ('A' for Active; 'I' for Inactive)
REMARK    1  A    between atoms: N_15  and  C_6 
REMARK    2  A    between atoms: N_14  and  C_19 
REMARK    3  A    between atoms: C_18  and  N_15 
REMARK    4  A    between atoms: C_19  and  C_18 
ROOT
ATOM      1  N   UNL d   1      14.631  13.548  -1.593  0.00  0.00    -0.183 N 
ATOM      2  C   UNL d   1      14.111  12.962  -1.850  0.00  0.00     0.169 A 
ATOM      3  C   UNL d   1      13.845  12.951  -2.618  0.00  0.00     0.073 A 
ATOM      4  C   UNL d   1      14.104  13.530  -3.129  0.00  0.00     0.185 A 
ATOM      5  N   UNL d   1      14.625  14.115  -2.871  0.00  0.00    -0.142 NA
ATOM      6  C   UNL d   1      14.885  13.542  -0.821  0.00  0.00     0.218 A 
ATOM      7  N   UNL d   1      13.858  12.386  -1.329  0.00  0.00    -0.226 NA
ATOM      8  C   UNL d   1      13.330  12.372  -2.873  0.00  0.00     0.007 A 
ATOM      9  N   UNL d   1      13.845  13.532  -3.911  0.00  0.00    -0.225 NA
ATOM     10  C   UNL d   1      14.638  12.975  -0.301  0.00  0.00     0.071 A 
ATOM     11  C   UNL d   1      13.065  12.361  -3.642  0.00  0.00     0.019 A 
ATOM     12  C   UNL d   1      14.117  12.389  -0.558  0.00  0.00     0.087 A 
ATOM     13  C   UNL d   1      13.324  12.946  -4.168  0.00  0.00     0.083 A 
ATOM     14  C   UNL d   1      13.077  11.794  -2.349  0.00  0.00     0.000 C 
ATOM     15  C   UNL d   1      13.856  11.792  -0.015  0.00  0.00     0.021 C 
ATOM     16  C   UNL d   1      13.064  12.942  -4.935  0.00  0.00     0.021 C 
ENDROOT
BRANCH   6  17
ATOM     17  N   UNL d   1      15.423  14.151  -0.563  0.00  0.00    -0.379 NA
BRANCH  17  18
ATOM     18  C   UNL d   1      15.782  14.874  -0.343  0.00  0.00     0.182 C 
BRANCH  18  19
ATOM     19  C   UNL d   1      15.287  15.540  -0.196  0.00  0.00     0.116 C 
BRANCH  19  20
ATOM     20  N   UNL d   1      15.395  16.246  -0.665  0.00  0.00    -0.297 N 
ATOM     21  C   UNL d   1      15.976  16.800  -0.447  0.00  0.00     0.107 A 
ATOM     22  C   UNL d   1      16.084  17.508  -0.918  0.00  0.00     0.142 A 
ATOM     23  O   UNL d   1      15.608  17.644  -1.598  0.00  0.00    -0.300 OA
ATOM     24  C   UNL d   1      15.017  17.075  -1.817  0.00  0.00     0.142 A 
ATOM     25  C   UNL d   1      14.907  16.372  -1.351  0.00  0.00     0.107 A 
ENDBRANCH  19  20
ENDBRANCH  18  19
ENDBRANCH  17  18
ENDBRANCH   6  17
TORSDOF 4
ENDMDL
