MODEL 1
REMARK VINA RESULT:      12.2      0.000      0.000
REMARK  4 active torsions:
REMARK  status: ('A' for Active; 'I' for Inactive)
REMARK    1  A    between atoms: C_4  and  C_10 
REMARK    2  A    between atoms: C_18  and  C_7 
REMARK       I    between atoms: C_10  and  N_17 
REMARK    3  A    between atoms: N_17  and  C_20 
REMARK    4  A    between atoms: C_20  and  C_18 
ROOT
ATOM      1  C   UNL d   1      46.090 -16.801  44.897  0.00  0.00     0.042 C 
ENDROOT
BRANCH   1   2
ATOM      2  C   UNL d   1      46.203 -17.443  44.382  0.00  0.00     0.102 A 
ATOM      3  N   UNL d   1      46.326 -18.220  44.608  0.00  0.00    -0.227 NA
ATOM      4  C   UNL d   1      46.412 -18.677  43.936  0.00  0.00     0.148 A 
ATOM      5  N   UNL d   1      46.343 -18.182  43.278  0.00  0.00    -0.288 N 
ATOM      6  C   UNL d   1      46.545 -19.483  43.820  0.00  0.00     0.035 A 
ATOM      7  C   UNL d   1      46.212 -17.413  43.559  0.00  0.00     0.101 A 
ATOM      8  C   UNL d   1      46.405 -18.485  42.516  0.00  0.00     0.082 A 
ATOM      9  C   UNL d   1      46.537 -19.286  42.407  0.00  0.00     0.019 A 
ATOM     10  C   UNL d   1      46.609 -19.794  43.063  0.00  0.00     0.004 A 
ATOM     11  C   UNL d   1      46.617 -19.993  44.477  0.00  0.00     0.003 C 
ENDBRANCH   1   2
BRANCH   1  12
ATOM     12  C   UNL d   1      45.721 -16.111  44.624  0.00  0.00     0.104 C 
BRANCH  12  13
ATOM     13  N   UNL d   1      44.936 -15.965  44.808  0.00  0.00    -0.205 NA
ATOM     14  C   UNL d   1      44.637 -15.194  44.767  0.00  0.00     0.302 C 
ATOM     15  O   UNL d   1      43.857 -15.055  44.952  0.00  0.00    -0.263 OA
BRANCH  14  16
ATOM     16  C   UNL d   1      45.135 -14.575  44.539  0.00  0.00     0.158 A 
ATOM     17  O   UNL d   1      45.667 -14.110  44.955  0.00  0.00    -0.296 OA
ATOM     18  C   UNL d   1      46.012 -13.573  44.430  0.00  0.00     0.134 A 
ATOM     19 BR   UNL d   1      46.579 -12.994  44.593  0.00  0.00    -0.022 Br
ATOM     20  C   UNL d   1      45.682 -13.721  43.698  0.00  0.00     0.034 A 
ATOM     21  C   UNL d   1      45.143 -14.333  43.751  0.00  0.00     0.032 A 
ENDBRANCH  14  16
ENDBRANCH  12  13
ENDBRANCH   1  12
TORSDOF 4
ENDMDL
MODEL 2
REMARK VINA RESULT:      14.0      2.142      4.765
REMARK  4 active torsions:
REMARK  status: ('A' for Active; 'I' for Inactive)
REMARK    1  A    between atoms: C_4  and  C_10 
REMARK    2  A    between atoms: C_18  and  C_7 
REMARK       I    between atoms: C_10  and  N_17 
REMARK    3  A    between atoms: N_17  and  C_20 
REMARK    4  A    between atoms: C_20  and  C_18 
ROOT
ATOM      1  C   UNL d   1      45.365 -16.454  43.799  0.00  0.00     0.042 C 
ENDROOT
BRANCH   1   2
ATOM      2  C   UNL d   1      45.528 -15.675  44.034  0.00  0.00     0.102 A 
ATOM      3  N   UNL d   1      45.045 -15.026  43.904  0.00  0.00    -0.227 NA
ATOM      4  C   UNL d   1      45.405 -14.365  44.221  0.00  0.00     0.148 A 
ATOM      5  N   UNL d   1      46.123 -14.598  44.555  0.00  0.00    -0.288 N 
ATOM      6  C   UNL d   1      45.184 -13.570  44.258  0.00  0.00     0.035 A 
ATOM      7  C   UNL d   1      46.197 -15.416  44.437  0.00  0.00     0.101 A 
ATOM      8  C   UNL d   1      46.615 -14.049  44.920  0.00  0.00     0.082 A 
ATOM      9  C   UNL d   1      46.390 -13.262  44.953  0.00  0.00     0.019 A 
ATOM     10  C   UNL d   1      45.669 -13.016  44.620  0.00  0.00     0.004 A 
ATOM     11  C   UNL d   1      44.459 -13.322  43.923  0.00  0.00     0.003 C 
ENDBRANCH   1   2
BRANCH   1  12
ATOM     12  C   UNL d   1      45.966 -17.025  43.814  0.00  0.00     0.104 C 
BRANCH  12  13
ATOM     13  N   UNL d   1      46.025 -17.541  44.449  0.00  0.00    -0.205 NA
ATOM     14  C   UNL d   1      46.228 -18.333  44.322  0.00  0.00     0.302 C 
ATOM     15  O   UNL d   1      46.286 -18.841  44.955  0.00  0.00    -0.263 OA
BRANCH  14  16
ATOM     16  C   UNL d   1      46.370 -18.599  43.552  0.00  0.00     0.158 A 
ATOM     17  O   UNL d   1      46.396 -18.214  42.828  0.00  0.00    -0.296 OA
ATOM     18  C   UNL d   1      46.563 -18.770  42.241  0.00  0.00     0.134 A 
ATOM     19 BR   UNL d   1      46.644 -18.644  41.428  0.00  0.00    -0.022 Br
ATOM     20  C   UNL d   1      46.638 -19.489  42.618  0.00  0.00     0.034 A 
ATOM     21  C   UNL d   1      46.522 -19.399  43.422  0.00  0.00     0.032 A 
ENDBRANCH  14  16
ENDBRANCH  12  13
ENDBRANCH   1  12
TORSDOF 4
ENDMDL
