MODEL 1
REMARK VINA RESULT:       2.0      0.000      0.000
REMARK  5 active torsions:
REMARK  status: ('A' for Active; 'I' for Inactive)
REMARK    1  A    between atoms: N_9  and  C_3 
REMARK    2  A    between atoms: C_13  and  C_5 
REMARK    3  A    between atoms: C_12  and  N_10 
REMARK    4  A    between atoms: C_20  and  C_11 
REMARK    5  A    between atoms: C_25  and  C_20 
ROOT
ATOM      1  N   UNL d   1     -41.907-122.430 -52.152  0.00  0.00    -0.196 N 
ATOM      2  C   UNL d   1     -41.822-122.127 -52.915  0.00  0.00     0.167 A 
ATOM      3  C   UNL d   1     -41.730-121.951 -51.529  0.00  0.00     0.152 A 
ATOM      4  N   UNL d   1     -42.335-123.653 -52.685  0.00  0.00    -0.163 NA
ATOM      5  C   UNL d   1     -41.993-122.585 -53.547  0.00  0.00     0.055 A 
ATOM      6  C   UNL d   1     -42.250-123.350 -53.448  0.00  0.00     0.104 A 
ATOM      7  N   UNL d   1     -41.564-121.362 -53.014  0.00  0.00    -0.227 NA
ATOM      8  C   UNL d   1     -41.476-121.200 -51.617  0.00  0.00     0.057 A 
ATOM      9  C   UNL d   1     -41.391-120.897 -52.379  0.00  0.00     0.086 A 
ATOM     10  C   UNL d   1     -42.424-123.816 -54.079  0.00  0.00     0.023 C 
ENDROOT
BRANCH   3  11
ATOM     11  N   UNL d   1     -41.817-122.264 -50.742  0.00  0.00    -0.286 N 
ATOM     12  C   UNL d   1     -41.144-122.525 -50.311  0.00  0.00     0.101 A 
ATOM     13  C   UNL d   1     -41.231-122.837 -49.524  0.00  0.00     0.101 A 
ATOM     14  N   UNL d   1     -41.992-122.887 -49.169  0.00  0.00    -0.286 N 
ATOM     15  C   UNL d   1     -42.683-122.623 -49.601  0.00  0.00     0.101 A 
ATOM     16  C   UNL d   1     -42.595-122.311 -50.388  0.00  0.00     0.101 A 
BRANCH  14  17
ATOM     17  C   UNL d   1     -42.080-123.198 -48.386  0.00  0.00     0.148 A 
ATOM     18  N   UNL d   1     -41.384-123.411 -47.942  0.00  0.00    -0.227 NA
ATOM     19  C   UNL d   1     -41.471-123.721 -47.160  0.00  0.00     0.101 A 
ATOM     20  C   UNL d   1     -42.253-123.817 -46.825  0.00  0.00     0.021 A 
ATOM     21  C   UNL d   1     -42.931-123.604 -47.271  0.00  0.00     0.005 A 
ATOM     22  C   UNL d   1     -42.844-123.292 -48.057  0.00  0.00     0.037 A 
ENDBRANCH  14  17
ENDBRANCH   3  11
BRANCH   9  23
ATOM     23  C   UNL d   1     -41.123-120.101 -52.489  0.00  0.00     0.019 C 
BRANCH  23  24
ATOM     24  C   UNL d   1     -41.123-119.548 -51.838  0.00  0.00     0.002 C 
ATOM     25  C   UNL d   1     -41.132-118.722 -51.984  0.00  0.00     0.000 C 
ENDBRANCH  23  24
ENDBRANCH   9  23
BRANCH   5  26
ATOM     26  C   UNL d   1     -41.909-122.287 -54.298  0.00  0.00     0.004 A 
ATOM     27  C   UNL d   1     -41.278-122.525 -54.754  0.00  0.00     0.000 A 
ATOM     28  C   UNL d   1     -41.193-122.222 -55.517  0.00  0.00     0.000 A 
ATOM     29  C   UNL d   1     -41.742-121.692 -55.800  0.00  0.00     0.000 A 
ATOM     30  C   UNL d   1     -42.370-121.461 -55.332  0.00  0.00     0.000 A 
ATOM     31  C   UNL d   1     -42.454-121.759 -54.582  0.00  0.00     0.000 A 
ENDBRANCH   5  26
TORSDOF 5
ENDMDL
