MODEL 1
REMARK VINA RESULT:      -5.5      0.000      0.000
REMARK  4 active torsions:
REMARK  status: ('A' for Active; 'I' for Inactive)
REMARK    1  A    between atoms: C_2  and  C_1 
REMARK    2  A    between atoms: C_6  and  C_2 
REMARK    3  A    between atoms: C_9  and  C_6 
REMARK    4  A    between atoms: O_18  and  C_12 
ROOT
ATOM      1  C   UNL d   1      57.174  -0.084  31.291  0.00  0.00     0.199 C 
ATOM      2  O   UNL d   1      57.338  -0.801  31.009  0.00  0.00    -0.286 OA
ENDROOT
BRANCH   1   3
ATOM      3  C   UNL d   1      56.600  -0.087  31.993  0.00  0.00     0.078 A 
ATOM      4  C   UNL d   1      56.366  -0.825  32.278  0.00  0.00     0.202 A 
ATOM      5  C   UNL d   1      55.809  -0.852  32.959  0.00  0.00     0.084 A 
ATOM      6  O   UNL d   1      56.646  -1.517  31.935  0.00  0.00    -0.286 OA
ATOM      7  C   UNL d   1      55.528  -0.132  33.302  0.00  0.00     0.199 A 
ATOM      8  C   UNL d   1      55.779   0.583  32.997  0.00  0.00     0.042 A 
ATOM      9  O   UNL d   1      54.987  -0.175  33.963  0.00  0.00    -0.286 OA
ATOM     10  C   UNL d   1      56.326   0.616  32.329  0.00  0.00     0.010 A 
ENDBRANCH   1   3
BRANCH   1  11
ATOM     11  C   UNL d   1      57.436   0.543  31.043  0.00  0.00     0.042 C 
BRANCH  11  12
ATOM     12  C   UNL d   1      58.028   0.531  30.498  0.00  0.00     0.003 A 
ATOM     13  C   UNL d   1      57.858   0.495  29.715  0.00  0.00     0.002 A 
ATOM     14  C   UNL d   1      58.477   0.483  29.142  0.00  0.00     0.024 A 
ATOM     15  C   UNL d   1      59.266   0.508  29.366  0.00  0.00     0.094 A 
ATOM     16  C   UNL d   1      59.443   0.545  30.156  0.00  0.00     0.024 A 
ATOM     17  C   UNL d   1      58.852   0.557  30.726  0.00  0.00     0.002 A 
BRANCH  15  18
ATOM     18  O   UNL d   1      59.895   0.497  28.788  0.00  0.00    -0.328 OA
ATOM     19  C   UNL d   1      60.146  -0.211  28.456  0.00  0.00     0.181 C 
ENDBRANCH  15  18
ENDBRANCH  11  12
ENDBRANCH   1  11
TORSDOF 4
ENDMDL
MODEL 2
REMARK VINA RESULT:      -5.1      0.841      4.464
REMARK  4 active torsions:
REMARK  status: ('A' for Active; 'I' for Inactive)
REMARK    1  A    between atoms: C_2  and  C_1 
REMARK    2  A    between atoms: C_6  and  C_2 
REMARK    3  A    between atoms: C_9  and  C_6 
REMARK    4  A    between atoms: O_18  and  C_12 
ROOT
ATOM      1  C   UNL d   1      57.583   0.308  30.744  0.00  0.00     0.199 C 
ATOM      2  O   UNL d   1      56.932   0.682  30.503  0.00  0.00    -0.286 OA
ENDROOT
BRANCH   1   3
ATOM      3  C   UNL d   1      58.290   0.401  30.184  0.00  0.00     0.078 A 
ATOM      4  C   UNL d   1      58.120   0.587  29.399  0.00  0.00     0.202 A 
ATOM      5  C   UNL d   1      58.791   0.682  28.837  0.00  0.00     0.084 A 
ATOM      6  O   UNL d   1      57.343   0.682  29.147  0.00  0.00    -0.286 OA
ATOM      7  C   UNL d   1      59.585   0.582  29.109  0.00  0.00     0.199 A 
ATOM      8  C   UNL d   1      59.721   0.397  29.894  0.00  0.00     0.042 A 
ATOM      9  O   UNL d   1      60.226   0.677  28.552  0.00  0.00    -0.286 OA
ATOM     10  C   UNL d   1      59.066   0.303  30.450  0.00  0.00     0.010 A 
ENDBRANCH   1   3
BRANCH   1  11
ATOM     11  C   UNL d   1      57.651  -0.083  31.348  0.00  0.00     0.042 C 
BRANCH  11  12
ATOM     12  C   UNL d   1      57.030  -0.128  31.858  0.00  0.00     0.003 A 
ATOM     13  C   UNL d   1      56.661  -0.829  31.987  0.00  0.00     0.002 A 
ATOM     14  C   UNL d   1      56.010  -0.878  32.522  0.00  0.00     0.024 A 
ATOM     15  C   UNL d   1      55.736  -0.217  32.922  0.00  0.00     0.094 A 
ATOM     16  C   UNL d   1      56.106   0.493  32.794  0.00  0.00     0.024 A 
ATOM     17  C   UNL d   1      56.740   0.558  32.278  0.00  0.00     0.002 A 
BRANCH  15  18
ATOM     18  O   UNL d   1      55.077  -0.264  33.463  0.00  0.00    -0.328 OA
ATOM     19  C   UNL d   1      54.893   0.367  33.955  0.00  0.00     0.181 C 
ENDBRANCH  15  18
ENDBRANCH  11  12
ENDBRANCH   1  11
TORSDOF 4
ENDMDL
MODEL 3
REMARK VINA RESULT:      -4.9      1.187      4.627
REMARK  4 active torsions:
REMARK  status: ('A' for Active; 'I' for Inactive)
REMARK    1  A    between atoms: C_2  and  C_1 
REMARK    2  A    between atoms: C_6  and  C_2 
REMARK    3  A    between atoms: C_9  and  C_6 
REMARK    4  A    between atoms: O_18  and  C_12 
ROOT
ATOM      1  C   UNL d   1      56.745  -0.030  32.279  0.00  0.00     0.199 C 
ATOM      2  O   UNL d   1      56.784  -0.700  32.691  0.00  0.00    -0.286 OA
ENDROOT
BRANCH   1   3
ATOM      3  C   UNL d   1      57.245  -0.032  31.522  0.00  0.00     0.078 A 
ATOM      4  C   UNL d   1      57.301  -0.749  31.118  0.00  0.00     0.202 A 
ATOM      5  C   UNL d   1      57.781  -0.775  30.380  0.00  0.00     0.084 A 
ATOM      6  O   UNL d   1      56.919  -1.422  31.396  0.00  0.00    -0.286 OA
ATOM      7  C   UNL d   1      58.169  -0.076  30.105  0.00  0.00     0.199 A 
ATOM      8  C   UNL d   1      58.093   0.618  30.528  0.00  0.00     0.042 A 
ATOM      9  O   UNL d   1      58.631  -0.118  29.387  0.00  0.00    -0.286 OA
ATOM     10  C   UNL d   1      57.623   0.650  31.253  0.00  0.00     0.010 A 
ENDBRANCH   1   3
BRANCH   1  11
ATOM     11  C   UNL d   1      56.359   0.556  32.454  0.00  0.00     0.042 C 
BRANCH  11  12
ATOM     12  C   UNL d   1      55.992   0.585  33.169  0.00  0.00     0.003 A 
ATOM     13  C   UNL d   1      56.423   0.648  33.843  0.00  0.00     0.002 A 
ATOM     14  C   UNL d   1      56.040   0.678  34.595  0.00  0.00     0.024 A 
ATOM     15  C   UNL d   1      55.223   0.645  34.659  0.00  0.00     0.094 A 
ATOM     16  C   UNL d   1      54.784   0.582  33.980  0.00  0.00     0.024 A 
ATOM     17  C   UNL d   1      55.140   0.551  33.242  0.00  0.00     0.002 A 
BRANCH  15  18
ATOM     18  O   UNL d   1      54.833   0.676  35.418  0.00  0.00    -0.328 OA
ATOM     19  C   UNL d   1      55.270   0.682  36.114  0.00  0.00     0.181 C 
ENDBRANCH  15  18
ENDBRANCH  11  12
ENDBRANCH   1  11
TORSDOF 4
ENDMDL
MODEL 4
REMARK VINA RESULT:      -4.7      1.225      1.683
REMARK  4 active torsions:
REMARK  status: ('A' for Active; 'I' for Inactive)
REMARK    1  A    between atoms: C_2  and  C_1 
REMARK    2  A    between atoms: C_6  and  C_2 
REMARK    3  A    between atoms: C_9  and  C_6 
REMARK    4  A    between atoms: O_18  and  C_12 
ROOT
ATOM      1  C   UNL d   1      56.920   0.395  32.462  0.00  0.00     0.199 C 
ATOM      2  O   UNL d   1      57.666   0.581  32.634  0.00  0.00    -0.286 OA
ENDROOT
BRANCH   1   3
ATOM      3  C   UNL d   1      56.352   0.466  33.165  0.00  0.00     0.078 A 
ATOM      4  C   UNL d   1      56.691   0.609  33.904  0.00  0.00     0.202 A 
ATOM      5  C   UNL d   1      56.159   0.682  34.601  0.00  0.00     0.084 A 
ATOM      6  O   UNL d   1      57.506   0.682  33.986  0.00  0.00    -0.286 OA
ATOM      7  C   UNL d   1      55.323   0.605  34.502  0.00  0.00     0.199 A 
ATOM      8  C   UNL d   1      55.017   0.464  33.758  0.00  0.00     0.042 A 
ATOM      9  O   UNL d   1      54.819   0.678  35.189  0.00  0.00    -0.286 OA
ATOM     10  C   UNL d   1      55.535   0.391  33.069  0.00  0.00     0.010 A 
ENDBRANCH   1   3
BRANCH   1  11
ATOM     11  C   UNL d   1      56.670   0.184  31.817  0.00  0.00     0.042 C 
BRANCH  11  12
ATOM     12  C   UNL d   1      57.190   0.062  31.216  0.00  0.00     0.003 A 
ATOM     13  C   UNL d   1      57.469   0.682  30.790  0.00  0.00     0.002 A 
ATOM     14  C   UNL d   1      58.015   0.556  30.158  0.00  0.00     0.024 A 
ATOM     15  C   UNL d   1      58.276  -0.196  29.963  0.00  0.00     0.094 A 
ATOM     16  C   UNL d   1      57.997  -0.825  30.392  0.00  0.00     0.024 A 
ATOM     17  C   UNL d   1      57.466  -0.721  31.008  0.00  0.00     0.002 A 
BRANCH  15  18
ATOM     18  O   UNL d   1      58.828  -0.326  29.325  0.00  0.00    -0.328 OA
ATOM     19  C   UNL d   1      58.613  -0.175  28.547  0.00  0.00     0.181 C 
ENDBRANCH  15  18
ENDBRANCH  11  12
ENDBRANCH   1  11
TORSDOF 4
ENDMDL
