MODEL 1
REMARK VINA RESULT:      44.6      0.000      0.000
REMARK  7 active torsions:
REMARK  status: ('A' for Active; 'I' for Inactive)
REMARK    1  A    between atoms: N_6  and  C_1 
REMARK    2  A    between atoms: N_8  and  C_2 
REMARK    3  A    between atoms: N_10  and  C_7 
REMARK    4  A    between atoms: C_13  and  N_8 
REMARK    5  A    between atoms: C_14  and  N_10 
REMARK    6  A    between atoms: C_15  and  C_13 
REMARK    7  A    between atoms: C_16  and  C_14 
ROOT
ATOM      1  C   UNL d   1     -58.511 -98.977 -44.375  0.00  0.00     0.201 A 
ATOM      2  C   UNL d   1     -58.384 -98.872 -45.187  0.00  0.00     0.206 A 
ATOM      3  N   UNL d   1     -57.612 -98.882 -45.480  0.00  0.00    -0.038 NA
ATOM      4  N   UNL d   1     -57.103 -99.098 -44.165  0.00  0.00    -0.036 NA
ATOM      5  C   UNL d   1     -57.872 -99.090 -43.865  0.00  0.00     0.227 A 
ATOM      6  C   UNL d   1     -56.973 -98.995 -44.970  0.00  0.00     0.753 A 
ATOM      7  N   UNL d   1     -58.014 -99.194 -43.045  0.00  0.00    -0.125 N 
ENDROOT
BRANCH   2   8
ATOM      8  N   UNL d   1     -59.038 -98.757 -45.709  0.00  0.00    -0.223 NA
BRANCH   8   9
ATOM      9  C   UNL d   1     -59.270 -99.361 -46.216  0.00  0.00     0.101 C 
BRANCH   9  10
ATOM     10  C   UNL d   1     -59.281 -99.233 -47.031  0.00  0.00     0.019 A 
ATOM     11  C   UNL d   1     -58.630 -98.889 -47.401  0.00  0.00     0.002 A 
ATOM     12  C   UNL d   1     -58.640 -98.760 -48.220  0.00  0.00     0.000 A 
ATOM     13  C   UNL d   1     -59.302 -98.978 -48.662  0.00  0.00     0.000 A 
ATOM     14  C   UNL d   1     -59.950 -99.322 -48.291  0.00  0.00     0.000 A 
ATOM     15  C   UNL d   1     -59.940 -99.450 -47.472  0.00  0.00     0.002 A 
ENDBRANCH   9  10
ENDBRANCH   8   9
ENDBRANCH   2   8
BRANCH   1  16
ATOM     16  N   UNL d   1     -59.307 -98.966 -44.077  0.00  0.00    -0.107 N 
ATOM     17  O   UNL d   1     -59.431 -99.027 -43.265  0.00  0.00    -0.531 OA
ATOM     18  O   UNL d   1     -59.952 -98.896 -44.594  0.00  0.00    -0.531 OA
ENDBRANCH   1  16
BRANCH   6  19
ATOM     19  N   UNL d   1     -56.205 -99.003 -45.270  0.00  0.00    -0.058 NA
BRANCH  19  20
ATOM     20  C   UNL d   1     -55.560 -99.046 -44.751  0.00  0.00     0.118 C 
BRANCH  20  21
ATOM     21  C   UNL d   1     -55.278 -99.782 -44.508  0.00  0.00     0.020 A 
ATOM     22  C   UNL d   1     -55.085-100.352 -45.062  0.00  0.00     0.002 A 
ATOM     23  C   UNL d   1     -54.803-101.087 -44.818  0.00  0.00     0.000 A 
ATOM     24  C   UNL d   1     -54.715-101.247 -44.014  0.00  0.00     0.000 A 
ATOM     25  C   UNL d   1     -54.911-100.671 -43.457  0.00  0.00     0.000 A 
ATOM     26  C   UNL d   1     -55.190 -99.942 -43.703  0.00  0.00     0.002 A 
ENDBRANCH  20  21
ENDBRANCH  19  20
ENDBRANCH   6  19
TORSDOF 7
ENDMDL
