MODEL 1
REMARK VINA RESULT:      -3.8      0.000      0.000
REMARK  5 active torsions:
REMARK  status: ('A' for Active; 'I' for Inactive)
REMARK    1  A    between atoms: S_9  and  C_2 
REMARK    2  A    between atoms: C_7  and  C_18 
REMARK       I    between atoms: N_13  and  C_7 
REMARK    3  A    between atoms: C_18  and  S_9 
REMARK    4  A    between atoms: C_20  and  N_13 
REMARK    5  A    between atoms: C_19  and  C_20 
ROOT
ATOM      1  C   UNL d   1      56.574  -0.674  32.294  0.00  0.00     0.286 C 
ATOM      2  N   UNL d   1      56.962  -0.667  31.562  0.00  0.00    -0.206 NA
ATOM      3  O   UNL d   1      56.214  -1.367  32.565  0.00  0.00    -0.265 OA
ENDROOT
BRANCH   2   4
ATOM      4  C   UNL d   1      57.330   0.036  31.282  0.00  0.00     0.102 C 
BRANCH   4   5
ATOM      5  C   UNL d   1      57.756   0.025  30.559  0.00  0.00     0.021 A 
ATOM      6  C   UNL d   1      58.191  -0.648  30.336  0.00  0.00     0.028 A 
ATOM      7  C   UNL d   1      58.608  -0.645  29.616  0.00  0.00     0.119 A 
ATOM      8  O   UNL d   1      59.074  -1.205  29.253  0.00  0.00    -0.300 OA
ATOM      9  C   UNL d   1      58.586   0.023  29.133  0.00  0.00     0.119 A 
ATOM     10  C   UNL d   1      59.349  -0.907  28.547  0.00  0.00     0.304 A 
ATOM     11  O   UNL d   1      59.038  -0.129  28.473  0.00  0.00    -0.300 OA
ATOM     12  C   UNL d   1      58.152   0.682  29.363  0.00  0.00     0.026 A 
ATOM     13  C   UNL d   1      57.735   0.675  30.085  0.00  0.00     0.004 A 
ENDBRANCH   4   5
ENDBRANCH   2   4
BRANCH   1  14
ATOM     14  C   UNL d   1      56.553   0.018  32.743  0.00  0.00     0.101 C 
BRANCH  14  15
ATOM     15  S   UNL d   1      57.219   0.298  33.142  0.00  0.00    -0.041 SA
BRANCH  15  16
ATOM     16  C   UNL d   1      56.416   0.415  33.256  0.00  0.00     0.233 A 
ATOM     17  N   UNL d   1      55.994   0.350  33.977  0.00  0.00    -0.029 NA
ATOM     18  C   UNL d   1      55.206   0.516  33.822  0.00  0.00     0.788 A 
ATOM     19  N   UNL d   1      55.125   0.682  33.028  0.00  0.00     0.050 NA
ATOM     20  N   UNL d   1      54.591   0.515  34.383  0.00  0.00     0.064 N 
ATOM     21  N   UNL d   1      55.858   0.625  32.664  0.00  0.00    -0.105 NA
ENDBRANCH  15  16
ENDBRANCH  14  15
ENDBRANCH   1  14
TORSDOF 5
ENDMDL
MODEL 2
REMARK VINA RESULT:      -2.5      9.073      9.726
REMARK  5 active torsions:
REMARK  status: ('A' for Active; 'I' for Inactive)
REMARK    1  A    between atoms: S_9  and  C_2 
REMARK    2  A    between atoms: C_7  and  C_18 
REMARK       I    between atoms: N_13  and  C_7 
REMARK    3  A    between atoms: C_18  and  S_9 
REMARK    4  A    between atoms: C_20  and  N_13 
REMARK    5  A    between atoms: C_19  and  C_20 
ROOT
ATOM      1  C   UNL d   1      59.863  -9.398  35.167  0.00  0.00     0.286 C 
ATOM      2  N   UNL d   1      59.664  -9.597  34.387  0.00  0.00    -0.206 NA
ATOM      3  O   UNL d   1      60.461  -9.812  35.560  0.00  0.00    -0.265 OA
ENDROOT
BRANCH   2   4
ATOM      4  C   UNL d   1      59.056  -9.178  33.983  0.00  0.00     0.102 C 
BRANCH   4   5
ATOM      5  C   UNL d   1      58.905  -9.340  33.174  0.00  0.00     0.021 A 
ATOM      6  C   UNL d   1      58.124  -9.409  32.895  0.00  0.00     0.028 A 
ATOM      7  C   UNL d   1      57.989  -9.570  32.091  0.00  0.00     0.119 A 
ATOM      8  O   UNL d   1      57.305  -9.667  31.661  0.00  0.00    -0.300 OA
ATOM      9  C   UNL d   1      58.629  -9.660  31.579  0.00  0.00     0.119 A 
ATOM     10  C   UNL d   1      57.495  -9.817  30.884  0.00  0.00     0.304 A 
ATOM     11  O   UNL d   1      58.336  -9.812  30.834  0.00  0.00    -0.300 OA
ATOM     12  C   UNL d   1      59.396  -9.590  31.865  0.00  0.00     0.026 A 
ATOM     13  C   UNL d   1      59.527  -9.429  32.671  0.00  0.00     0.004 A 
ENDBRANCH   4   5
ENDBRANCH   2   4
BRANCH   1  14
ATOM     14  C   UNL d   1      59.455  -8.785  35.540  0.00  0.00     0.101 C 
BRANCH  14  15
ATOM     15  S   UNL d   1      58.798  -8.926  36.017  0.00  0.00    -0.041 SA
BRANCH  15  16
ATOM     16  C   UNL d   1      59.360  -8.330  36.013  0.00  0.00     0.233 A 
ATOM     17  N   UNL d   1      59.222  -7.507  35.953  0.00  0.00    -0.029 NA
ATOM     18  C   UNL d   1      59.949  -7.128  35.973  0.00  0.00     0.788 A 
ATOM     19  N   UNL d   1      60.535  -7.691  36.043  0.00  0.00     0.050 NA
ATOM     20  N   UNL d   1      60.069  -6.306  35.928  0.00  0.00     0.064 N 
ATOM     21  N   UNL d   1      60.192  -8.436  36.070  0.00  0.00    -0.105 NA
ENDBRANCH  15  16
ENDBRANCH  14  15
ENDBRANCH   1  14
TORSDOF 5
ENDMDL
