MODEL 1
REMARK VINA RESULT:      -7.2      0.000      0.000
REMARK  5 active torsions:
REMARK  status: ('A' for Active; 'I' for Inactive)
REMARK    1  A    between atoms: C_5  and  S_1 
REMARK    2  A    between atoms: C_12  and  S_1 
REMARK    3  A    between atoms: C_2  and  N_6 
REMARK    4  A    between atoms: C_13  and  C_4 
REMARK    5  A    between atoms: C_7  and  C_5 
REMARK       I    between atoms: N_6  and  C_7 
ROOT
ATOM      1  N   UNL d   1     -46.931  13.311  23.302  0.00  0.00    -0.182 NA
ATOM      2  C   UNL d   1     -47.488  13.463  22.713  0.00  0.00     0.293 C 
ATOM      3  O   UNL d   1     -47.739  12.873  22.202  0.00  0.00    -0.264 OA
ENDROOT
BRANCH   1   4
ATOM      4  C   UNL d   1     -46.619  12.555  23.381  0.00  0.00     0.197 A 
ATOM      5  N   UNL d   1     -45.818  12.346  23.273  0.00  0.00    -0.221 NA
ATOM      6  C   UNL d   1     -45.745  11.525  23.406  0.00  0.00     0.090 A 
ATOM      7  C   UNL d   1     -46.512  11.233  23.596  0.00  0.00     0.058 A 
ATOM      8  S   UNL d   1     -47.041  11.873  23.578  0.00  0.00    -0.046 SA
BRANCH   6   9
ATOM      9  C   UNL d   1     -45.050  11.082  23.360  0.00  0.00     0.018 A 
ATOM     10  C   UNL d   1     -45.024  10.337  23.687  0.00  0.00     0.004 A 
ATOM     11  C   UNL d   1     -44.341   9.891  23.647  0.00  0.00     0.030 A 
ATOM     12  C   UNL d   1     -43.672  10.197  23.271  0.00  0.00     0.140 A 
ATOM     13  C   UNL d   1     -43.695  10.953  22.938  0.00  0.00     0.030 A 
ATOM     14  F   UNL d   1     -42.976   9.751  23.226  0.00  0.00    -0.204 F 
ATOM     15  C   UNL d   1     -44.390  11.396  22.984  0.00  0.00     0.004 A 
ENDBRANCH   6   9
ENDBRANCH   1   4
BRANCH   2  16
ATOM     16  C   UNL d   1     -47.802  14.226  22.634  0.00  0.00     0.161 C 
BRANCH  16  17
ATOM     17  S   UNL d   1     -48.617  14.330  22.523  0.00  0.00     0.215 S 
ATOM     18  O   UNL d   1     -48.676  14.643  23.299  0.00  0.00    -0.217 OA
ATOM     19  O   UNL d   1     -48.552  14.020  21.758  0.00  0.00    -0.217 OA
BRANCH  17  20
ATOM     20  C   UNL d   1     -49.431  14.434  22.413  0.00  0.00     0.088 A 
ATOM     21  C   UNL d   1     -49.856  14.912  22.922  0.00  0.00     0.011 A 
ATOM     22  C   UNL d   1     -50.671  15.016  22.811  0.00  0.00     0.001 A 
ATOM     23  C   UNL d   1     -51.046  14.636  22.188  0.00  0.00     0.000 A 
ATOM     24  C   UNL d   1     -50.621  14.158  21.679  0.00  0.00     0.001 A 
ATOM     25  C   UNL d   1     -49.814  14.052  21.785  0.00  0.00     0.011 A 
ENDBRANCH  17  20
ENDBRANCH  16  17
ENDBRANCH   2  16
TORSDOF 5
ENDMDL
MODEL 2
REMARK VINA RESULT:      -6.9      8.057      9.480
REMARK  5 active torsions:
REMARK  status: ('A' for Active; 'I' for Inactive)
REMARK    1  A    between atoms: C_5  and  S_1 
REMARK    2  A    between atoms: C_12  and  S_1 
REMARK    3  A    between atoms: C_2  and  N_6 
REMARK    4  A    between atoms: C_13  and  C_4 
REMARK    5  A    between atoms: C_7  and  C_5 
REMARK       I    between atoms: N_6  and  C_7 
ROOT
ATOM      1  N   UNL d   1     -40.633  14.714  19.173  0.00  0.00    -0.182 NA
ATOM      2  C   UNL d   1     -40.190  15.102  18.596  0.00  0.00     0.293 C 
ATOM      3  O   UNL d   1     -39.592  15.625  18.798  0.00  0.00    -0.264 OA
ENDROOT
BRANCH   1   4
ATOM      4  C   UNL d   1     -40.475  14.853  19.967  0.00  0.00     0.197 A 
ATOM      5  N   UNL d   1     -39.872  14.488  20.414  0.00  0.00    -0.221 NA
ATOM      6  C   UNL d   1     -39.908  14.789  21.192  0.00  0.00     0.090 A 
ATOM      7  C   UNL d   1     -40.542  15.343  21.217  0.00  0.00     0.058 A 
ATOM      8  S   UNL d   1     -40.883  15.375  20.460  0.00  0.00    -0.046 SA
BRANCH   6   9
ATOM      9  C   UNL d   1     -39.414  14.581  21.820  0.00  0.00     0.018 A 
ATOM     10  C   UNL d   1     -39.340  13.799  22.033  0.00  0.00     0.004 A 
ATOM     11  C   UNL d   1     -38.853  13.583  22.653  0.00  0.00     0.030 A 
ATOM     12  C   UNL d   1     -38.435  14.162  23.067  0.00  0.00     0.140 A 
ATOM     13  C   UNL d   1     -38.508  14.958  22.854  0.00  0.00     0.030 A 
ATOM     14  F   UNL d   1     -37.940  13.951  23.696  0.00  0.00    -0.204 F 
ATOM     15  C   UNL d   1     -39.002  15.166  22.226  0.00  0.00     0.004 A 
ENDBRANCH   6   9
ENDBRANCH   1   4
BRANCH   2  16
ATOM     16  C   UNL d   1     -40.349  14.961  17.794  0.00  0.00     0.161 C 
BRANCH  16  17
ATOM     17  S   UNL d   1     -39.747  14.693  17.292  0.00  0.00     0.215 S 
ATOM     18  O   UNL d   1     -39.483  15.484  17.197  0.00  0.00    -0.217 OA
ATOM     19  O   UNL d   1     -40.012  13.915  17.390  0.00  0.00    -0.217 OA
BRANCH  17  20
ATOM     20  C   UNL d   1     -39.145  14.425  16.790  0.00  0.00     0.088 A 
ATOM     21  C   UNL d   1     -38.825  14.927  16.230  0.00  0.00     0.011 A 
ATOM     22  C   UNL d   1     -38.223  14.659  15.728  0.00  0.00     0.001 A 
ATOM     23  C   UNL d   1     -37.951  13.888  15.797  0.00  0.00     0.000 A 
ATOM     24  C   UNL d   1     -38.271  13.386  16.358  0.00  0.00     0.001 A 
ATOM     25  C   UNL d   1     -38.867  13.648  16.858  0.00  0.00     0.011 A 
ENDBRANCH  17  20
ENDBRANCH  16  17
ENDBRANCH   2  16
TORSDOF 5
ENDMDL
MODEL 3
REMARK VINA RESULT:      -6.6      1.485      1.790
REMARK  5 active torsions:
REMARK  status: ('A' for Active; 'I' for Inactive)
REMARK    1  A    between atoms: C_5  and  S_1 
REMARK    2  A    between atoms: C_12  and  S_1 
REMARK    3  A    between atoms: C_2  and  N_6 
REMARK    4  A    between atoms: C_13  and  C_4 
REMARK    5  A    between atoms: C_7  and  C_5 
REMARK       I    between atoms: N_6  and  C_7 
ROOT
ATOM      1  N   UNL d   1     -47.519  12.536  23.698  0.00  0.00    -0.182 NA
ATOM      2  C   UNL d   1     -48.216  12.310  23.321  0.00  0.00     0.293 C 
ATOM      3  O   UNL d   1     -48.210  11.783  22.693  0.00  0.00    -0.264 OA
ENDROOT
BRANCH   1   4
ATOM      4  C   UNL d   1     -46.801  12.228  23.441  0.00  0.00     0.197 A 
ATOM      5  N   UNL d   1     -46.224  12.642  23.002  0.00  0.00    -0.221 NA
ATOM      6  C   UNL d   1     -45.586  12.123  22.860  0.00  0.00     0.090 A 
ATOM      7  C   UNL d   1     -45.778  11.386  23.218  0.00  0.00     0.058 A 
ATOM      8  S   UNL d   1     -46.526  11.461  23.572  0.00  0.00    -0.046 SA
BRANCH   6   9
ATOM      9  C   UNL d   1     -44.894  12.300  22.445  0.00  0.00     0.018 A 
ATOM     10  C   UNL d   1     -44.223  11.857  22.572  0.00  0.00     0.004 A 
ATOM     11  C   UNL d   1     -43.534  12.025  22.167  0.00  0.00     0.030 A 
ATOM     12  C   UNL d   1     -43.518  12.648  21.625  0.00  0.00     0.140 A 
ATOM     13  C   UNL d   1     -44.198  13.100  21.493  0.00  0.00     0.030 A 
ATOM     14  F   UNL d   1     -42.823  12.824  21.210  0.00  0.00    -0.204 F 
ATOM     15  C   UNL d   1     -44.889  12.922  21.908  0.00  0.00     0.004 A 
ENDBRANCH   6   9
ENDBRANCH   1   4
BRANCH   2  16
ATOM     16  C   UNL d   1     -48.940  12.620  23.580  0.00  0.00     0.161 C 
BRANCH  16  17
ATOM     17  S   UNL d   1     -49.469  12.951  23.035  0.00  0.00     0.215 S 
ATOM     18  O   UNL d   1     -49.864  12.213  22.980  0.00  0.00    -0.217 OA
ATOM     19  O   UNL d   1     -49.074  13.677  23.092  0.00  0.00    -0.217 OA
BRANCH  17  20
ATOM     20  C   UNL d   1     -49.998  13.281  22.489  0.00  0.00     0.088 A 
ATOM     21  C   UNL d   1     -49.985  14.086  22.342  0.00  0.00     0.011 A 
ATOM     22  C   UNL d   1     -50.514  14.416  21.797  0.00  0.00     0.001 A 
ATOM     23  C   UNL d   1     -51.048  13.931  21.406  0.00  0.00     0.000 A 
ATOM     24  C   UNL d   1     -51.061  13.127  21.553  0.00  0.00     0.001 A 
ATOM     25  C   UNL d   1     -50.539  12.795  22.093  0.00  0.00     0.011 A 
ENDBRANCH  17  20
ENDBRANCH  16  17
ENDBRANCH   2  16
TORSDOF 5
ENDMDL
MODEL 4
REMARK VINA RESULT:      -6.5      8.244      9.716
REMARK  5 active torsions:
REMARK  status: ('A' for Active; 'I' for Inactive)
REMARK    1  A    between atoms: C_5  and  S_1 
REMARK    2  A    between atoms: C_12  and  S_1 
REMARK    3  A    between atoms: C_2  and  N_6 
REMARK    4  A    between atoms: C_13  and  C_4 
REMARK    5  A    between atoms: C_7  and  C_5 
REMARK       I    between atoms: N_6  and  C_7 
ROOT
ATOM      1  N   UNL d   1     -40.424  15.109  19.658  0.00  0.00    -0.182 NA
ATOM      2  C   UNL d   1     -39.945  15.361  20.280  0.00  0.00     0.293 C 
ATOM      3  O   UNL d   1     -39.203  15.680  20.143  0.00  0.00    -0.264 OA
ENDROOT
BRANCH   1   4
ATOM      4  C   UNL d   1     -40.154  15.177  18.884  0.00  0.00     0.197 A 
ATOM      5  N   UNL d   1     -39.731  14.593  18.464  0.00  0.00    -0.221 NA
ATOM      6  C   UNL d   1     -39.567  14.891  17.701  0.00  0.00     0.090 A 
ATOM      7  C   UNL d   1     -39.897  15.665  17.659  0.00  0.00     0.058 A 
ATOM      8  S   UNL d   1     -40.255  15.831  18.391  0.00  0.00    -0.046 SA
BRANCH   6   9
ATOM      9  C   UNL d   1     -39.159  14.499  17.100  0.00  0.00     0.018 A 
ATOM     10  C   UNL d   1     -39.061  14.860  16.377  0.00  0.00     0.004 A 
ATOM     11  C   UNL d   1     -38.658  14.480  15.776  0.00  0.00     0.030 A 
ATOM     12  C   UNL d   1     -38.349  13.726  15.903  0.00  0.00     0.140 A 
ATOM     13  C   UNL d   1     -38.446  13.356  16.636  0.00  0.00     0.030 A 
ATOM     14  F   UNL d   1     -37.940  13.335  15.298  0.00  0.00    -0.204 F 
ATOM     15  C   UNL d   1     -38.855  13.748  17.237  0.00  0.00     0.004 A 
ENDBRANCH   6   9
ENDBRANCH   1   4
BRANCH   2  16
ATOM     16  C   UNL d   1     -40.217  15.292  21.060  0.00  0.00     0.161 C 
BRANCH  16  17
ATOM     17  S   UNL d   1     -39.758  14.898  21.626  0.00  0.00     0.215 S 
ATOM     18  O   UNL d   1     -39.325  15.605  21.757  0.00  0.00    -0.217 OA
ATOM     19  O   UNL d   1     -40.189  14.204  21.492  0.00  0.00    -0.217 OA
BRANCH  17  20
ATOM     20  C   UNL d   1     -39.299  14.505  22.192  0.00  0.00     0.088 A 
ATOM     21  C   UNL d   1     -39.136  13.708  22.105  0.00  0.00     0.011 A 
ATOM     22  C   UNL d   1     -38.677  13.314  22.672  0.00  0.00     0.001 A 
ATOM     23  C   UNL d   1     -38.389  13.729  23.319  0.00  0.00     0.000 A 
ATOM     24  C   UNL d   1     -38.552  14.526  23.405  0.00  0.00     0.001 A 
ATOM     25  C   UNL d   1     -39.006  14.920  22.847  0.00  0.00     0.011 A 
ENDBRANCH  17  20
ENDBRANCH  16  17
ENDBRANCH   2  16
TORSDOF 5
ENDMDL
MODEL 5
REMARK VINA RESULT:      -6.0      2.429      5.732
REMARK  5 active torsions:
REMARK  status: ('A' for Active; 'I' for Inactive)
REMARK    1  A    between atoms: C_5  and  S_1 
REMARK    2  A    between atoms: C_12  and  S_1 
REMARK    3  A    between atoms: C_2  and  N_6 
REMARK    4  A    between atoms: C_13  and  C_4 
REMARK    5  A    between atoms: C_7  and  C_5 
REMARK       I    between atoms: N_6  and  C_7 
ROOT
ATOM      1  N   UNL d   1     -46.832  12.858  22.304  0.00  0.00    -0.182 NA
ATOM      2  C   UNL d   1     -46.247  12.871  22.885  0.00  0.00     0.293 C 
ATOM      3  O   UNL d   1     -46.434  12.995  23.674  0.00  0.00    -0.264 OA
ENDROOT
BRANCH   1   4
ATOM      4  C   UNL d   1     -47.618  12.971  22.516  0.00  0.00     0.197 A 
ATOM      5  N   UNL d   1     -47.986  13.710  22.643  0.00  0.00    -0.221 NA
ATOM      6  C   UNL d   1     -48.783  13.570  22.848  0.00  0.00     0.090 A 
ATOM      7  C   UNL d   1     -48.899  12.737  22.846  0.00  0.00     0.058 A 
ATOM      8  S   UNL d   1     -48.178  12.378  22.641  0.00  0.00    -0.046 SA
BRANCH   6   9
ATOM      9  C   UNL d   1     -49.351  14.144  23.021  0.00  0.00     0.018 A 
ATOM     10  C   UNL d   1     -50.091  13.916  23.273  0.00  0.00     0.004 A 
ATOM     11  C   UNL d   1     -50.659  14.476  23.446  0.00  0.00     0.030 A 
ATOM     12  C   UNL d   1     -50.483  15.278  23.366  0.00  0.00     0.140 A 
ATOM     13  C   UNL d   1     -49.733  15.514  23.110  0.00  0.00     0.030 A 
ATOM     14  F   UNL d   1     -51.055  15.852  23.540  0.00  0.00    -0.204 F 
ATOM     15  C   UNL d   1     -49.165  14.940  22.937  0.00  0.00     0.004 A 
ENDBRANCH   6   9
ENDBRANCH   1   4
BRANCH   2  16
ATOM     16  C   UNL d   1     -45.455  12.757  22.671  0.00  0.00     0.161 C 
BRANCH  16  17
ATOM     17  S   UNL d   1     -45.062  12.061  22.889  0.00  0.00     0.215 S 
ATOM     18  O   UNL d   1     -44.612  12.100  22.182  0.00  0.00    -0.217 OA
ATOM     19  O   UNL d   1     -45.509  12.027  23.585  0.00  0.00    -0.217 OA
BRANCH  17  20
ATOM     20  C   UNL d   1     -44.669  11.365  23.107  0.00  0.00     0.088 A 
ATOM     21  C   UNL d   1     -45.084  10.752  23.455  0.00  0.00     0.011 A 
ATOM     22  C   UNL d   1     -44.692  10.056  23.673  0.00  0.00     0.001 A 
ATOM     23  C   UNL d   1     -43.885   9.986  23.537  0.00  0.00     0.000 A 
ATOM     24  C   UNL d   1     -43.470  10.599  23.189  0.00  0.00     0.001 A 
ATOM     25  C   UNL d   1     -43.855  11.290  22.971  0.00  0.00     0.011 A 
ENDBRANCH  17  20
ENDBRANCH  16  17
ENDBRANCH   2  16
TORSDOF 5
ENDMDL
MODEL 6
REMARK VINA RESULT:      -5.2      8.512      9.880
REMARK  5 active torsions:
REMARK  status: ('A' for Active; 'I' for Inactive)
REMARK    1  A    between atoms: C_5  and  S_1 
REMARK    2  A    between atoms: C_12  and  S_1 
REMARK    3  A    between atoms: C_2  and  N_6 
REMARK    4  A    between atoms: C_13  and  C_4 
REMARK    5  A    between atoms: C_7  and  C_5 
REMARK       I    between atoms: N_6  and  C_7 
ROOT
ATOM      1  N   UNL d   1     -39.263  15.850  20.231  0.00  0.00    -0.182 NA
ATOM      2  C   UNL d   1     -39.491  15.258  20.757  0.00  0.00     0.293 C 
ATOM      3  O   UNL d   1     -39.812  14.553  20.491  0.00  0.00    -0.264 OA
ENDROOT
BRANCH   1   4
ATOM      4  C   UNL d   1     -39.359  15.734  19.423  0.00  0.00     0.197 A 
ATOM      5  N   UNL d   1     -40.063  15.864  18.993  0.00  0.00    -0.221 NA
ATOM      6  C   UNL d   1     -39.915  15.677  18.193  0.00  0.00     0.090 A 
ATOM      7  C   UNL d   1     -39.111  15.432  18.137  0.00  0.00     0.058 A 
ATOM      8  S   UNL d   1     -38.779  15.470  18.898  0.00  0.00    -0.046 SA
BRANCH   6   9
ATOM      9  C   UNL d   1     -40.457  15.725  17.572  0.00  0.00     0.018 A 
ATOM     10  C   UNL d   1     -41.241  15.873  17.732  0.00  0.00     0.004 A 
ATOM     11  C   UNL d   1     -41.785  15.922  17.124  0.00  0.00     0.030 A 
ATOM     12  C   UNL d   1     -41.538  15.822  16.343  0.00  0.00     0.140 A 
ATOM     13  C   UNL d   1     -40.742  15.673  16.176  0.00  0.00     0.030 A 
ATOM     14  F   UNL d   1     -42.084  15.871  15.722  0.00  0.00    -0.204 F 
ATOM     15  C   UNL d   1     -40.200  15.625  16.798  0.00  0.00     0.004 A 
ENDBRANCH   6   9
ENDBRANCH   1   4
BRANCH   2  16
ATOM     16  C   UNL d   1     -39.394  15.376  21.572  0.00  0.00     0.161 C 
BRANCH  16  17
ATOM     17  S   UNL d   1     -39.030  14.793  22.035  0.00  0.00     0.215 S 
ATOM     18  O   UNL d   1     -38.412  15.332  22.215  0.00  0.00    -0.217 OA
ATOM     19  O   UNL d   1     -39.642  14.266  21.855  0.00  0.00    -0.217 OA
BRANCH  17  20
ATOM     20  C   UNL d   1     -38.665  14.211  22.498  0.00  0.00     0.088 A 
ATOM     21  C   UNL d   1     -38.654  13.433  22.245  0.00  0.00     0.011 A 
ATOM     22  C   UNL d   1     -38.289  12.851  22.708  0.00  0.00     0.001 A 
ATOM     23  C   UNL d   1     -37.940  13.061  23.420  0.00  0.00     0.000 A 
ATOM     24  C   UNL d   1     -37.950  13.838  23.673  0.00  0.00     0.001 A 
ATOM     25  C   UNL d   1     -38.311  14.418  23.218  0.00  0.00     0.011 A 
ENDBRANCH  17  20
ENDBRANCH  16  17
ENDBRANCH   2  16
TORSDOF 5
ENDMDL
MODEL 7
REMARK VINA RESULT:      -5.0      8.972     10.431
REMARK  5 active torsions:
REMARK  status: ('A' for Active; 'I' for Inactive)
REMARK    1  A    between atoms: C_5  and  S_1 
REMARK    2  A    between atoms: C_12  and  S_1 
REMARK    3  A    between atoms: C_2  and  N_6 
REMARK    4  A    between atoms: C_13  and  C_4 
REMARK    5  A    between atoms: C_7  and  C_5 
REMARK       I    between atoms: N_6  and  C_7 
ROOT
ATOM      1  N   UNL d   1     -38.181  15.275  18.100  0.00  0.00    -0.182 NA
ATOM      2  C   UNL d   1     -38.894  15.403  18.495  0.00  0.00     0.293 C 
ATOM      3  O   UNL d   1     -39.594  15.515  18.084  0.00  0.00    -0.264 OA
ENDROOT
BRANCH   1   4
ATOM      4  C   UNL d   1     -38.170  15.260  17.278  0.00  0.00     0.197 A 
ATOM      5  N   UNL d   1     -38.129  14.574  16.805  0.00  0.00    -0.221 NA
ATOM      6  C   UNL d   1     -38.131  14.811  16.005  0.00  0.00     0.090 A 
ATOM      7  C   UNL d   1     -38.173  15.652  15.993  0.00  0.00     0.058 A 
ATOM      8  S   UNL d   1     -38.196  15.918  16.780  0.00  0.00    -0.046 SA
BRANCH   6   9
ATOM      9  C   UNL d   1     -38.098  14.313  15.347  0.00  0.00     0.018 A 
ATOM     10  C   UNL d   1     -38.188  14.625  14.600  0.00  0.00     0.004 A 
ATOM     11  C   UNL d   1     -38.157  14.139  13.943  0.00  0.00     0.030 A 
ATOM     12  C   UNL d   1     -38.032  13.329  14.037  0.00  0.00     0.140 A 
ATOM     13  C   UNL d   1     -37.940  13.009  14.794  0.00  0.00     0.030 A 
ATOM     14  F   UNL d   1     -37.999  12.831  13.376  0.00  0.00    -0.204 F 
ATOM     15  C   UNL d   1     -37.973  13.507  15.452  0.00  0.00     0.004 A 
ENDBRANCH   6   9
ENDBRANCH   1   4
BRANCH   2  16
ATOM     16  C   UNL d   1     -38.905  15.418  19.324  0.00  0.00     0.161 C 
BRANCH  16  17
ATOM     17  S   UNL d   1     -39.577  15.160  19.734  0.00  0.00     0.215 S 
ATOM     18  O   UNL d   1     -39.944  15.899  19.584  0.00  0.00    -0.217 OA
ATOM     19  O   UNL d   1     -39.209  14.432  19.879  0.00  0.00    -0.217 OA
BRANCH  17  20
ATOM     20  C   UNL d   1     -40.249  14.903  20.145  0.00  0.00     0.088 A 
ATOM     21  C   UNL d   1     -40.913  15.378  20.182  0.00  0.00     0.011 A 
ATOM     22  C   UNL d   1     -41.585  15.121  20.593  0.00  0.00     0.001 A 
ATOM     23  C   UNL d   1     -41.579  14.387  20.960  0.00  0.00     0.000 A 
ATOM     24  C   UNL d   1     -40.915  13.911  20.923  0.00  0.00     0.001 A 
ATOM     25  C   UNL d   1     -40.247  14.163  20.517  0.00  0.00     0.011 A 
ENDBRANCH  17  20
ENDBRANCH  16  17
ENDBRANCH   2  16
TORSDOF 5
ENDMDL
MODEL 8
REMARK VINA RESULT:      -4.4      8.306      9.081
REMARK  5 active torsions:
REMARK  status: ('A' for Active; 'I' for Inactive)
REMARK    1  A    between atoms: C_5  and  S_1 
REMARK    2  A    between atoms: C_12  and  S_1 
REMARK    3  A    between atoms: C_2  and  N_6 
REMARK    4  A    between atoms: C_13  and  C_4 
REMARK    5  A    between atoms: C_7  and  C_5 
REMARK       I    between atoms: N_6  and  C_7 
ROOT
ATOM      1  N   UNL d   1     -38.601  14.744  18.474  0.00  0.00    -0.182 NA
ATOM      2  C   UNL d   1     -39.074  14.470  17.857  0.00  0.00     0.293 C 
ATOM      3  O   UNL d   1     -39.404  13.720  17.875  0.00  0.00    -0.264 OA
ENDROOT
BRANCH   1   4
ATOM      4  C   UNL d   1     -38.456  14.258  19.121  0.00  0.00     0.197 A 
ATOM      5  N   UNL d   1     -38.720  14.396  19.902  0.00  0.00    -0.221 NA
ATOM      6  C   UNL d   1     -38.450  13.768  20.381  0.00  0.00     0.090 A 
ATOM      7  C   UNL d   1     -38.017  13.243  19.884  0.00  0.00     0.058 A 
ATOM      8  S   UNL d   1     -38.027  13.553  19.113  0.00  0.00    -0.046 SA
BRANCH   6   9
ATOM      9  C   UNL d   1     -38.583  13.679  21.191  0.00  0.00     0.018 A 
ATOM     10  C   UNL d   1     -38.000  13.359  21.662  0.00  0.00     0.004 A 
ATOM     11  C   UNL d   1     -38.123  13.267  22.465  0.00  0.00     0.030 A 
ATOM     12  C   UNL d   1     -38.841  13.499  22.800  0.00  0.00     0.140 A 
ATOM     13  C   UNL d   1     -39.434  13.824  22.324  0.00  0.00     0.030 A 
ATOM     14  F   UNL d   1     -38.971  13.409  23.613  0.00  0.00    -0.204 F 
ATOM     15  C   UNL d   1     -39.301  13.913  21.514  0.00  0.00     0.004 A 
ENDBRANCH   6   9
ENDBRANCH   1   4
BRANCH   2  16
ATOM     16  C   UNL d   1     -39.220  14.960  17.205  0.00  0.00     0.161 C 
BRANCH  16  17
ATOM     17  S   UNL d   1     -39.993  15.201  17.032  0.00  0.00     0.215 S 
ATOM     18  O   UNL d   1     -40.282  14.480  17.348  0.00  0.00    -0.217 OA
ATOM     19  O   UNL d   1     -39.702  15.912  16.721  0.00  0.00    -0.217 OA
BRANCH  17  20
ATOM     20  C   UNL d   1     -40.767  15.443  16.859  0.00  0.00     0.088 A 
ATOM     21  C   UNL d   1     -41.320  15.505  17.458  0.00  0.00     0.011 A 
ATOM     22  C   UNL d   1     -42.093  15.746  17.286  0.00  0.00     0.001 A 
ATOM     23  C   UNL d   1     -42.299  15.922  16.511  0.00  0.00     0.000 A 
ATOM     24  C   UNL d   1     -41.746  15.860  15.912  0.00  0.00     0.001 A 
ATOM     25  C   UNL d   1     -40.978  15.621  16.078  0.00  0.00     0.011 A 
ENDBRANCH  17  20
ENDBRANCH  16  17
ENDBRANCH   2  16
TORSDOF 5
ENDMDL
MODEL 9
REMARK VINA RESULT:      -4.3      7.739      9.539
REMARK  5 active torsions:
REMARK  status: ('A' for Active; 'I' for Inactive)
REMARK    1  A    between atoms: C_5  and  S_1 
REMARK    2  A    between atoms: C_12  and  S_1 
REMARK    3  A    between atoms: C_2  and  N_6 
REMARK    4  A    between atoms: C_13  and  C_4 
REMARK    5  A    between atoms: C_7  and  C_5 
REMARK       I    between atoms: N_6  and  C_7 
ROOT
ATOM      1  N   UNL d   1     -39.939  15.921  18.953  0.00  0.00    -0.182 NA
ATOM      2  C   UNL d   1     -39.301  15.561  18.574  0.00  0.00     0.293 C 
ATOM      3  O   UNL d   1     -38.944  14.892  18.885  0.00  0.00    -0.264 OA
ENDROOT
BRANCH   1   4
ATOM      4  C   UNL d   1     -40.225  15.604  19.655  0.00  0.00     0.197 A 
ATOM      5  N   UNL d   1     -40.733  14.944  19.719  0.00  0.00    -0.221 NA
ATOM      6  C   UNL d   1     -40.885  14.813  20.529  0.00  0.00     0.090 A 
ATOM      7  C   UNL d   1     -40.464  15.400  20.961  0.00  0.00     0.058 A 
ATOM      8  S   UNL d   1     -40.062  15.881  20.415  0.00  0.00    -0.046 SA
BRANCH   6   9
ATOM      9  C   UNL d   1     -41.360  14.217  20.847  0.00  0.00     0.018 A 
ATOM     10  C   UNL d   1     -41.033  13.666  21.350  0.00  0.00     0.004 A 
ATOM     11  C   UNL d   1     -41.495  13.073  21.670  0.00  0.00     0.030 A 
ATOM     12  C   UNL d   1     -42.298  13.031  21.481  0.00  0.00     0.140 A 
ATOM     13  C   UNL d   1     -42.633  13.588  20.971  0.00  0.00     0.030 A 
ATOM     14  F   UNL d   1     -42.772  12.432  21.802  0.00  0.00    -0.204 F 
ATOM     15  C   UNL d   1     -42.158  14.184  20.653  0.00  0.00     0.004 A 
ENDBRANCH   6   9
ENDBRANCH   1   4
BRANCH   2  16
ATOM     16  C   UNL d   1     -39.012  15.881  17.866  0.00  0.00     0.161 C 
BRANCH  16  17
ATOM     17  S   UNL d   1     -38.743  15.380  17.264  0.00  0.00     0.215 S 
ATOM     18  O   UNL d   1     -37.995  15.337  17.641  0.00  0.00    -0.217 OA
ATOM     19  O   UNL d   1     -39.484  15.425  16.896  0.00  0.00    -0.217 OA
BRANCH  17  20
ATOM     20  C   UNL d   1     -38.475  14.879  16.661  0.00  0.00     0.088 A 
ATOM     21  C   UNL d   1     -38.208  15.193  15.955  0.00  0.00     0.011 A 
ATOM     22  C   UNL d   1     -37.939  14.692  15.352  0.00  0.00     0.001 A 
ATOM     23  C   UNL d   1     -37.943  13.880  15.470  0.00  0.00     0.000 A 
ATOM     24  C   UNL d   1     -38.210  13.565  16.176  0.00  0.00     0.001 A 
ATOM     25  C   UNL d   1     -38.477  14.058  16.776  0.00  0.00     0.011 A 
ENDBRANCH  17  20
ENDBRANCH  16  17
ENDBRANCH   2  16
TORSDOF 5
ENDMDL
