MODEL 1
REMARK VINA RESULT:      -7.2      0.000      0.000
REMARK  3 active torsions:
REMARK  status: ('A' for Active; 'I' for Inactive)
REMARK    1  A    between atoms: N_5  and  C_1 
REMARK    2  A    between atoms: C_8  and  C_2 
REMARK       I    between atoms: C_7  and  N_5 
REMARK    3  A    between atoms: C_9  and  C_7 
ROOT
ATOM      1  C   UNL d   1     -47.610  12.931  23.174  0.00  0.00     0.119 A 
ATOM      2  C   UNL d   1     -46.782  12.853  23.128  0.00  0.00     0.084 A 
ATOM      3  S   UNL d   1     -47.917  12.204  23.392  0.00  0.00    -0.068 SA
ATOM      4  C   UNL d   1     -46.589  12.074  23.319  0.00  0.00     0.013 A 
ATOM      5  C   UNL d   1     -47.296  11.670  23.484  0.00  0.00     0.031 A 
ATOM      6  C   UNL d   1     -45.835  11.750  23.344  0.00  0.00     0.001 C 
ATOM      7  C   UNL d   1     -47.357  10.881  23.698  0.00  0.00     0.007 C 
ENDROOT
BRANCH   1   8
ATOM      8  N   UNL d   1     -48.037  13.618  23.027  0.00  0.00    -0.200 NA
ATOM      9  C   UNL d   1     -48.859  13.607  23.087  0.00  0.00     0.302 C 
ATOM     10  O   UNL d   1     -49.259  12.916  23.295  0.00  0.00    -0.263 OA
BRANCH   9  11
ATOM     11  C   UNL d   1     -49.283  14.306  22.937  0.00  0.00     0.158 A 
ATOM     12  O   UNL d   1     -49.179  15.026  23.328  0.00  0.00    -0.300 OA
ATOM     13  C   UNL d   1     -49.721  15.577  23.000  0.00  0.00     0.123 A 
ATOM     14  C   UNL d   1     -50.146  15.188  22.418  0.00  0.00     0.029 A 
ATOM     15  C   UNL d   1     -49.887  14.403  22.366  0.00  0.00     0.032 A 
ENDBRANCH   9  11
ENDBRANCH   1   8
BRANCH   2  16
ATOM     16  C   UNL d   1     -46.253  13.449  22.927  0.00  0.00     0.299 C 
ATOM     17  O   UNL d   1     -45.997  13.990  23.507  0.00  0.00    -0.264 OA
ATOM     18  N   UNL d   1     -45.970  13.521  22.151  0.00  0.00    -0.102 N 
ENDBRANCH   2  16
TORSDOF 3
ENDMDL
MODEL 2
REMARK VINA RESULT:      -6.6      1.386      1.488
REMARK  3 active torsions:
REMARK  status: ('A' for Active; 'I' for Inactive)
REMARK    1  A    between atoms: N_5  and  C_1 
REMARK    2  A    between atoms: C_8  and  C_2 
REMARK       I    between atoms: C_7  and  N_5 
REMARK    3  A    between atoms: C_9  and  C_7 
ROOT
ATOM      1  C   UNL d   1     -47.594  12.599  23.152  0.00  0.00     0.119 A 
ATOM      2  C   UNL d   1     -46.916  12.978  22.852  0.00  0.00     0.084 A 
ATOM      3  S   UNL d   1     -47.354  11.899  23.501  0.00  0.00    -0.068 SA
ATOM      4  C   UNL d   1     -46.263  12.504  23.020  0.00  0.00     0.013 A 
ATOM      5  C   UNL d   1     -46.536  11.831  23.425  0.00  0.00     0.031 A 
ATOM      6  C   UNL d   1     -45.481  12.661  22.825  0.00  0.00     0.001 C 
ATOM      7  C   UNL d   1     -46.068  11.214  23.696  0.00  0.00     0.007 C 
ENDROOT
BRANCH   1   8
ATOM      8  N   UNL d   1     -48.364  12.883  23.105  0.00  0.00    -0.200 NA
ATOM      9  C   UNL d   1     -48.992  12.393  23.319  0.00  0.00     0.302 C 
ATOM     10  O   UNL d   1     -48.858  11.622  23.580  0.00  0.00    -0.263 OA
BRANCH   9  11
ATOM     11  C   UNL d   1     -49.768  12.687  23.268  0.00  0.00     0.158 A 
ATOM     12  O   UNL d   1     -50.069  13.325  23.697  0.00  0.00    -0.300 OA
ATOM     13  C   UNL d   1     -50.872  13.429  23.473  0.00  0.00     0.123 A 
ATOM     14  C   UNL d   1     -51.047  12.857  22.914  0.00  0.00     0.029 A 
ATOM     15  C   UNL d   1     -50.376  12.391  22.776  0.00  0.00     0.032 A 
ENDBRANCH   9  11
ENDBRANCH   1   8
BRANCH   2  16
ATOM     16  C   UNL d   1     -46.903  13.699  22.457  0.00  0.00     0.299 C 
ATOM     17  O   UNL d   1     -47.144  13.741  21.660  0.00  0.00    -0.264 OA
ATOM     18  N   UNL d   1     -46.653  14.390  22.842  0.00  0.00    -0.102 N 
ENDBRANCH   2  16
TORSDOF 3
ENDMDL
MODEL 3
REMARK VINA RESULT:      -5.4      7.909      9.128
REMARK  3 active torsions:
REMARK  status: ('A' for Active; 'I' for Inactive)
REMARK    1  A    between atoms: N_5  and  C_1 
REMARK    2  A    between atoms: C_8  and  C_2 
REMARK       I    between atoms: C_7  and  N_5 
REMARK    3  A    between atoms: C_9  and  C_7 
ROOT
ATOM      1  C   UNL d   1     -39.772  14.649  19.727  0.00  0.00     0.119 A 
ATOM      2  C   UNL d   1     -40.029  14.619  20.519  0.00  0.00     0.084 A 
ATOM      3  S   UNL d   1     -39.023  14.321  19.695  0.00  0.00    -0.068 SA
ATOM      4  C   UNL d   1     -39.431  14.270  20.967  0.00  0.00     0.013 A 
ATOM      5  C   UNL d   1     -38.804  14.084  20.454  0.00  0.00     0.031 A 
ATOM      6  C   UNL d   1     -39.446  14.129  21.776  0.00  0.00     0.001 C 
ATOM      7  C   UNL d   1     -38.097  13.729  20.672  0.00  0.00     0.007 C 
ENDROOT
BRANCH   1   8
ATOM      8  N   UNL d   1     -40.199  14.955  19.095  0.00  0.00    -0.200 NA
ATOM      9  C   UNL d   1     -39.939  14.820  18.324  0.00  0.00     0.302 C 
ATOM     10  O   UNL d   1     -39.255  14.381  18.179  0.00  0.00    -0.263 OA
BRANCH   9  11
ATOM     11  C   UNL d   1     -40.375  15.132  17.690  0.00  0.00     0.158 A 
ATOM     12  O   UNL d   1     -41.057  14.798  17.365  0.00  0.00    -0.300 OA
ATOM     13  C   UNL d   1     -41.314  15.295  16.739  0.00  0.00     0.123 A 
ATOM     14  C   UNL d   1     -40.788  15.922  16.692  0.00  0.00     0.029 A 
ATOM     15  C   UNL d   1     -40.204  15.836  17.272  0.00  0.00     0.032 A 
ENDBRANCH   9  11
ENDBRANCH   1   8
BRANCH   2  16
ATOM     16  C   UNL d   1     -40.752  14.890  20.801  0.00  0.00     0.299 C 
ATOM     17  O   UNL d   1     -41.399  14.368  20.853  0.00  0.00    -0.264 OA
ATOM     18  N   UNL d   1     -40.847  15.680  21.034  0.00  0.00    -0.102 N 
ENDBRANCH   2  16
TORSDOF 3
ENDMDL
MODEL 4
REMARK VINA RESULT:      -4.3      8.113      9.581
REMARK  3 active torsions:
REMARK  status: ('A' for Active; 'I' for Inactive)
REMARK    1  A    between atoms: N_5  and  C_1 
REMARK    2  A    between atoms: C_8  and  C_2 
REMARK       I    between atoms: C_7  and  N_5 
REMARK    3  A    between atoms: C_9  and  C_7 
ROOT
ATOM      1  C   UNL d   1     -39.660  14.390  18.165  0.00  0.00     0.119 A 
ATOM      2  C   UNL d   1     -39.683  14.565  17.351  0.00  0.00     0.084 A 
ATOM      3  S   UNL d   1     -39.109  13.795  18.277  0.00  0.00    -0.068 SA
ATOM      4  C   UNL d   1     -39.143  14.072  16.970  0.00  0.00     0.013 A 
ATOM      5  C   UNL d   1     -38.785  13.592  17.547  0.00  0.00     0.031 A 
ATOM      6  C   UNL d   1     -38.982  14.053  16.165  0.00  0.00     0.001 C 
ATOM      7  C   UNL d   1     -38.213  13.021  17.406  0.00  0.00     0.007 C 
ENDROOT
BRANCH   1   8
ATOM      8  N   UNL d   1     -40.112  14.753  18.747  0.00  0.00    -0.200 NA
ATOM      9  C   UNL d   1     -39.931  14.627  19.542  0.00  0.00     0.302 C 
ATOM     10  O   UNL d   1     -39.301  14.141  19.760  0.00  0.00    -0.263 OA
BRANCH   9  11
ATOM     11  C   UNL d   1     -40.393  14.998  20.125  0.00  0.00     0.158 A 
ATOM     12  O   UNL d   1     -40.315  15.782  20.372  0.00  0.00    -0.300 OA
ATOM     13  C   UNL d   1     -40.891  15.922  20.967  0.00  0.00     0.123 A 
ATOM     14  C   UNL d   1     -41.309  15.226  21.074  0.00  0.00     0.029 A 
ATOM     15  C   UNL d   1     -41.013  14.646  20.561  0.00  0.00     0.032 A 
ENDBRANCH   9  11
ENDBRANCH   1   8
BRANCH   2  16
ATOM     16  C   UNL d   1     -40.161  15.130  16.994  0.00  0.00     0.299 C 
ATOM     17  O   UNL d   1     -40.949  14.943  16.799  0.00  0.00    -0.264 OA
ATOM     18  N   UNL d   1     -39.868  15.886  16.823  0.00  0.00    -0.102 N 
ENDBRANCH   2  16
TORSDOF 3
ENDMDL
