MODEL 1
REMARK VINA RESULT:      -9.9      0.000      0.000
REMARK  9 active torsions:
REMARK  status: ('A' for Active; 'I' for Inactive)
REMARK       I    between atoms: C_5  and  N_1 
REMARK    1  A    between atoms: C_6  and  N_1 
REMARK    2  A    between atoms: C_7  and  C_3 
REMARK    3  A    between atoms: C_8  and  C_4 
REMARK    4  A    between atoms: C_17  and  C_5 
REMARK    5  A    between atoms: N_9  and  C_6 
REMARK    6  A    between atoms: N_14  and  N_9 
REMARK       I    between atoms: C_10  and  N_14 
REMARK    7  A    between atoms: C_20  and  C_10 
REMARK    8  A    between atoms: C_16  and  C_21 
REMARK    9  A    between atoms: C_21  and  C_20 
ROOT
ATOM      1  C   UNL d   1      51.354  33.797  52.896  0.00  0.00     0.064 C 
ENDROOT
BRANCH   1   2
ATOM      2  C   UNL d   1      51.073  34.565  52.961  0.00  0.00     0.297 C 
ATOM      3  N   UNL d   1      50.375  34.790  52.594  0.00  0.00    -0.103 NA
ATOM      4  O   UNL d   1      51.508  35.108  53.405  0.00  0.00    -0.264 OA
BRANCH   3   5
ATOM      5  N   UNL d   1      49.937  34.254  52.151  0.00  0.00    -0.114 NA
BRANCH   5   6
ATOM      6  C   UNL d   1      49.352  34.487  51.650  0.00  0.00     0.243 C 
ATOM      7  S   UNL d   1      49.346  34.241  50.870  0.00  0.00    -0.035 SA
BRANCH   6   8
ATOM      8  N   UNL d   1      48.754  34.979  51.932  0.00  0.00    -0.177 NA
ATOM      9  C   UNL d   1      48.050  35.045  51.515  0.00  0.00     0.281 C 
ATOM     10  O   UNL d   1      47.928  34.631  50.821  0.00  0.00    -0.265 OA
BRANCH   9  11
ATOM     11  C   UNL d   1      47.463  35.537  51.805  0.00  0.00     0.058 A 
ATOM     12  C   UNL d   1      47.599  36.020  52.462  0.00  0.00     0.005 A 
ATOM     13  C   UNL d   1      47.013  36.519  52.761  0.00  0.00     0.000 A 
ATOM     14  C   UNL d   1      46.267  36.535  52.392  0.00  0.00     0.000 A 
ATOM     15  C   UNL d   1      46.119  36.058  51.736  0.00  0.00     0.000 A 
ATOM     16  C   UNL d   1      46.717  35.563  51.448  0.00  0.00     0.005 A 
ENDBRANCH   9  11
ENDBRANCH   6   8
ENDBRANCH   5   6
ENDBRANCH   3   5
ENDBRANCH   1   2
BRANCH   1  17
ATOM     17  C   UNL d   1      52.132  33.668  52.665  0.00  0.00     0.005 C 
BRANCH  17  18
ATOM     18  C   UNL d   1      52.593  33.079  53.030  0.00  0.00    -0.000 A 
ATOM     19  C   UNL d   1      53.192  33.297  53.546  0.00  0.00    -0.001 A 
ATOM     20  C   UNL d   1      53.657  32.730  53.914  0.00  0.00     0.016 A 
ATOM     21  C   UNL d   1      53.521  31.935  53.765  0.00  0.00     0.188 A 
ATOM     22  C   UNL d   1      52.917  31.696  53.244  0.00  0.00     0.016 A 
ATOM     23  O   UNL d   1      53.993  31.343  54.138  0.00  0.00    -0.287 OA
ATOM     24  C   UNL d   1      52.456  32.284  52.880  0.00  0.00    -0.001 A 
BRANCH  20  25
ATOM     25  C   UNL d   1      54.256  32.948  54.430  0.00  0.00     0.022 C 
ATOM     26  C   UNL d   1      53.747  32.870  55.081  0.00  0.00     0.004 C 
ATOM     27  C   UNL d   1      54.790  33.034  53.783  0.00  0.00     0.004 C 
ATOM     28  C   UNL d   1      54.884  33.175  54.950  0.00  0.00     0.004 C 
ENDBRANCH  20  25
BRANCH  22  29
ATOM     29  C   UNL d   1      52.764  30.904  53.080  0.00  0.00     0.022 C 
ATOM     30  C   UNL d   1      53.353  30.906  52.508  0.00  0.00     0.004 C 
ATOM     31  C   UNL d   1      52.172  30.900  53.655  0.00  0.00     0.004 C 
ATOM     32  C   UNL d   1      52.603  30.112  52.924  0.00  0.00     0.004 C 
ENDBRANCH  22  29
ENDBRANCH  17  18
ENDBRANCH   1  17
TORSDOF 9
ENDMDL
MODEL 2
REMARK VINA RESULT:      -9.8      0.056      1.889
REMARK  9 active torsions:
REMARK  status: ('A' for Active; 'I' for Inactive)
REMARK       I    between atoms: C_5  and  N_1 
REMARK    1  A    between atoms: C_6  and  N_1 
REMARK    2  A    between atoms: C_7  and  C_3 
REMARK    3  A    between atoms: C_8  and  C_4 
REMARK    4  A    between atoms: C_17  and  C_5 
REMARK    5  A    between atoms: N_9  and  C_6 
REMARK    6  A    between atoms: N_14  and  N_9 
REMARK       I    between atoms: C_10  and  N_14 
REMARK    7  A    between atoms: C_20  and  C_10 
REMARK    8  A    between atoms: C_16  and  C_21 
REMARK    9  A    between atoms: C_21  and  C_20 
ROOT
ATOM      1  C   UNL d   1      51.350  33.796  52.903  0.00  0.00     0.064 C 
ENDROOT
BRANCH   1   2
ATOM      2  C   UNL d   1      51.071  34.565  52.957  0.00  0.00     0.297 C 
ATOM      3  N   UNL d   1      50.369  34.786  52.593  0.00  0.00    -0.103 NA
ATOM      4  O   UNL d   1      51.512  35.115  53.387  0.00  0.00    -0.264 OA
BRANCH   3   5
ATOM      5  N   UNL d   1      49.926  34.244  52.163  0.00  0.00    -0.114 NA
BRANCH   5   6
ATOM      6  C   UNL d   1      49.339  34.469  51.661  0.00  0.00     0.243 C 
ATOM      7  S   UNL d   1      49.342  34.229  50.879  0.00  0.00    -0.035 SA
BRANCH   6   8
ATOM      8  N   UNL d   1      48.731  34.948  51.943  0.00  0.00    -0.177 NA
ATOM      9  C   UNL d   1      48.054  35.056  51.493  0.00  0.00     0.281 C 
ATOM     10  O   UNL d   1      47.968  34.695  50.764  0.00  0.00    -0.265 OA
BRANCH   9  11
ATOM     11  C   UNL d   1      47.456  35.533  51.784  0.00  0.00     0.058 A 
ATOM     12  C   UNL d   1      46.679  35.454  51.513  0.00  0.00     0.005 A 
ATOM     13  C   UNL d   1      46.070  35.932  51.801  0.00  0.00     0.000 A 
ATOM     14  C   UNL d   1      46.243  36.507  52.378  0.00  0.00     0.000 A 
ATOM     15  C   UNL d   1      47.015  36.595  52.656  0.00  0.00     0.000 A 
ATOM     16  C   UNL d   1      47.614  36.109  52.358  0.00  0.00     0.005 A 
ENDBRANCH   9  11
ENDBRANCH   6   8
ENDBRANCH   5   6
ENDBRANCH   3   5
ENDBRANCH   1   2
BRANCH   1  17
ATOM     17  C   UNL d   1      52.122  33.660  52.659  0.00  0.00     0.005 C 
BRANCH  17  18
ATOM     18  C   UNL d   1      52.590  33.079  53.027  0.00  0.00    -0.000 A 
ATOM     19  C   UNL d   1      52.446  32.287  52.873  0.00  0.00    -0.001 A 
ATOM     20  C   UNL d   1      52.898  31.700  53.227  0.00  0.00     0.016 A 
ATOM     21  C   UNL d   1      53.501  31.909  53.742  0.00  0.00     0.188 A 
ATOM     22  C   UNL d   1      53.661  32.708  53.911  0.00  0.00     0.016 A 
ATOM     23  O   UNL d   1      53.972  31.315  54.112  0.00  0.00    -0.287 OA
ATOM     24  C   UNL d   1      53.193  33.289  53.543  0.00  0.00    -0.001 A 
BRANCH  20  25
ATOM     25  C   UNL d   1      52.754  30.908  53.072  0.00  0.00     0.022 C 
ATOM     26  C   UNL d   1      53.359  30.891  52.505  0.00  0.00     0.004 C 
ATOM     27  C   UNL d   1      52.134  30.903  53.644  0.00  0.00     0.004 C 
ATOM     28  C   UNL d   1      52.594  30.091  52.923  0.00  0.00     0.004 C 
ENDBRANCH  20  25
BRANCH  22  29
ATOM     29  C   UNL d   1      54.261  32.939  54.424  0.00  0.00     0.022 C 
ATOM     30  C   UNL d   1      53.751  32.854  55.062  0.00  0.00     0.004 C 
ATOM     31  C   UNL d   1      54.775  33.025  53.784  0.00  0.00     0.004 C 
ATOM     32  C   UNL d   1      54.868  33.171  54.930  0.00  0.00     0.004 C 
ENDBRANCH  22  29
ENDBRANCH  17  18
ENDBRANCH   1  17
TORSDOF 9
ENDMDL
MODEL 3
REMARK VINA RESULT:      -9.7      1.841      2.982
REMARK  9 active torsions:
REMARK  status: ('A' for Active; 'I' for Inactive)
REMARK       I    between atoms: C_5  and  N_1 
REMARK    1  A    between atoms: C_6  and  N_1 
REMARK    2  A    between atoms: C_7  and  C_3 
REMARK    3  A    between atoms: C_8  and  C_4 
REMARK    4  A    between atoms: C_17  and  C_5 
REMARK    5  A    between atoms: N_9  and  C_6 
REMARK    6  A    between atoms: N_14  and  N_9 
REMARK       I    between atoms: C_10  and  N_14 
REMARK    7  A    between atoms: C_20  and  C_10 
REMARK    8  A    between atoms: C_16  and  C_21 
REMARK    9  A    between atoms: C_21  and  C_20 
ROOT
ATOM      1  C   UNL d   1      49.907  34.593  52.527  0.00  0.00     0.064 C 
ENDROOT
BRANCH   1   2
ATOM      2  C   UNL d   1      49.256  34.776  52.063  0.00  0.00     0.297 C 
ATOM      3  N   UNL d   1      48.625  35.200  52.373  0.00  0.00    -0.103 NA
ATOM      4  O   UNL d   1      49.248  34.523  51.278  0.00  0.00    -0.264 OA
BRANCH   3   5
ATOM      5  N   UNL d   1      48.627  35.454  53.153  0.00  0.00    -0.114 NA
BRANCH   5   6
ATOM      6  C   UNL d   1      48.078  35.967  53.440  0.00  0.00     0.243 C 
ATOM      7  S   UNL d   1      48.297  36.706  53.714  0.00  0.00    -0.035 SA
BRANCH   6   8
ATOM      8  N   UNL d   1      47.286  35.740  53.456  0.00  0.00    -0.177 NA
ATOM      9  C   UNL d   1      46.805  35.978  54.077  0.00  0.00     0.281 C 
ATOM     10  O   UNL d   1      47.097  36.440  54.686  0.00  0.00    -0.265 OA
BRANCH   9  11
ATOM     11  C   UNL d   1      46.021  35.747  54.082  0.00  0.00     0.058 A 
ATOM     12  C   UNL d   1      45.548  35.832  53.409  0.00  0.00     0.005 A 
ATOM     13  C   UNL d   1      44.755  35.601  53.406  0.00  0.00     0.000 A 
ATOM     14  C   UNL d   1      44.424  35.275  54.096  0.00  0.00     0.000 A 
ATOM     15  C   UNL d   1      44.885  35.185  54.774  0.00  0.00     0.000 A 
ATOM     16  C   UNL d   1      45.678  35.421  54.762  0.00  0.00     0.005 A 
ENDBRANCH   9  11
ENDBRANCH   6   8
ENDBRANCH   5   6
ENDBRANCH   3   5
ENDBRANCH   1   2
BRANCH   1  17
ATOM     17  C   UNL d   1      50.606  34.354  52.168  0.00  0.00     0.005 C 
BRANCH  17  18
ATOM     18  C   UNL d   1      51.259  34.112  52.623  0.00  0.00    -0.000 A 
ATOM     19  C   UNL d   1      51.469  33.320  52.639  0.00  0.00    -0.001 A 
ATOM     20  C   UNL d   1      52.111  33.064  53.083  0.00  0.00     0.016 A 
ATOM     21  C   UNL d   1      52.547  33.608  53.517  0.00  0.00     0.188 A 
ATOM     22  C   UNL d   1      52.347  34.415  53.512  0.00  0.00     0.016 A 
ATOM     23  O   UNL d   1      53.208  33.356  53.977  0.00  0.00    -0.287 OA
ATOM     24  C   UNL d   1      51.695  34.656  53.057  0.00  0.00    -0.001 A 
BRANCH  20  25
ATOM     25  C   UNL d   1      52.321  32.271  53.099  0.00  0.00     0.022 C 
ATOM     26  C   UNL d   1      51.714  32.104  53.638  0.00  0.00     0.004 C 
ATOM     27  C   UNL d   1      52.945  32.421  52.551  0.00  0.00     0.004 C 
ATOM     28  C   UNL d   1      52.550  31.457  53.105  0.00  0.00     0.004 C 
ENDBRANCH  20  25
BRANCH  22  29
ATOM     29  C   UNL d   1      52.770  34.976  53.939  0.00  0.00     0.022 C 
ATOM     30  C   UNL d   1      52.324  34.809  54.608  0.00  0.00     0.004 C 
ATOM     31  C   UNL d   1      53.221  35.147  53.269  0.00  0.00     0.004 C 
ATOM     32  C   UNL d   1      53.201  35.541  54.358  0.00  0.00     0.004 C 
ENDBRANCH  22  29
ENDBRANCH  17  18
ENDBRANCH   1  17
TORSDOF 9
ENDMDL
MODEL 4
REMARK VINA RESULT:      -9.6      1.827      2.484
REMARK  9 active torsions:
REMARK  status: ('A' for Active; 'I' for Inactive)
REMARK       I    between atoms: C_5  and  N_1 
REMARK    1  A    between atoms: C_6  and  N_1 
REMARK    2  A    between atoms: C_7  and  C_3 
REMARK    3  A    between atoms: C_8  and  C_4 
REMARK    4  A    between atoms: C_17  and  C_5 
REMARK    5  A    between atoms: N_9  and  C_6 
REMARK    6  A    between atoms: N_14  and  N_9 
REMARK       I    between atoms: C_10  and  N_14 
REMARK    7  A    between atoms: C_20  and  C_10 
REMARK    8  A    between atoms: C_16  and  C_21 
REMARK    9  A    between atoms: C_21  and  C_20 
ROOT
ATOM      1  C   UNL d   1      49.917  34.604  52.534  0.00  0.00     0.064 C 
ENDROOT
BRANCH   1   2
ATOM      2  C   UNL d   1      49.262  34.787  52.075  0.00  0.00     0.297 C 
ATOM      3  N   UNL d   1      48.639  35.222  52.386  0.00  0.00    -0.103 NA
ATOM      4  O   UNL d   1      49.242  34.524  51.293  0.00  0.00    -0.264 OA
BRANCH   3   5
ATOM      5  N   UNL d   1      48.652  35.487  53.163  0.00  0.00    -0.114 NA
BRANCH   5   6
ATOM      6  C   UNL d   1      48.090  35.980  53.460  0.00  0.00     0.243 C 
ATOM      7  S   UNL d   1      48.293  36.709  53.768  0.00  0.00    -0.035 SA
BRANCH   6   8
ATOM      8  N   UNL d   1      47.302  35.741  53.450  0.00  0.00    -0.177 NA
ATOM      9  C   UNL d   1      46.786  36.011  54.029  0.00  0.00     0.281 C 
ATOM     10  O   UNL d   1      47.040  36.516  54.620  0.00  0.00    -0.265 OA
BRANCH   9  11
ATOM     11  C   UNL d   1      46.005  35.767  54.009  0.00  0.00     0.058 A 
ATOM     12  C   UNL d   1      45.541  35.881  53.334  0.00  0.00     0.005 A 
ATOM     13  C   UNL d   1      44.753  35.638  53.306  0.00  0.00     0.000 A 
ATOM     14  C   UNL d   1      44.417  35.270  53.972  0.00  0.00     0.000 A 
ATOM     15  C   UNL d   1      44.869  35.151  54.651  0.00  0.00     0.000 A 
ATOM     16  C   UNL d   1      45.658  35.400  54.665  0.00  0.00     0.005 A 
ENDBRANCH   9  11
ENDBRANCH   6   8
ENDBRANCH   5   6
ENDBRANCH   3   5
ENDBRANCH   1   2
BRANCH   1  17
ATOM     17  C   UNL d   1      50.610  34.356  52.170  0.00  0.00     0.005 C 
BRANCH  17  18
ATOM     18  C   UNL d   1      51.261  34.100  52.621  0.00  0.00    -0.000 A 
ATOM     19  C   UNL d   1      51.693  34.648  53.052  0.00  0.00    -0.001 A 
ATOM     20  C   UNL d   1      52.339  34.413  53.502  0.00  0.00     0.016 A 
ATOM     21  C   UNL d   1      52.553  33.621  53.521  0.00  0.00     0.188 A 
ATOM     22  C   UNL d   1      52.125  33.052  53.091  0.00  0.00     0.016 A 
ATOM     23  O   UNL d   1      53.214  33.369  53.981  0.00  0.00    -0.287 OA
ATOM     24  C   UNL d   1      51.475  33.308  52.640  0.00  0.00    -0.001 A 
BRANCH  20  25
ATOM     25  C   UNL d   1      52.771  34.961  53.933  0.00  0.00     0.022 C 
ATOM     26  C   UNL d   1      52.335  34.792  54.618  0.00  0.00     0.004 C 
ATOM     27  C   UNL d   1      53.227  35.147  53.248  0.00  0.00     0.004 C 
ATOM     28  C   UNL d   1      53.226  35.529  54.365  0.00  0.00     0.004 C 
ENDBRANCH  20  25
BRANCH  22  29
ATOM     29  C   UNL d   1      52.323  32.254  53.096  0.00  0.00     0.022 C 
ATOM     30  C   UNL d   1      51.711  32.103  53.623  0.00  0.00     0.004 C 
ATOM     31  C   UNL d   1      52.939  32.403  52.567  0.00  0.00     0.004 C 
ATOM     32  C   UNL d   1      52.530  31.457  53.095  0.00  0.00     0.004 C 
ENDBRANCH  22  29
ENDBRANCH  17  18
ENDBRANCH   1  17
TORSDOF 9
ENDMDL
MODEL 5
REMARK VINA RESULT:      -8.5      2.498      3.775
REMARK  9 active torsions:
REMARK  status: ('A' for Active; 'I' for Inactive)
REMARK       I    between atoms: C_5  and  N_1 
REMARK    1  A    between atoms: C_6  and  N_1 
REMARK    2  A    between atoms: C_7  and  C_3 
REMARK    3  A    between atoms: C_8  and  C_4 
REMARK    4  A    between atoms: C_17  and  C_5 
REMARK    5  A    between atoms: N_9  and  C_6 
REMARK    6  A    between atoms: N_14  and  N_9 
REMARK       I    between atoms: C_10  and  N_14 
REMARK    7  A    between atoms: C_20  and  C_10 
REMARK    8  A    between atoms: C_16  and  C_21 
REMARK    9  A    between atoms: C_21  and  C_20 
ROOT
ATOM      1  C   UNL d   1      54.077  32.588  54.801  0.00  0.00     0.064 C 
ENDROOT
BRANCH   1   2
ATOM      2  C   UNL d   1      54.220  33.242  55.276  0.00  0.00     0.297 C 
ATOM      3  N   UNL d   1      53.970  33.990  55.048  0.00  0.00    -0.103 NA
ATOM      4  O   UNL d   1      54.621  33.131  55.988  0.00  0.00    -0.264 OA
BRANCH   3   5
ATOM      5  N   UNL d   1      53.571  34.107  54.340  0.00  0.00    -0.114 NA
BRANCH   5   6
ATOM      6  C   UNL d   1      53.061  34.719  54.230  0.00  0.00     0.243 C 
ATOM      7  S   UNL d   1      53.267  35.480  54.448  0.00  0.00    -0.035 SA
BRANCH   6   8
ATOM      8  N   UNL d   1      52.324  34.573  53.892  0.00  0.00    -0.177 NA
ATOM      9  C   UNL d   1      52.223  34.651  53.082  0.00  0.00     0.281 C 
ATOM     10  O   UNL d   1      52.843  34.874  52.597  0.00  0.00    -0.265 OA
BRANCH   9  11
ATOM     11  C   UNL d   1      51.487  34.503  52.758  0.00  0.00     0.058 A 
ATOM     12  C   UNL d   1      50.806  34.516  53.226  0.00  0.00     0.005 A 
ATOM     13  C   UNL d   1      50.059  34.368  52.908  0.00  0.00     0.000 A 
ATOM     14  C   UNL d   1      49.989  34.201  52.096  0.00  0.00     0.000 A 
ATOM     15  C   UNL d   1      50.661  34.185  51.617  0.00  0.00     0.000 A 
ATOM     16  C   UNL d   1      51.403  34.336  51.951  0.00  0.00     0.005 A 
ENDBRANCH   9  11
ENDBRANCH   6   8
ENDBRANCH   5   6
ENDBRANCH   3   5
ENDBRANCH   1   2
BRANCH   1  17
ATOM     17  C   UNL d   1      53.996  31.847  55.145  0.00  0.00     0.005 C 
BRANCH  17  18
ATOM     18  C   UNL d   1      53.690  31.206  54.711  0.00  0.00    -0.000 A 
ATOM     19  C   UNL d   1      53.706  30.454  55.037  0.00  0.00    -0.001 A 
ATOM     20  C   UNL d   1      53.409  29.810  54.623  0.00  0.00     0.016 A 
ATOM     21  C   UNL d   1      53.092  29.921  53.874  0.00  0.00     0.188 A 
ATOM     22  C   UNL d   1      53.067  30.678  53.529  0.00  0.00     0.016 A 
ATOM     23  O   UNL d   1      52.783  29.267  53.440  0.00  0.00    -0.287 OA
ATOM     24  C   UNL d   1      53.373  31.317  53.962  0.00  0.00    -0.001 A 
BRANCH  20  25
ATOM     25  C   UNL d   1      53.425  29.058  54.949  0.00  0.00     0.022 C 
ATOM     26  C   UNL d   1      54.074  28.849  54.476  0.00  0.00     0.004 C 
ATOM     27  C   UNL d   1      52.765  29.249  55.438  0.00  0.00     0.004 C 
ATOM     28  C   UNL d   1      53.430  28.285  55.293  0.00  0.00     0.004 C 
ENDBRANCH  20  25
BRANCH  22  29
ATOM     29  C   UNL d   1      52.754  30.810  52.780  0.00  0.00     0.022 C 
ATOM     30  C   UNL d   1      52.014  30.944  53.111  0.00  0.00     0.004 C 
ATOM     31  C   UNL d   1      53.496  30.676  52.446  0.00  0.00     0.004 C 
ATOM     32  C   UNL d   1      52.450  30.942  52.026  0.00  0.00     0.004 C 
ENDBRANCH  22  29
ENDBRANCH  17  18
ENDBRANCH   1  17
TORSDOF 9
ENDMDL
MODEL 6
REMARK VINA RESULT:      -8.3      1.730      7.155
REMARK  9 active torsions:
REMARK  status: ('A' for Active; 'I' for Inactive)
REMARK       I    between atoms: C_5  and  N_1 
REMARK    1  A    between atoms: C_6  and  N_1 
REMARK    2  A    between atoms: C_7  and  C_3 
REMARK    3  A    between atoms: C_8  and  C_4 
REMARK    4  A    between atoms: C_17  and  C_5 
REMARK    5  A    between atoms: N_9  and  C_6 
REMARK    6  A    between atoms: N_14  and  N_9 
REMARK       I    between atoms: C_10  and  N_14 
REMARK    7  A    between atoms: C_20  and  C_10 
REMARK    8  A    between atoms: C_16  and  C_21 
REMARK    9  A    between atoms: C_21  and  C_20 
ROOT
ATOM      1  C   UNL d   1      48.060  35.835  53.352  0.00  0.00     0.064 C 
ENDROOT
BRANCH   1   2
ATOM      2  C   UNL d   1      48.818  36.029  53.597  0.00  0.00     0.297 C 
ATOM      3  N   UNL d   1      49.461  35.568  53.380  0.00  0.00    -0.103 NA
ATOM      4  O   UNL d   1      48.921  36.699  54.068  0.00  0.00    -0.264 OA
BRANCH   3   5
ATOM      5  N   UNL d   1      49.366  34.900  52.912  0.00  0.00    -0.114 NA
BRANCH   5   6
ATOM      6  C   UNL d   1      49.985  34.538  52.547  0.00  0.00     0.243 C 
ATOM      7  S   UNL d   1      49.951  34.351  51.751  0.00  0.00    -0.035 SA
BRANCH   6   8
ATOM      8  N   UNL d   1      50.658  34.357  52.984  0.00  0.00    -0.177 NA
ATOM      9  C   UNL d   1      51.360  34.175  52.598  0.00  0.00     0.281 C 
ATOM     10  O   UNL d   1      51.405  34.171  51.782  0.00  0.00    -0.265 OA
BRANCH   9  11
ATOM     11  C   UNL d   1      52.023  33.997  53.044  0.00  0.00     0.058 A 
ATOM     12  C   UNL d   1      52.114  33.251  53.389  0.00  0.00     0.005 A 
ATOM     13  C   UNL d   1      52.780  33.062  53.840  0.00  0.00     0.000 A 
ATOM     14  C   UNL d   1      53.372  33.636  53.949  0.00  0.00     0.000 A 
ATOM     15  C   UNL d   1      53.293  34.384  53.610  0.00  0.00     0.000 A 
ATOM     16  C   UNL d   1      52.620  34.558  53.161  0.00  0.00     0.005 A 
ENDBRANCH   9  11
ENDBRANCH   6   8
ENDBRANCH   5   6
ENDBRANCH   3   5
ENDBRANCH   1   2
BRANCH   1  17
ATOM     17  C   UNL d   1      47.449  36.373  53.459  0.00  0.00     0.005 C 
BRANCH  17  18
ATOM     18  C   UNL d   1      46.662  36.165  53.285  0.00  0.00    -0.000 A 
ATOM     19  C   UNL d   1      46.414  36.141  52.504  0.00  0.00    -0.001 A 
ATOM     20  C   UNL d   1      45.642  35.939  52.313  0.00  0.00     0.016 A 
ATOM     21  C   UNL d   1      45.111  35.758  52.913  0.00  0.00     0.188 A 
ATOM     22  C   UNL d   1      45.345  35.778  53.711  0.00  0.00     0.016 A 
ATOM     23  O   UNL d   1      44.314  35.549  52.729  0.00  0.00    -0.287 OA
ATOM     24  C   UNL d   1      46.131  35.985  53.885  0.00  0.00    -0.001 A 
BRANCH  20  25
ATOM     25  C   UNL d   1      45.394  35.915  51.532  0.00  0.00     0.022 C 
ATOM     26  C   UNL d   1      45.674  35.139  51.450  0.00  0.00     0.004 C 
ATOM     27  C   UNL d   1      45.102  36.704  51.595  0.00  0.00     0.004 C 
ATOM     28  C   UNL d   1      45.133  35.904  50.728  0.00  0.00     0.004 C 
ENDBRANCH  20  25
BRANCH  22  29
ATOM     29  C   UNL d   1      44.830  35.600  54.326  0.00  0.00     0.022 C 
ATOM     30  C   UNL d   1      44.735  36.401  54.482  0.00  0.00     0.004 C 
ATOM     31  C   UNL d   1      44.923  34.795  54.173  0.00  0.00     0.004 C 
ATOM     32  C   UNL d   1      44.314  35.412  54.941  0.00  0.00     0.004 C 
ENDBRANCH  22  29
ENDBRANCH  17  18
ENDBRANCH   1  17
TORSDOF 9
ENDMDL
MODEL 7
REMARK VINA RESULT:      -8.2      1.321      6.794
REMARK  9 active torsions:
REMARK  status: ('A' for Active; 'I' for Inactive)
REMARK       I    between atoms: C_5  and  N_1 
REMARK    1  A    between atoms: C_6  and  N_1 
REMARK    2  A    between atoms: C_7  and  C_3 
REMARK    3  A    between atoms: C_8  and  C_4 
REMARK    4  A    between atoms: C_17  and  C_5 
REMARK    5  A    between atoms: N_9  and  C_6 
REMARK    6  A    between atoms: N_14  and  N_9 
REMARK       I    between atoms: C_10  and  N_14 
REMARK    7  A    between atoms: C_20  and  C_10 
REMARK    8  A    between atoms: C_16  and  C_21 
REMARK    9  A    between atoms: C_21  and  C_20 
ROOT
ATOM      1  C   UNL d   1      49.234  34.765  51.942  0.00  0.00     0.064 C 
ENDROOT
BRANCH   1   2
ATOM      2  C   UNL d   1      49.828  34.440  51.479  0.00  0.00     0.297 C 
ATOM      3  N   UNL d   1      50.545  34.216  51.810  0.00  0.00    -0.103 NA
ATOM      4  O   UNL d   1      49.689  34.342  50.672  0.00  0.00    -0.264 OA
BRANCH   3   5
ATOM      5  N   UNL d   1      50.689  34.311  52.613  0.00  0.00    -0.114 NA
BRANCH   5   6
ATOM      6  C   UNL d   1      51.423  34.223  52.931  0.00  0.00     0.243 C 
ATOM      7  S   UNL d   1      51.798  34.851  53.299  0.00  0.00    -0.035 SA
BRANCH   6   8
ATOM      8  N   UNL d   1      51.796  33.491  52.884  0.00  0.00    -0.177 NA
ATOM      9  C   UNL d   1      52.313  33.256  53.477  0.00  0.00     0.281 C 
ATOM     10  O   UNL d   1      52.466  33.738  54.120  0.00  0.00    -0.265 OA
BRANCH   9  11
ATOM     11  C   UNL d   1      52.678  32.526  53.419  0.00  0.00     0.058 A 
ATOM     12  C   UNL d   1      52.307  31.894  53.036  0.00  0.00     0.005 A 
ATOM     13  C   UNL d   1      52.668  31.155  52.973  0.00  0.00     0.000 A 
ATOM     14  C   UNL d   1      53.424  31.042  53.303  0.00  0.00     0.000 A 
ATOM     15  C   UNL d   1      53.805  31.665  53.688  0.00  0.00     0.000 A 
ATOM     16  C   UNL d   1      53.430  32.400  53.743  0.00  0.00     0.005 A 
ENDBRANCH   9  11
ENDBRANCH   6   8
ENDBRANCH   5   6
ENDBRANCH   3   5
ENDBRANCH   1   2
BRANCH   1  17
ATOM     17  C   UNL d   1      48.484  34.870  51.625  0.00  0.00     0.005 C 
BRANCH  17  18
ATOM     18  C   UNL d   1      47.895  35.278  52.048  0.00  0.00    -0.000 A 
ATOM     19  C   UNL d   1      47.160  35.396  51.705  0.00  0.00    -0.001 A 
ATOM     20  C   UNL d   1      46.567  35.796  52.107  0.00  0.00     0.016 A 
ATOM     21  C   UNL d   1      46.713  36.083  52.863  0.00  0.00     0.188 A 
ATOM     22  C   UNL d   1      47.453  35.972  53.226  0.00  0.00     0.016 A 
ATOM     23  O   UNL d   1      46.111  36.496  53.286  0.00  0.00    -0.287 OA
ATOM     24  C   UNL d   1      48.041  35.564  52.803  0.00  0.00    -0.001 A 
BRANCH  20  25
ATOM     25  C   UNL d   1      45.832  35.914  51.764  0.00  0.00     0.022 C 
ATOM     26  C   UNL d   1      46.106  36.589  51.368  0.00  0.00     0.004 C 
ATOM     27  C   UNL d   1      45.533  35.230  52.158  0.00  0.00     0.004 C 
ATOM     28  C   UNL d   1      45.068  36.023  51.417  0.00  0.00     0.004 C 
ENDBRANCH  20  25
BRANCH  22  29
ATOM     29  C   UNL d   1      47.619  36.251  53.982  0.00  0.00     0.022 C 
ATOM     30  C   UNL d   1      48.231  36.709  53.681  0.00  0.00     0.004 C 
ATOM     31  C   UNL d   1      47.005  35.791  54.286  0.00  0.00     0.004 C 
ATOM     32  C   UNL d   1      47.777  36.524  54.743  0.00  0.00     0.004 C 
ENDBRANCH  22  29
ENDBRANCH  17  18
ENDBRANCH   1  17
TORSDOF 9
ENDMDL
MODEL 8
REMARK VINA RESULT:      -7.8      1.342      6.618
REMARK  9 active torsions:
REMARK  status: ('A' for Active; 'I' for Inactive)
REMARK       I    between atoms: C_5  and  N_1 
REMARK    1  A    between atoms: C_6  and  N_1 
REMARK    2  A    between atoms: C_7  and  C_3 
REMARK    3  A    between atoms: C_8  and  C_4 
REMARK    4  A    between atoms: C_17  and  C_5 
REMARK    5  A    between atoms: N_9  and  C_6 
REMARK    6  A    between atoms: N_14  and  N_9 
REMARK       I    between atoms: C_10  and  N_14 
REMARK    7  A    between atoms: C_20  and  C_10 
REMARK    8  A    between atoms: C_16  and  C_21 
REMARK    9  A    between atoms: C_21  and  C_20 
ROOT
ATOM      1  C   UNL d   1      49.128  34.824  51.989  0.00  0.00     0.064 C 
ENDROOT
BRANCH   1   2
ATOM      2  C   UNL d   1      49.641  34.455  51.467  0.00  0.00     0.297 C 
ATOM      3  N   UNL d   1      50.353  34.141  51.727  0.00  0.00    -0.103 NA
ATOM      4  O   UNL d   1      49.426  34.406  50.672  0.00  0.00    -0.264 OA
BRANCH   3   5
ATOM      5  N   UNL d   1      50.573  34.186  52.517  0.00  0.00    -0.114 NA
BRANCH   5   6
ATOM      6  C   UNL d   1      51.339  34.130  52.755  0.00  0.00     0.243 C 
ATOM      7  S   UNL d   1      51.742  34.786  53.030  0.00  0.00    -0.035 SA
BRANCH   6   8
ATOM      8  N   UNL d   1      51.718  33.399  52.718  0.00  0.00    -0.177 NA
ATOM      9  C   UNL d   1      52.131  33.120  53.371  0.00  0.00     0.281 C 
ATOM     10  O   UNL d   1      52.174  33.555  54.062  0.00  0.00    -0.265 OA
BRANCH   9  11
ATOM     11  C   UNL d   1      52.503  32.393  53.323  0.00  0.00     0.058 A 
ATOM     12  C   UNL d   1      52.065  31.694  53.263  0.00  0.00     0.005 A 
ATOM     13  C   UNL d   1      52.433  30.957  53.214  0.00  0.00     0.000 A 
ATOM     14  C   UNL d   1      53.264  30.915  53.225  0.00  0.00     0.000 A 
ATOM     15  C   UNL d   1      53.712  31.605  53.284  0.00  0.00     0.000 A 
ATOM     16  C   UNL d   1      53.329  32.337  53.332  0.00  0.00     0.005 A 
ENDBRANCH   9  11
ENDBRANCH   6   8
ENDBRANCH   5   6
ENDBRANCH   3   5
ENDBRANCH   1   2
BRANCH   1  17
ATOM     17  C   UNL d   1      48.602  35.390  51.711  0.00  0.00     0.005 C 
BRANCH  17  18
ATOM     18  C   UNL d   1      47.932  35.605  52.153  0.00  0.00    -0.000 A 
ATOM     19  C   UNL d   1      48.012  35.777  52.951  0.00  0.00    -0.001 A 
ATOM     20  C   UNL d   1      47.362  35.991  53.403  0.00  0.00     0.016 A 
ATOM     21  C   UNL d   1      46.621  36.033  53.052  0.00  0.00     0.188 A 
ATOM     22  C   UNL d   1      46.520  35.862  52.244  0.00  0.00     0.016 A 
ATOM     23  O   UNL d   1      45.944  36.252  53.507  0.00  0.00    -0.287 OA
ATOM     24  C   UNL d   1      47.191  35.647  51.802  0.00  0.00    -0.001 A 
BRANCH  20  25
ATOM     25  C   UNL d   1      47.442  36.164  54.201  0.00  0.00     0.022 C 
ATOM     26  C   UNL d   1      46.836  35.632  54.394  0.00  0.00     0.004 C 
ATOM     27  C   UNL d   1      48.061  36.709  54.026  0.00  0.00     0.004 C 
ATOM     28  C   UNL d   1      47.537  36.351  55.020  0.00  0.00     0.004 C 
ENDBRANCH  20  25
BRANCH  22  29
ATOM     29  C   UNL d   1      45.787  35.898  51.874  0.00  0.00     0.022 C 
ATOM     30  C   UNL d   1      45.871  36.709  51.781  0.00  0.00     0.004 C 
ATOM     31  C   UNL d   1      45.701  35.082  51.966  0.00  0.00     0.004 C 
ATOM     32  C   UNL d   1      45.051  35.923  51.503  0.00  0.00     0.004 C 
ENDBRANCH  22  29
ENDBRANCH  17  18
ENDBRANCH   1  17
TORSDOF 9
ENDMDL
