MODEL 1
REMARK VINA RESULT:      61.0      0.000      0.000
REMARK  9 active torsions:
REMARK  status: ('A' for Active; 'I' for Inactive)
REMARK    1  A    between atoms: N_2  and  S_1 
REMARK    2  A    between atoms: C_12  and  S_1 
REMARK    3  A    between atoms: C_4  and  N_2 
REMARK    4  A    between atoms: N_6  and  C_8 
REMARK       I    between atoms: C_9  and  N_6 
REMARK    5  A    between atoms: O_22  and  C_7 
REMARK    6  A    between atoms: C_8  and  N_15 
REMARK    7  A    between atoms: C_16  and  C_9 
REMARK    8  A    between atoms: O_23  and  C_10 
REMARK    9  A    between atoms: N_15  and  C_21 
ROOT
ATOM      1  C   UNL d   1     -49.018  27.636  34.330  0.00  0.00     0.105 A 
ATOM      2  C   UNL d   1     -48.470  27.474  34.902  0.00  0.00     0.015 A 
ATOM      3  C   UNL d   1     -49.308  28.398  34.238  0.00  0.00     0.015 A 
ATOM      4  C   UNL d   1     -48.490  28.843  35.306  0.00  0.00     0.084 A 
ATOM      5  C   UNL d   1     -48.193  28.054  35.397  0.00  0.00     0.020 A 
ATOM      6  C   UNL d   1     -49.043  28.992  34.724  0.00  0.00     0.020 A 
ENDROOT
BRANCH   1   7
ATOM      7  S   UNL d   1     -49.299  27.034  33.823  0.00  0.00     0.287 S 
ATOM      8  O   UNL d   1     -48.505  26.803  33.680  0.00  0.00    -0.198 OA
ATOM      9  O   UNL d   1     -50.073  27.266  33.970  0.00  0.00    -0.198 OA
BRANCH   7  10
ATOM     10  N   UNL d   1     -49.555  26.427  33.314  0.00  0.00    -0.139 NA
BRANCH  10  11
ATOM     11  C   UNL d   1     -50.321  26.112  33.363  0.00  0.00     0.182 A 
ATOM     12  N   UNL d   1     -50.426  25.327  33.460  0.00  0.00    -0.185 NA
ATOM     13  C   UNL d   1     -51.184  25.001  33.511  0.00  0.00     0.274 A 
ATOM     14  N   UNL d   1     -51.827  25.476  33.461  0.00  0.00    -0.181 NA
ATOM     15  C   UNL d   1     -51.750  26.283  33.361  0.00  0.00     0.185 A 
ATOM     16  C   UNL d   1     -50.950  26.612  33.310  0.00  0.00     0.084 A 
BRANCH  13  17
ATOM     17  O   UNL d   1     -51.297  24.172  33.613  0.00  0.00    -0.297 OA
ATOM     18  C   UNL d   1     -50.698  23.641  33.437  0.00  0.00     0.185 C 
ENDBRANCH  13  17
BRANCH  15  19
ATOM     19  O   UNL d   1     -52.434  26.744  33.314  0.00  0.00    -0.312 OA
ATOM     20  C   UNL d   1     -53.176  26.386  33.357  0.00  0.00     0.183 C 
ENDBRANCH  15  19
ENDBRANCH  10  11
ENDBRANCH   7  10
ENDBRANCH   1   7
BRANCH   4  21
ATOM     21  N   UNL d   1     -48.232  29.462  35.792  0.00  0.00    -0.217 NA
BRANCH  21  22
ATOM     22  C   UNL d   1     -47.590  29.899  35.574  0.00  0.00     0.223 C 
ATOM     23  S   UNL d   1     -46.830  29.700  35.858  0.00  0.00    -0.037 SA
BRANCH  22  24
ATOM     24  N   UNL d   1     -47.686  30.537  35.076  0.00  0.00    -0.183 NA
ATOM     25  C   UNL d   1     -47.419  31.281  35.286  0.00  0.00     0.257 C 
ATOM     26  O   UNL d   1     -47.037  31.383  36.033  0.00  0.00    -0.270 OA
BRANCH  25  27
ATOM     27  C   UNL d   1     -47.516  31.926  34.781  0.00  0.00     0.073 C 
ATOM     28  C   UNL d   1     -48.345  31.832  34.821  0.00  0.00     0.009 C 
ATOM     29  C   UNL d   1     -46.691  32.021  34.742  0.00  0.00     0.009 C 
ATOM     30  C   UNL d   1     -47.615  32.577  34.273  0.00  0.00     0.009 C 
ENDBRANCH  25  27
ENDBRANCH  22  24
ENDBRANCH  21  22
ENDBRANCH   4  21
TORSDOF 9
ENDMDL
