MODEL 1
REMARK VINA RESULT:      -8.9      0.000      0.000
REMARK  4 active torsions:
REMARK  status: ('A' for Active; 'I' for Inactive)
REMARK       I    between atoms: N_2  and  C_3 
REMARK    1  A    between atoms: C_3  and  C_8 
REMARK    2  A    between atoms: S_7  and  C_5 
REMARK    3  A    between atoms: C_10  and  C_6 
REMARK    4  A    between atoms: C_8  and  S_7 
ROOT
ATOM      1  N   UNL d   1      51.914  33.246  53.725  0.00  0.00    -0.148 NA
ATOM      2  N   UNL d   1      51.214  33.389  53.313  0.00  0.00    -0.141 NA
ATOM      3  C   UNL d   1      51.161  34.021  52.789  0.00  0.00     0.133 A 
ATOM      4  C   UNL d   1      52.564  33.743  53.609  0.00  0.00     0.103 A 
ATOM      5  C   UNL d   1      52.518  34.374  53.089  0.00  0.00     0.023 A 
ATOM      6  C   UNL d   1      51.824  34.519  52.677  0.00  0.00     0.029 A 
ENDROOT
BRANCH   3   7
ATOM      7  S   UNL d   1      50.465  34.159  52.383  0.00  0.00    -0.061 SA
BRANCH   7   8
ATOM      8  C   UNL d   1      49.891  34.652  52.705  0.00  0.00     0.098 C 
BRANCH   8   9
ATOM      9  C   UNL d   1      49.226  34.853  52.262  0.00  0.00     0.271 C 
ATOM     10  N   UNL d   1      48.658  35.356  52.584  0.00  0.00    -0.272 N 
ATOM     11  C   UNL d   1      47.999  35.557  52.149  0.00  0.00     0.083 A 
ATOM     12  C   UNL d   1      48.763  35.652  53.347  0.00  0.00     0.083 A 
ATOM     13  C   UNL d   1      47.431  36.055  52.460  0.00  0.00     0.019 A 
ATOM     14  C   UNL d   1      47.523  36.362  53.229  0.00  0.00     0.003 A 
ATOM     15  C   UNL d   1      48.194  36.154  53.665  0.00  0.00     0.019 A 
ATOM     16  O   UNL d   1      49.122  34.560  51.506  0.00  0.00    -0.266 OA
ENDBRANCH   8   9
ENDBRANCH   7   8
ENDBRANCH   3   7
BRANCH   4  17
ATOM     17  C   UNL d   1      53.265  33.601  54.021  0.00  0.00     0.019 A 
ATOM     18  C   UNL d   1      53.840  33.092  53.704  0.00  0.00     0.002 A 
ATOM     19  C   UNL d   1      54.543  32.949  54.117  0.00  0.00     0.000 A 
ATOM     20  C   UNL d   1      54.677  33.314  54.851  0.00  0.00     0.000 A 
ATOM     21  C   UNL d   1      54.112  33.815  55.164  0.00  0.00     0.000 A 
ATOM     22  C   UNL d   1      53.405  33.965  54.759  0.00  0.00     0.002 A 
ENDBRANCH   4  17
TORSDOF 4
ENDMDL
MODEL 2
REMARK VINA RESULT:      -7.9      1.932      5.477
REMARK  4 active torsions:
REMARK  status: ('A' for Active; 'I' for Inactive)
REMARK       I    between atoms: N_2  and  C_3 
REMARK    1  A    between atoms: C_3  and  C_8 
REMARK    2  A    between atoms: S_7  and  C_5 
REMARK    3  A    between atoms: C_10  and  C_6 
REMARK    4  A    between atoms: C_8  and  S_7 
ROOT
ATOM      1  N   UNL d   1      50.060  34.161  53.046  0.00  0.00    -0.148 NA
ATOM      2  N   UNL d   1      50.780  33.862  53.317  0.00  0.00    -0.141 NA
ATOM      3  C   UNL d   1      51.438  33.851  52.824  0.00  0.00     0.133 A 
ATOM      4  C   UNL d   1      50.005  34.451  52.273  0.00  0.00     0.103 A 
ATOM      5  C   UNL d   1      50.657  34.443  51.778  0.00  0.00     0.023 A 
ATOM      6  C   UNL d   1      51.373  34.146  52.044  0.00  0.00     0.029 A 
ENDROOT
BRANCH   3   7
ATOM      7  S   UNL d   1      52.149  33.553  53.097  0.00  0.00    -0.061 SA
BRANCH   7   8
ATOM      8  C   UNL d   1      52.326  32.756  52.999  0.00  0.00     0.098 C 
BRANCH   8   9
ATOM      9  C   UNL d   1      52.997  32.438  53.355  0.00  0.00     0.271 C 
ATOM     10  N   UNL d   1      53.115  31.621  53.347  0.00  0.00    -0.272 N 
ATOM     11  C   UNL d   1      53.778  31.302  53.698  0.00  0.00     0.083 A 
ATOM     12  C   UNL d   1      52.559  31.134  52.981  0.00  0.00     0.083 A 
ATOM     13  C   UNL d   1      53.903  30.496  53.694  0.00  0.00     0.019 A 
ATOM     14  C   UNL d   1      53.350  29.991  53.329  0.00  0.00     0.003 A 
ATOM     15  C   UNL d   1      52.680  30.320  52.974  0.00  0.00     0.019 A 
ATOM     16  O   UNL d   1      53.548  32.920  53.718  0.00  0.00    -0.266 OA
ENDBRANCH   8   9
ENDBRANCH   7   8
ENDBRANCH   3   7
BRANCH   4  17
ATOM     17  C   UNL d   1      49.286  34.751  52.001  0.00  0.00     0.019 A 
ATOM     18  C   UNL d   1      48.848  35.276  52.472  0.00  0.00     0.002 A 
ATOM     19  C   UNL d   1      48.125  35.577  52.198  0.00  0.00     0.000 A 
ATOM     20  C   UNL d   1      47.837  35.355  51.452  0.00  0.00     0.000 A 
ATOM     21  C   UNL d   1      48.267  34.838  50.988  0.00  0.00     0.000 A 
ATOM     22  C   UNL d   1      48.991  34.531  51.251  0.00  0.00     0.002 A 
ENDBRANCH   4  17
TORSDOF 4
ENDMDL
MODEL 3
REMARK VINA RESULT:      -7.8      1.365      5.253
REMARK  4 active torsions:
REMARK  status: ('A' for Active; 'I' for Inactive)
REMARK       I    between atoms: N_2  and  C_3 
REMARK    1  A    between atoms: C_3  and  C_8 
REMARK    2  A    between atoms: S_7  and  C_5 
REMARK    3  A    between atoms: C_10  and  C_6 
REMARK    4  A    between atoms: C_8  and  S_7 
ROOT
ATOM      1  N   UNL d   1      49.968  33.979  53.163  0.00  0.00    -0.148 NA
ATOM      2  N   UNL d   1      50.666  33.555  53.282  0.00  0.00    -0.141 NA
ATOM      3  C   UNL d   1      51.282  33.607  52.740  0.00  0.00     0.133 A 
ATOM      4  C   UNL d   1      49.891  34.458  52.493  0.00  0.00     0.103 A 
ATOM      5  C   UNL d   1      50.500  34.514  51.949  0.00  0.00     0.023 A 
ATOM      6  C   UNL d   1      51.195  34.094  52.064  0.00  0.00     0.029 A 
ENDROOT
BRANCH   3   7
ATOM      7  S   UNL d   1      51.971  33.186  52.862  0.00  0.00    -0.061 SA
BRANCH   7   8
ATOM      8  C   UNL d   1      52.514  33.438  53.426  0.00  0.00     0.098 C 
BRANCH   8   9
ATOM      9  C   UNL d   1      53.235  33.049  53.506  0.00  0.00     0.271 C 
ATOM     10  N   UNL d   1      53.772  33.298  54.081  0.00  0.00    -0.272 N 
ATOM     11  C   UNL d   1      54.487  32.915  54.163  0.00  0.00     0.083 A 
ATOM     12  C   UNL d   1      53.578  33.935  54.569  0.00  0.00     0.083 A 
ATOM     13  C   UNL d   1      55.024  33.155  54.729  0.00  0.00     0.019 A 
ATOM     14  C   UNL d   1      54.843  33.796  55.229  0.00  0.00     0.003 A 
ATOM     15  C   UNL d   1      54.116  34.180  55.140  0.00  0.00     0.019 A 
ATOM     16  O   UNL d   1      53.426  32.418  53.023  0.00  0.00    -0.266 OA
ENDBRANCH   8   9
ENDBRANCH   7   8
ENDBRANCH   3   7
BRANCH   4  17
ATOM     17  C   UNL d   1      49.193  34.881  52.373  0.00  0.00     0.019 A 
ATOM     18  C   UNL d   1      48.764  34.789  51.668  0.00  0.00     0.002 A 
ATOM     19  C   UNL d   1      48.063  35.215  51.548  0.00  0.00     0.000 A 
ATOM     20  C   UNL d   1      47.787  35.736  52.132  0.00  0.00     0.000 A 
ATOM     21  C   UNL d   1      48.208  35.828  52.826  0.00  0.00     0.000 A 
ATOM     22  C   UNL d   1      48.910  35.407  52.957  0.00  0.00     0.002 A 
ENDBRANCH   4  17
TORSDOF 4
ENDMDL
MODEL 4
REMARK VINA RESULT:      -7.5      1.208      1.693
REMARK  4 active torsions:
REMARK  status: ('A' for Active; 'I' for Inactive)
REMARK       I    between atoms: N_2  and  C_3 
REMARK    1  A    between atoms: C_3  and  C_8 
REMARK    2  A    between atoms: S_7  and  C_5 
REMARK    3  A    between atoms: C_10  and  C_6 
REMARK    4  A    between atoms: C_8  and  S_7 
ROOT
ATOM      1  N   UNL d   1      51.318  32.800  53.393  0.00  0.00    -0.148 NA
ATOM      2  N   UNL d   1      50.728  33.375  53.348  0.00  0.00    -0.141 NA
ATOM      3  C   UNL d   1      50.913  34.145  53.124  0.00  0.00     0.133 A 
ATOM      4  C   UNL d   1      52.099  33.003  53.211  0.00  0.00     0.103 A 
ATOM      5  C   UNL d   1      52.290  33.767  52.987  0.00  0.00     0.023 A 
ATOM      6  C   UNL d   1      51.706  34.341  52.941  0.00  0.00     0.029 A 
ENDROOT
BRANCH   3   7
ATOM      7  S   UNL d   1      50.325  34.711  53.080  0.00  0.00    -0.061 SA
BRANCH   7   8
ATOM      8  C   UNL d   1      49.733  34.647  52.513  0.00  0.00     0.098 C 
BRANCH   8   9
ATOM      9  C   UNL d   1      49.077  35.143  52.547  0.00  0.00     0.271 C 
ATOM     10  N   UNL d   1      48.530  35.138  51.929  0.00  0.00    -0.272 N 
ATOM     11  C   UNL d   1      47.878  35.627  51.959  0.00  0.00     0.083 A 
ATOM     12  C   UNL d   1      48.648  34.636  51.285  0.00  0.00     0.083 A 
ATOM     13  C   UNL d   1      47.332  35.629  51.353  0.00  0.00     0.019 A 
ATOM     14  C   UNL d   1      47.438  35.128  50.696  0.00  0.00     0.003 A 
ATOM     15  C   UNL d   1      48.100  34.634  50.672  0.00  0.00     0.019 A 
ATOM     16  O   UNL d   1      48.960  35.641  53.184  0.00  0.00    -0.266 OA
ENDBRANCH   8   9
ENDBRANCH   7   8
ENDBRANCH   3   7
BRANCH   4  17
ATOM     17  C   UNL d   1      52.690  32.429  53.256  0.00  0.00     0.019 A 
ATOM     18  C   UNL d   1      52.556  31.667  52.952  0.00  0.00     0.002 A 
ATOM     19  C   UNL d   1      53.150  31.090  52.997  0.00  0.00     0.000 A 
ATOM     20  C   UNL d   1      53.881  31.271  53.347  0.00  0.00     0.000 A 
ATOM     21  C   UNL d   1      54.014  32.020  53.646  0.00  0.00     0.000 A 
ATOM     22  C   UNL d   1      53.427  32.605  53.607  0.00  0.00     0.002 A 
ENDBRANCH   4  17
TORSDOF 4
ENDMDL
