MODEL 1
REMARK VINA RESULT:      34.8      0.000      0.000
REMARK  2 active torsions:
REMARK  status: ('A' for Active; 'I' for Inactive)
REMARK    1  A    between atoms: C_4  and  C_1 
REMARK    2  A    between atoms: C_8  and  C_4 
ROOT
ATOM      1  C   UNL d   1     -54.765-101.440 -43.330  0.00  0.00     0.139 A 
ATOM      2  O   UNL d   1     -54.826-102.235 -43.103  0.00  0.00    -0.304 OA
ATOM      3  C   UNL d   1     -54.713-100.974 -42.673  0.00  0.00     0.030 A 
ATOM      4  C   UNL d   1     -54.811-102.245 -42.274  0.00  0.00     0.100 A 
ATOM      5  C   UNL d   1     -54.741-101.469 -42.009  0.00  0.00     0.025 A 
ATOM      6  C   UNL d   1     -54.853-102.874 -41.733  0.00  0.00     0.025 A 
ATOM      7  C   UNL d   1     -54.712-101.301 -41.195  0.00  0.00     0.002 A 
ATOM      8  C   UNL d   1     -54.823-102.705 -40.925  0.00  0.00     0.002 A 
ATOM      9  C   UNL d   1     -54.753-101.929 -40.660  0.00  0.00     0.000 A 
ENDROOT
BRANCH   1  10
ATOM     10  C   UNL d   1     -54.758-101.168 -44.127  0.00  0.00     0.218 C 
ATOM     11  O   UNL d   1     -54.729-101.709 -44.758  0.00  0.00    -0.284 OA
BRANCH  10  12
ATOM     12  C   UNL d   1     -54.779-100.361 -44.299  0.00  0.00     0.041 A 
ATOM     13  C   UNL d   1     -54.773-100.126 -45.093  0.00  0.00     0.003 A 
ATOM     14  C   UNL d   1     -54.794 -99.313 -45.270  0.00  0.00     0.000 A 
ATOM     15  C   UNL d   1     -54.820 -98.755 -44.667  0.00  0.00     0.000 A 
ATOM     16  C   UNL d   1     -54.825 -98.997 -43.876  0.00  0.00     0.000 A 
ATOM     17  C   UNL d   1     -54.804 -99.802 -43.697  0.00  0.00     0.003 A 
ENDBRANCH  10  12
ENDBRANCH   1  10
TORSDOF 2
ENDMDL
