MODEL 1
REMARK VINA RESULT:       1.5      0.000      0.000
REMARK  4 active torsions:
REMARK  status: ('A' for Active; 'I' for Inactive)
REMARK    1  A    between atoms: S_2  and  N_1 
REMARK    2  A    between atoms: C_10  and  S_2 
REMARK    3  A    between atoms: C_7  and  C_4 
REMARK    4  A    between atoms: C_12  and  C_5 
ROOT
ATOM      1  N   UNL d   1      32.580  21.984 -20.521  0.00  0.00    -0.152 N 
ATOM      2  N   UNL d   1      32.559  22.002 -19.709  0.00  0.00    -0.155 NA
ATOM      3  C   UNL d   1      32.484  22.789 -19.474  0.00  0.00     0.110 A 
ATOM      4  C   UNL d   1      32.520  22.758 -20.805  0.00  0.00     0.096 A 
ATOM      5  C   UNL d   1      32.459  23.270 -20.137  0.00  0.00     0.041 A 
ENDROOT
BRANCH   1   6
ATOM      6  S   UNL d   1      32.649  21.326 -20.976  0.00  0.00     0.286 S 
ATOM      7  O   UNL d   1      33.224  21.414 -20.380  0.00  0.00    -0.198 OA
ATOM      8  O   UNL d   1      33.225  20.724 -20.922  0.00  0.00    -0.198 OA
BRANCH   6   9
ATOM      9  C   UNL d   1      32.579  20.712 -21.523  0.00  0.00     0.105 A 
ATOM     10  C   UNL d   1      33.239  20.256 -21.717  0.00  0.00     0.013 A 
ATOM     11  C   UNL d   1      33.171  19.639 -22.267  0.00  0.00     0.001 A 
ATOM     12  C   UNL d   1      32.442  19.481 -22.619  0.00  0.00     0.000 A 
ATOM     13  C   UNL d   1      31.781  19.941 -22.423  0.00  0.00     0.001 A 
ATOM     14  C   UNL d   1      31.850  20.555 -21.876  0.00  0.00     0.013 A 
ENDBRANCH   6   9
ENDBRANCH   1   6
BRANCH   4  15
ATOM     15  C   UNL d   1      32.519  22.994 -21.596  0.00  0.00     0.019 A 
ATOM     16  C   UNL d   1      31.799  23.057 -22.006  0.00  0.00     0.002 A 
ATOM     17  C   UNL d   1      31.799  23.284 -22.769  0.00  0.00     0.007 A 
ATOM     18  C   UNL d   1      32.518  23.465 -23.177  0.00  0.00     0.035 A 
ATOM     19  C   UNL d   1      33.230  23.393 -22.738  0.00  0.00     0.007 A 
ATOM     20 BR   UNL d   1      32.517  23.701 -23.968  0.00  0.00    -0.049 Br
ATOM     21  C   UNL d   1      33.231  23.165 -21.975  0.00  0.00     0.002 A 
ENDBRANCH   4  15
BRANCH   3  22
ATOM     22  C   UNL d   1      32.440  23.072 -18.703  0.00  0.00     0.049 A 
ATOM     23  S   UNL d   1      31.739  23.167 -18.259  0.00  0.00    -0.085 SA
ATOM     24  C   UNL d   1      32.002  23.456 -17.557  0.00  0.00     0.035 A 
ATOM     25  C   UNL d   1      32.750  23.554 -17.496  0.00  0.00     0.007 A 
ATOM     26  C   UNL d   1      33.052  23.319 -18.207  0.00  0.00     0.009 A 
ENDBRANCH   3  22
TORSDOF 4
ENDMDL
MODEL 2
REMARK VINA RESULT:       2.2      3.554      5.472
REMARK  4 active torsions:
REMARK  status: ('A' for Active; 'I' for Inactive)
REMARK    1  A    between atoms: S_2  and  N_1 
REMARK    2  A    between atoms: C_10  and  S_2 
REMARK    3  A    between atoms: C_7  and  C_4 
REMARK    4  A    between atoms: C_12  and  C_5 
ROOT
ATOM      1  N   UNL d   1      31.664  18.572 -23.477  0.00  0.00    -0.152 N 
ATOM      2  N   UNL d   1      31.705  19.245 -23.023  0.00  0.00    -0.155 NA
ATOM      3  C   UNL d   1      32.482  19.324 -22.757  0.00  0.00     0.110 A 
ATOM      4  C   UNL d   1      32.412  18.222 -23.502  0.00  0.00     0.096 A 
ATOM      5  C   UNL d   1      32.933  18.702 -23.042  0.00  0.00     0.041 A 
ENDROOT
BRANCH   1   6
ATOM      6  S   UNL d   1      31.006  18.291 -23.843  0.00  0.00     0.286 S 
ATOM      7  O   UNL d   1      31.288  19.023 -24.121  0.00  0.00    -0.198 OA
ATOM      8  O   UNL d   1      30.576  18.644 -24.464  0.00  0.00    -0.198 OA
BRANCH   6   9
ATOM      9  C   UNL d   1      30.349  17.869 -24.109  0.00  0.00     0.105 A 
ATOM     10  C   UNL d   1      29.986  18.077 -24.821  0.00  0.00     0.013 A 
ATOM     11  C   UNL d   1      29.326  17.654 -25.090  0.00  0.00     0.001 A 
ATOM     12  C   UNL d   1      29.032  17.025 -24.645  0.00  0.00     0.000 A 
ATOM     13  C   UNL d   1      29.398  16.818 -23.931  0.00  0.00     0.001 A 
ATOM     14  C   UNL d   1      30.055  17.239 -23.664  0.00  0.00     0.013 A 
ENDBRANCH   6   9
ENDBRANCH   1   6
BRANCH   4  15
ATOM     15  C   UNL d   1      32.619  17.530 -23.900  0.00  0.00     0.019 A 
ATOM     16  C   UNL d   1      32.480  16.792 -23.544  0.00  0.00     0.002 A 
ATOM     17  C   UNL d   1      32.680  16.124 -23.928  0.00  0.00     0.007 A 
ATOM     18  C   UNL d   1      33.033  16.145 -24.697  0.00  0.00     0.035 A 
ATOM     19  C   UNL d   1      33.161  16.904 -25.033  0.00  0.00     0.007 A 
ATOM     20 BR   UNL d   1      33.240  15.453 -25.096  0.00  0.00    -0.049 Br
ATOM     21  C   UNL d   1      32.962  17.572 -24.649  0.00  0.00     0.002 A 
ENDBRANCH   4  15
BRANCH   3  22
ATOM     22  C   UNL d   1      32.782  19.924 -22.280  0.00  0.00     0.049 A 
ATOM     23  S   UNL d   1      32.975  19.850 -21.471  0.00  0.00    -0.085 SA
ATOM     24  C   UNL d   1      33.240  20.584 -21.277  0.00  0.00     0.035 A 
ATOM     25  C   UNL d   1      33.241  21.096 -21.833  0.00  0.00     0.007 A 
ATOM     26  C   UNL d   1      32.956  20.705 -22.480  0.00  0.00     0.009 A 
ENDBRANCH   3  22
TORSDOF 4
ENDMDL
MODEL 3
REMARK VINA RESULT:       2.6      3.373      5.106
REMARK  4 active torsions:
REMARK  status: ('A' for Active; 'I' for Inactive)
REMARK    1  A    between atoms: S_2  and  N_1 
REMARK    2  A    between atoms: C_10  and  S_2 
REMARK    3  A    between atoms: C_7  and  C_4 
REMARK    4  A    between atoms: C_12  and  C_5 
ROOT
ATOM      1  N   UNL d   1      32.486  18.432 -23.436  0.00  0.00    -0.152 N 
ATOM      2  N   UNL d   1      32.940  18.927 -22.978  0.00  0.00    -0.155 NA
ATOM      3  C   UNL d   1      32.459  19.545 -22.719  0.00  0.00     0.110 A 
ATOM      4  C   UNL d   1      31.717  18.733 -23.470  0.00  0.00     0.096 A 
ATOM      5  C   UNL d   1      31.700  19.442 -23.012  0.00  0.00     0.041 A 
ENDROOT
BRANCH   1   6
ATOM      6  S   UNL d   1      32.740  17.761 -23.797  0.00  0.00     0.286 S 
ATOM      7  O   UNL d   1      33.013  18.474 -24.129  0.00  0.00    -0.198 OA
ATOM      8  O   UNL d   1      33.241  17.696 -24.461  0.00  0.00    -0.198 OA
BRANCH   6   9
ATOM      9  C   UNL d   1      32.905  16.993 -24.047  0.00  0.00     0.105 A 
ATOM     10  C   UNL d   1      33.064  16.843 -24.843  0.00  0.00     0.013 A 
ATOM     11  C   UNL d   1      33.230  16.072 -25.097  0.00  0.00     0.001 A 
ATOM     12  C   UNL d   1      33.237  15.453 -24.552  0.00  0.00     0.000 A 
ATOM     13  C   UNL d   1      33.078  15.605 -23.753  0.00  0.00     0.001 A 
ATOM     14  C   UNL d   1      32.912  16.374 -23.502  0.00  0.00     0.013 A 
ENDBRANCH   6   9
ENDBRANCH   1   6
BRANCH   4  15
ATOM     15  C   UNL d   1      31.077  18.405 -23.875  0.00  0.00     0.019 A 
ATOM     16  C   UNL d   1      30.919  18.641 -24.656  0.00  0.00     0.002 A 
ATOM     17  C   UNL d   1      30.302  18.324 -25.047  0.00  0.00     0.007 A 
ATOM     18  C   UNL d   1      29.798  17.749 -24.685  0.00  0.00     0.035 A 
ATOM     19  C   UNL d   1      29.981  17.529 -23.895  0.00  0.00     0.007 A 
ATOM     20 BR   UNL d   1      29.159  17.421 -25.090  0.00  0.00    -0.049 Br
ATOM     21  C   UNL d   1      30.598  17.845 -23.505  0.00  0.00     0.002 A 
ENDBRANCH   4  15
BRANCH   3  22
ATOM     22  C   UNL d   1      32.681  20.177 -22.241  0.00  0.00     0.049 A 
ATOM     23  S   UNL d   1      33.087  20.860 -22.496  0.00  0.00    -0.085 SA
ATOM     24  C   UNL d   1      33.164  21.292 -21.823  0.00  0.00     0.035 A 
ATOM     25  C   UNL d   1      32.872  20.987 -21.195  0.00  0.00     0.007 A 
ATOM     26  C   UNL d   1      32.560  20.280 -21.431  0.00  0.00     0.009 A 
ENDBRANCH   3  22
TORSDOF 4
ENDMDL
