MODEL 1
REMARK VINA RESULT:      97.0      0.000      0.000
REMARK  7 active torsions:
REMARK  status: ('A' for Active; 'I' for Inactive)
REMARK    1  A    between atoms: C_5  and  N_1 
REMARK    2  A    between atoms: S_12  and  C_2 
REMARK       I    between atoms: N_3  and  C_9 
REMARK    3  A    between atoms: C_15  and  C_4 
REMARK    4  A    between atoms: C_9  and  C_20 
REMARK       I    between atoms: C_10  and  N_14 
REMARK    5  A    between atoms: C_11  and  C_10 
REMARK    6  A    between atoms: C_20  and  S_12 
REMARK    7  A    between atoms: N_14  and  C_15 
ROOT
ATOM      1  N   UNL d   1     -49.172  27.807  35.006  0.00  0.00    -0.268 N 
ATOM      2  C   UNL d   1     -49.379  27.370  34.335  0.00  0.00     0.201 A 
ATOM      3  C   UNL d   1     -48.636  28.398  34.775  0.00  0.00     0.190 A 
ATOM      4  N   UNL d   1     -48.970  27.689  33.683  0.00  0.00    -0.121 NA
ATOM      5  N   UNL d   1     -48.512  28.322  33.953  0.00  0.00    -0.126 NA
ENDROOT
BRANCH   2   6
ATOM      6  S   UNL d   1     -49.893  26.736  34.313  0.00  0.00    -0.043 SA
BRANCH   6   7
ATOM      7  C   UNL d   1     -50.193  26.463  33.593  0.00  0.00     0.099 C 
BRANCH   7   8
ATOM      8  C   UNL d   1     -50.897  26.051  33.565  0.00  0.00     0.271 C 
ATOM      9  N   UNL d   1     -50.896  25.234  33.480  0.00  0.00    -0.273 N 
ATOM     10  C   UNL d   1     -51.564  24.752  33.444  0.00  0.00     0.067 A 
ATOM     11  C   UNL d   1     -50.228  24.758  33.416  0.00  0.00     0.083 A 
ATOM     12  C   UNL d   1     -51.303  23.971  33.357  0.00  0.00     0.018 A 
ATOM     13  C   UNL d   1     -52.370  24.931  33.480  0.00  0.00     0.018 A 
ATOM     14  C   UNL d   1     -51.857  23.366  33.306  0.00  0.00     0.002 A 
ATOM     15  C   UNL d   1     -50.488  23.980  33.341  0.00  0.00     0.021 A 
ATOM     16  C   UNL d   1     -52.673  23.536  33.341  0.00  0.00     0.000 A 
ATOM     17  C   UNL d   1     -52.924  24.314  33.427  0.00  0.00     0.002 A 
ATOM     18  O   UNL d   1     -51.616  26.458  33.622  0.00  0.00    -0.266 OA
ENDBRANCH   7   8
ENDBRANCH   6   7
ENDBRANCH   2   6
BRANCH   1  19
ATOM     19  C   UNL d   1     -49.446  27.682  35.763  0.00  0.00     0.067 A 
ATOM     20  C   UNL d   1     -48.952  27.810  36.406  0.00  0.00     0.016 A 
ATOM     21  C   UNL d   1     -49.230  27.682  37.174  0.00  0.00     0.001 A 
ATOM     22  C   UNL d   1     -48.180  28.064  36.293  0.00  0.00     0.002 C 
ATOM     23  C   UNL d   1     -49.999  27.429  37.292  0.00  0.00     0.000 A 
ATOM     24  C   UNL d   1     -50.498  27.300  36.638  0.00  0.00     0.001 A 
ATOM     25  C   UNL d   1     -50.228  27.424  35.880  0.00  0.00     0.018 A 
ATOM     26  C   UNL d   1     -51.272  27.044  36.767  0.00  0.00     0.000 C 
ENDBRANCH   1  19
BRANCH   3  27
ATOM     27  C   UNL d   1     -48.287  28.960  35.268  0.00  0.00     0.141 C 
BRANCH  27  28
ATOM     28  N   UNL d   1     -48.068  29.693  34.963  0.00  0.00    -0.202 NA
ATOM     29  C   UNL d   1     -47.790  30.279  35.477  0.00  0.00     0.302 C 
ATOM     30  O   UNL d   1     -47.735  30.122  36.286  0.00  0.00    -0.263 OA
BRANCH  29  31
ATOM     31  C   UNL d   1     -47.567  31.020  35.186  0.00  0.00     0.158 A 
ATOM     32  O   UNL d   1     -48.086  31.601  34.934  0.00  0.00    -0.300 OA
ATOM     33  C   UNL d   1     -47.642  32.250  34.688  0.00  0.00     0.123 A 
ATOM     34  C   UNL d   1     -46.842  32.055  34.793  0.00  0.00     0.029 A 
ATOM     35  C   UNL d   1     -46.800  31.293  35.102  0.00  0.00     0.032 A 
ENDBRANCH  29  31
ENDBRANCH  27  28
ENDBRANCH   3  27
TORSDOF 7
ENDMDL
