MODEL 1
REMARK VINA RESULT:      69.1      0.000      0.000
REMARK  3 active torsions:
REMARK  status: ('A' for Active; 'I' for Inactive)
REMARK    1  A    between atoms: S_12  and  C_7 
REMARK    2  A    between atoms: C_10  and  C_13 
REMARK    3  A    between atoms: C_13  and  S_12 
ROOT
ATOM      1  N   UNL d   1     -52.177  26.944  33.354  0.00  0.00    -0.224 N 
ATOM      2  N   UNL d   1     -50.762  27.192  33.356  0.00  0.00    -0.241 N 
ATOM      3  C   UNL d   1     -51.536  27.477  33.361  0.00  0.00     0.343 A 
ATOM      4  C   UNL d   1     -50.626  26.369  33.344  0.00  0.00     0.160 A 
ATOM      5  C   UNL d   1     -52.038  26.133  33.342  0.00  0.00     0.273 A 
ATOM      6  C   UNL d   1     -51.261  25.842  33.337  0.00  0.00     0.115 A 
ATOM      7  C   UNL d   1     -51.127  25.037  33.325  0.00  0.00     0.120 A 
ATOM      8  N   UNL d   1     -49.850  26.082  33.339  0.00  0.00    -0.209 NA
ATOM      9  N   UNL d   1     -50.353  24.744  33.320  0.00  0.00    -0.220 NA
ATOM     10  C   UNL d   1     -49.713  25.270  33.327  0.00  0.00     0.165 A 
ATOM     11  O   UNL d   1     -51.673  28.288  33.373  0.00  0.00    -0.245 OA
ATOM     12  O   UNL d   1     -52.672  25.606  33.335  0.00  0.00    -0.266 OA
ATOM     13  C   UNL d   1     -52.942  27.234  33.359  0.00  0.00     0.107 C 
ATOM     14  C   UNL d   1     -50.123  27.713  33.363  0.00  0.00     0.105 C 
ATOM     15  C   UNL d   1     -48.944  24.983  33.322  0.00  0.00     0.042 C 
ENDROOT
BRANCH   7  16
ATOM     16  S   UNL d   1     -51.762  24.510  33.319  0.00  0.00    -0.067 SA
BRANCH  16  17
ATOM     17  C   UNL d   1     -52.478  24.714  33.675  0.00  0.00     0.040 C 
BRANCH  17  18
ATOM     18  C   UNL d   1     -52.832  24.206  34.220  0.00  0.00     0.045 A 
ATOM     19  C   UNL d   1     -53.571  23.874  34.048  0.00  0.00     0.060 A 
ATOM     20 CL   UNL d   1     -53.947  24.053  33.333  0.00  0.00    -0.082 Cl
ATOM     21  C   UNL d   1     -53.938  23.364  34.583  0.00  0.00     0.012 A 
ATOM     22  C   UNL d   1     -53.559  23.188  35.294  0.00  0.00     0.003 A 
ATOM     23  C   UNL d   1     -52.825  23.510  35.481  0.00  0.00     0.030 A 
ATOM     24  C   UNL d   1     -52.461  24.020  34.943  0.00  0.00     0.141 A 
ATOM     25  F   UNL d   1     -51.732  24.346  35.116  0.00  0.00    -0.204 F 
ENDBRANCH  17  18
ENDBRANCH  16  17
ENDBRANCH   7  16
TORSDOF 3
ENDMDL
MODEL 2
REMARK VINA RESULT:      72.1      2.202      4.044
REMARK  3 active torsions:
REMARK  status: ('A' for Active; 'I' for Inactive)
REMARK    1  A    between atoms: S_12  and  C_7 
REMARK    2  A    between atoms: C_10  and  C_13 
REMARK    3  A    between atoms: C_13  and  S_12 
ROOT
ATOM      1  N   UNL d   1     -52.088  25.275  33.625  0.00  0.00    -0.224 N 
ATOM      2  N   UNL d   1     -51.411  24.018  33.475  0.00  0.00    -0.241 N 
ATOM      3  C   UNL d   1     -52.111  24.446  33.553  0.00  0.00     0.343 A 
ATOM      4  C   UNL d   1     -50.681  24.420  33.470  0.00  0.00     0.160 A 
ATOM      5  C   UNL d   1     -51.364  25.669  33.619  0.00  0.00     0.273 A 
ATOM      6  C   UNL d   1     -50.657  25.242  33.541  0.00  0.00     0.115 A 
ATOM      7  C   UNL d   1     -49.942  25.636  33.535  0.00  0.00     0.120 A 
ATOM      8  N   UNL d   1     -49.977  23.993  33.392  0.00  0.00    -0.209 NA
ATOM      9  N   UNL d   1     -49.235  25.213  33.458  0.00  0.00    -0.220 NA
ATOM     10  C   UNL d   1     -49.255  24.387  33.386  0.00  0.00     0.165 A 
ATOM     11  O   UNL d   1     -52.833  24.051  33.559  0.00  0.00    -0.245 OA
ATOM     12  O   UNL d   1     -51.341  26.491  33.690  0.00  0.00    -0.266 OA
ATOM     13  C   UNL d   1     -52.787  25.694  33.702  0.00  0.00     0.107 C 
ATOM     14  C   UNL d   1     -51.427  23.196  33.403  0.00  0.00     0.105 C 
ATOM     15  C   UNL d   1     -48.555  23.964  33.309  0.00  0.00     0.042 C 
ENDROOT
BRANCH   7  16
ATOM     16  S   UNL d   1     -49.919  26.457  33.607  0.00  0.00    -0.067 SA
BRANCH  16  17
ATOM     17  C   UNL d   1     -49.196  26.850  33.666  0.00  0.00     0.040 C 
BRANCH  17  18
ATOM     18  C   UNL d   1     -49.123  27.519  34.145  0.00  0.00     0.045 A 
ATOM     19  C   UNL d   1     -48.637  27.489  34.815  0.00  0.00     0.060 A 
ATOM     20 CL   UNL d   1     -48.231  26.793  35.000  0.00  0.00    -0.082 Cl
ATOM     21  C   UNL d   1     -48.554  28.149  35.303  0.00  0.00     0.012 A 
ATOM     22  C   UNL d   1     -48.961  28.842  35.116  0.00  0.00     0.003 A 
ATOM     23  C   UNL d   1     -49.447  28.887  34.452  0.00  0.00     0.030 A 
ATOM     24  C   UNL d   1     -49.528  28.225  33.967  0.00  0.00     0.141 A 
ATOM     25  F   UNL d   1     -50.007  28.257  33.306  0.00  0.00    -0.204 F 
ENDBRANCH  17  18
ENDBRANCH  16  17
ENDBRANCH   7  16
TORSDOF 3
ENDMDL
