MODEL 1
REMARK VINA RESULT:      -6.3      0.000      0.000
REMARK  5 active torsions:
REMARK  status: ('A' for Active; 'I' for Inactive)
REMARK    1  A    between atoms: C_4  and  C_1 
REMARK    2  A    between atoms: C_3  and  N_8 
REMARK       I    between atoms: N_8  and  C_4 
REMARK    3  A    between atoms: C_13  and  C_6 
REMARK    4  A    between atoms: C_14  and  C_10 
REMARK    5  A    between atoms: C_20  and  C_14 
ROOT
ATOM      1  C   UNL d   1     -41.589-122.862 -51.138  0.00  0.00     0.083 A 
ATOM      2  C   UNL d   1     -41.860-123.322 -50.500  0.00  0.00     0.032 A 
ATOM      3  C   UNL d   1     -41.846-122.854 -49.828  0.00  0.00     0.100 A 
ATOM      4  C   UNL d   1     -41.410-122.107 -50.838  0.00  0.00     0.105 A 
ATOM      5  O   UNL d   1     -41.572-122.109 -50.027  0.00  0.00    -0.307 OA
ATOM      6  C   UNL d   1     -41.123-121.475 -51.284  0.00  0.00     0.027 C 
ENDROOT
BRANCH   1   7
ATOM      7  C   UNL d   1     -41.510-123.106 -51.924  0.00  0.00     0.283 C 
ATOM      8  N   UNL d   1     -41.814-122.647 -52.527  0.00  0.00    -0.181 NA
ATOM      9  O   UNL d   1     -41.122-123.815 -52.087  0.00  0.00    -0.265 OA
BRANCH   8  10
ATOM     10  C   UNL d   1     -41.733-122.893 -53.310  0.00  0.00     0.216 A 
ATOM     11  N   UNL d   1     -42.045-122.515 -53.962  0.00  0.00    -0.200 NA
ATOM     12  C   UNL d   1     -41.836-122.942 -54.627  0.00  0.00     0.175 A 
ATOM     13  N   UNL d   1     -41.389-123.589 -54.380  0.00  0.00    -0.187 NA
ATOM     14  S   UNL d   1     -41.329-123.554 -53.565  0.00  0.00     0.054 SA
BRANCH  12  15
ATOM     15  C   UNL d   1     -42.030-122.763 -55.399  0.00  0.00     0.082 C 
BRANCH  15  16
ATOM     16  C   UNL d   1     -42.219-121.988 -55.605  0.00  0.00     0.199 C 
ATOM     17  O   UNL d   1     -42.991-121.715 -55.533  0.00  0.00    -0.286 OA
ATOM     18  C   UNL d   1     -41.633-121.485 -55.884  0.00  0.00     0.045 C 
ENDBRANCH  15  16
ENDBRANCH  12  15
ENDBRANCH   8  10
ENDBRANCH   1   7
BRANCH   3  19
ATOM     19  C   UNL d   1     -42.070-123.092 -49.077  0.00  0.00     0.024 A 
ATOM     20  C   UNL d   1     -41.587-122.913 -48.428  0.00  0.00     0.014 A 
ATOM     21  C   UNL d   1     -41.818-123.156 -47.670  0.00  0.00     0.068 A 
ATOM     22 CL   UNL d   1     -41.337-122.977 -47.027  0.00  0.00    -0.082 Cl
ATOM     23  C   UNL d   1     -42.522-123.572 -47.558  0.00  0.00     0.068 A 
ATOM     24  C   UNL d   1     -43.004-123.751 -48.201  0.00  0.00     0.012 A 
ATOM     25 CL   UNL d   1     -42.744-123.810 -46.793  0.00  0.00    -0.082 Cl
ATOM     26  C   UNL d   1     -42.782-123.514 -48.963  0.00  0.00     0.003 A 
ENDBRANCH   3  19
TORSDOF 5
ENDMDL
