MODEL 1
REMARK VINA RESULT:      24.1      0.000      0.000
REMARK  5 active torsions:
REMARK  status: ('A' for Active; 'I' for Inactive)
REMARK    1  A    between atoms: N_2  and  C_7 
REMARK    2  A    between atoms: N_11  and  C_3 
REMARK    3  A    between atoms: C_9  and  C_4 
REMARK    4  A    between atoms: C_18  and  N_11 
REMARK    5  A    between atoms: C_16  and  C_18 
ROOT
ATOM      1  N   UNL d   1      57.668  49.630  50.893  0.00  0.00    -0.222 NA
ATOM      2  C   UNL d   1      56.989  49.648  50.430  0.00  0.00     0.172 A 
ATOM      3  C   UNL d   1      58.327  49.653  50.383  0.00  0.00     0.090 A 
ATOM      4  S   UNL d   1      57.217  49.681  49.648  0.00  0.00    -0.048 SA
ATOM      5  C   UNL d   1      58.035  49.684  49.619  0.00  0.00     0.057 A 
ENDROOT
BRANCH   3   6
ATOM      6  C   UNL d   1      59.122  49.644  50.647  0.00  0.00     0.018 A 
ATOM      7  C   UNL d   1      59.276  49.603  51.456  0.00  0.00     0.003 A 
ATOM      8  C   UNL d   1      60.059  49.594  51.715  0.00  0.00     0.024 A 
ATOM      9  C   UNL d   1      60.667  49.627  51.158  0.00  0.00     0.127 A 
ATOM     10  C   UNL d   1      60.522  49.668  50.358  0.00  0.00     0.024 A 
ATOM     11  C   UNL d   1      59.727  49.677  50.095  0.00  0.00     0.003 A 
BRANCH   9  12
ATOM     12  N   UNL d   1      61.445  49.618  51.416  0.00  0.00    -0.114 N 
ATOM     13  O   UNL d   1      61.617  49.599  52.226  0.00  0.00    -0.532 OA
ATOM     14  O   UNL d   1      62.063  49.629  50.880  0.00  0.00    -0.532 OA
ENDBRANCH   9  12
ENDBRANCH   3   6
BRANCH   2  15
ATOM     15  N   UNL d   1      56.212  49.635  50.686  0.00  0.00    -0.332 N 
ATOM     16  H   UNL d   1      55.595  49.554  50.133  0.00  0.00     0.168 HD
BRANCH  15  17
ATOM     17  C   UNL d   1      56.034  49.702  51.497  0.00  0.00     0.074 C 
BRANCH  17  18
ATOM     18  C   UNL d   1      56.157  49.082  52.002  0.00  0.00     0.018 C 
ATOM     19  C   UNL d   1      56.038  49.168  52.836  0.00  0.00     0.002 C 
ENDBRANCH  17  18
ENDBRANCH  15  17
ENDBRANCH   2  15
TORSDOF 5
ENDMDL
MODEL 2
REMARK VINA RESULT:      26.6      1.038      1.363
REMARK  5 active torsions:
REMARK  status: ('A' for Active; 'I' for Inactive)
REMARK    1  A    between atoms: N_2  and  C_7 
REMARK    2  A    between atoms: N_11  and  C_3 
REMARK    3  A    between atoms: C_9  and  C_4 
REMARK    4  A    between atoms: C_18  and  N_11 
REMARK    5  A    between atoms: C_16  and  C_18 
ROOT
ATOM      1  N   UNL d   1      57.941  49.606  50.296  0.00  0.00    -0.222 NA
ATOM      2  C   UNL d   1      57.436  49.605  49.646  0.00  0.00     0.172 A 
ATOM      3  C   UNL d   1      58.724  49.638  50.012  0.00  0.00     0.090 A 
ATOM      4  S   UNL d   1      57.893  49.635  48.972  0.00  0.00    -0.048 SA
ATOM      5  C   UNL d   1      58.680  49.655  49.195  0.00  0.00     0.057 A 
ENDROOT
BRANCH   3   6
ATOM      6  C   UNL d   1      59.399  49.648  50.506  0.00  0.00     0.018 A 
ATOM      7  C   UNL d   1      59.298  49.625  51.324  0.00  0.00     0.003 A 
ATOM      8  C   UNL d   1      59.964  49.635  51.812  0.00  0.00     0.024 A 
ATOM      9  C   UNL d   1      60.713  49.669  51.467  0.00  0.00     0.127 A 
ATOM     10  C   UNL d   1      60.820  49.692  50.660  0.00  0.00     0.024 A 
ATOM     11  C   UNL d   1      60.145  49.682  50.166  0.00  0.00     0.003 A 
BRANCH   9  12
ATOM     12  N   UNL d   1      61.374  49.679  51.951  0.00  0.00    -0.114 N 
ATOM     13  O   UNL d   1      62.135  49.681  51.621  0.00  0.00    -0.532 OA
ATOM     14  O   UNL d   1      61.297  49.687  52.765  0.00  0.00    -0.532 OA
ENDBRANCH   9  12
ENDBRANCH   3   6
BRANCH   2  15
ATOM     15  N   UNL d   1      56.618  49.578  49.652  0.00  0.00    -0.332 N 
ATOM     16  H   UNL d   1      56.184  50.122  49.195  0.00  0.00     0.168 HD
BRANCH  15  17
ATOM     17  C   UNL d   1      56.218  49.010  50.111  0.00  0.00     0.074 C 
BRANCH  17  18
ATOM     18  C   UNL d   1      56.145  48.246  49.856  0.00  0.00     0.018 C 
ATOM     19  C   UNL d   1      56.221  48.051  49.035  0.00  0.00     0.002 C 
ENDBRANCH  17  18
ENDBRANCH  15  17
ENDBRANCH   2  15
TORSDOF 5
ENDMDL
