MODEL 1
REMARK VINA RESULT:      -5.3      0.000      0.000
REMARK  9 active torsions:
REMARK  status: ('A' for Active; 'I' for Inactive)
REMARK    1  A    between atoms: N_3  and  C_1 
REMARK    2  A    between atoms: C_20  and  N_2 
REMARK       I    between atoms: C_7  and  N_3 
REMARK    3  A    between atoms: C_10  and  C_7 
REMARK    4  A    between atoms: C_9  and  C_10 
REMARK    5  A    between atoms: C_15  and  C_9 
REMARK       I    between atoms: C_12  and  N_13 
REMARK    6  A    between atoms: N_13  and  C_14 
REMARK    7  A    between atoms: C_26  and  C_20 
REMARK    8  A    between atoms: O_22  and  C_26 
REMARK    9  A    between atoms: C_27  and  O_22 
ROOT
ATOM      1  C   UNL d   1     -40.853  14.365  20.341  0.00  0.00     0.182 A 
ATOM      2  N   UNL d   1     -40.056  14.491  20.488  0.00  0.00    -0.283 N 
ATOM      3  S   UNL d   1     -40.971  14.406  19.527  0.00  0.00    -0.048 SA
ATOM      4  C   UNL d   1     -40.240  14.558  19.169  0.00  0.00     0.050 A 
ATOM      5  C   UNL d   1     -39.671  14.611  19.766  0.00  0.00     0.072 A 
ATOM      6  C   UNL d   1     -40.020  14.655  18.381  0.00  0.00     0.027 A 
ATOM      7  C   UNL d   1     -38.884  14.761  19.575  0.00  0.00     0.020 A 
ATOM      8  C   UNL d   1     -39.233  14.804  18.190  0.00  0.00     0.085 A 
ATOM      9  C   UNL d   1     -38.665  14.858  18.787  0.00  0.00     0.021 A 
ENDROOT
BRANCH   1  10
ATOM     10  N   UNL d   1     -41.430  14.223  20.914  0.00  0.00    -0.184 NA
ATOM     11  C   UNL d   1     -42.032  13.682  20.759  0.00  0.00     0.281 C 
ATOM     12  O   UNL d   1     -42.052  13.289  20.036  0.00  0.00    -0.265 OA
BRANCH  11  13
ATOM     13  C   UNL d   1     -42.613  13.535  21.327  0.00  0.00     0.063 C 
BRANCH  13  14
ATOM     14  C   UNL d   1     -43.047  12.840  21.302  0.00  0.00     0.006 C 
BRANCH  14  15
ATOM     15  C   UNL d   1     -43.765  12.776  21.689  0.00  0.00     0.011 A 
ATOM     16  C   UNL d   1     -43.886  12.166  22.238  0.00  0.00     0.058 A 
ATOM     17 CL   UNL d   1     -43.272  11.622  22.392  0.00  0.00    -0.082 Cl
ATOM     18  C   UNL d   1     -44.622  12.100  22.635  0.00  0.00     0.011 A 
ATOM     19  C   UNL d   1     -45.224  12.628  22.489  0.00  0.00     0.001 A 
ATOM     20  C   UNL d   1     -45.107  13.238  21.941  0.00  0.00     0.000 A 
ATOM     21  C   UNL d   1     -44.381  13.306  21.547  0.00  0.00     0.001 A 
ENDBRANCH  14  15
ENDBRANCH  13  14
ENDBRANCH  11  13
ENDBRANCH   1  10
BRANCH   2  22
ATOM     22  C   UNL d   1     -39.690  14.499  21.230  0.00  0.00     0.109 C 
BRANCH  22  23
ATOM     23  C   UNL d   1     -39.569  15.209  21.629  0.00  0.00     0.142 C 
BRANCH  23  24
ATOM     24  O   UNL d   1     -39.198  15.213  22.358  0.00  0.00    -0.302 OA
BRANCH  24  25
ATOM     25  C   UNL d   1     -39.026  15.922  22.752  0.00  0.00     0.123 C 
ATOM     26  C   UNL d   1     -38.648  15.919  23.487  0.00  0.00     0.029 C 
ENDBRANCH  24  25
ENDBRANCH  23  24
ENDBRANCH  22  23
ENDBRANCH   2  22
BRANCH   8  27
ATOM     27  N   UNL d   1     -39.008  14.903  17.390  0.00  0.00    -0.208 NA
ATOM     28  C   UNL d   1     -38.750  14.258  16.959  0.00  0.00     0.279 C 
ATOM     29  O   UNL d   1     -38.529  14.357  16.172  0.00  0.00    -0.265 OA
ATOM     30  C   UNL d   1     -38.708  13.508  17.303  0.00  0.00     0.068 C 
ENDBRANCH   8  27
TORSDOF 9
ENDMDL
MODEL 2
REMARK VINA RESULT:      -4.5      3.371      7.247
REMARK  9 active torsions:
REMARK  status: ('A' for Active; 'I' for Inactive)
REMARK    1  A    between atoms: N_3  and  C_1 
REMARK    2  A    between atoms: C_20  and  N_2 
REMARK       I    between atoms: C_7  and  N_3 
REMARK    3  A    between atoms: C_10  and  C_7 
REMARK    4  A    between atoms: C_9  and  C_10 
REMARK    5  A    between atoms: C_15  and  C_9 
REMARK       I    between atoms: C_12  and  N_13 
REMARK    6  A    between atoms: N_13  and  C_14 
REMARK    7  A    between atoms: C_26  and  C_20 
REMARK    8  A    between atoms: O_22  and  C_26 
REMARK    9  A    between atoms: C_27  and  O_22 
ROOT
ATOM      1  C   UNL d   1     -45.232  12.773  22.209  0.00  0.00     0.182 A 
ATOM      2  N   UNL d   1     -45.499  12.373  22.874  0.00  0.00    -0.283 N 
ATOM      3  S   UNL d   1     -45.862  13.209  21.906  0.00  0.00    -0.048 SA
ATOM      4  C   UNL d   1     -46.522  13.077  22.388  0.00  0.00     0.050 A 
ATOM      5  C   UNL d   1     -46.296  12.558  22.990  0.00  0.00     0.072 A 
ATOM      6  C   UNL d   1     -47.294  13.362  22.357  0.00  0.00     0.027 A 
ATOM      7  C   UNL d   1     -46.843  12.324  23.560  0.00  0.00     0.020 A 
ATOM      8  C   UNL d   1     -47.841  13.128  22.927  0.00  0.00     0.085 A 
ATOM      9  C   UNL d   1     -47.616  12.609  23.528  0.00  0.00     0.021 A 
ENDROOT
BRANCH   1  10
ATOM     10  N   UNL d   1     -44.467  12.738  21.903  0.00  0.00    -0.184 NA
ATOM     11  C   UNL d   1     -44.073  13.437  21.715  0.00  0.00     0.281 C 
ATOM     12  O   UNL d   1     -44.445  14.162  21.834  0.00  0.00    -0.265 OA
BRANCH  11  13
ATOM     13  C   UNL d   1     -43.306  13.411  21.409  0.00  0.00     0.063 C 
BRANCH  13  14
ATOM     14  C   UNL d   1     -42.878  14.102  21.309  0.00  0.00     0.006 C 
BRANCH  14  15
ATOM     15  C   UNL d   1     -42.083  14.083  21.117  0.00  0.00     0.011 A 
ATOM     16  C   UNL d   1     -41.673  14.792  20.985  0.00  0.00     0.058 A 
ATOM     17 CL   UNL d   1     -42.077  15.521  21.048  0.00  0.00    -0.082 Cl
ATOM     18  C   UNL d   1     -40.858  14.774  20.788  0.00  0.00     0.011 A 
ATOM     19  C   UNL d   1     -40.459  14.067  20.725  0.00  0.00     0.001 A 
ATOM     20  C   UNL d   1     -40.866  13.358  20.857  0.00  0.00     0.000 A 
ATOM     21  C   UNL d   1     -41.671  13.372  21.051  0.00  0.00     0.001 A 
ENDBRANCH  14  15
ENDBRANCH  13  14
ENDBRANCH  11  13
ENDBRANCH   1  10
BRANCH   2  22
ATOM     22  C   UNL d   1     -45.052  11.869  23.354  0.00  0.00     0.109 C 
BRANCH  22  23
ATOM     23  C   UNL d   1     -45.034  11.059  23.206  0.00  0.00     0.142 C 
BRANCH  23  24
ATOM     24  O   UNL d   1     -44.605  10.562  23.694  0.00  0.00    -0.302 OA
BRANCH  24  25
ATOM     25  C   UNL d   1     -44.325   9.830  23.426  0.00  0.00     0.123 C 
ATOM     26  C   UNL d   1     -43.559   9.576  23.606  0.00  0.00     0.029 C 
ENDBRANCH  24  25
ENDBRANCH  23  24
ENDBRANCH  22  23
ENDBRANCH   2  22
BRANCH   8  27
ATOM     27  N   UNL d   1     -48.626  13.416  22.897  0.00  0.00    -0.208 NA
ATOM     28  C   UNL d   1     -49.247  12.891  22.815  0.00  0.00     0.279 C 
ATOM     29  O   UNL d   1     -50.020  13.177  22.785  0.00  0.00    -0.265 OA
ATOM     30  C   UNL d   1     -49.112  12.078  22.760  0.00  0.00     0.068 C 
ENDBRANCH   8  27
TORSDOF 9
ENDMDL
MODEL 3
REMARK VINA RESULT:      -4.2      3.889      7.702
REMARK  9 active torsions:
REMARK  status: ('A' for Active; 'I' for Inactive)
REMARK    1  A    between atoms: N_3  and  C_1 
REMARK    2  A    between atoms: C_20  and  N_2 
REMARK       I    between atoms: C_7  and  N_3 
REMARK    3  A    between atoms: C_10  and  C_7 
REMARK    4  A    between atoms: C_9  and  C_10 
REMARK    5  A    between atoms: C_15  and  C_9 
REMARK       I    between atoms: C_12  and  N_13 
REMARK    6  A    between atoms: N_13  and  C_14 
REMARK    7  A    between atoms: C_26  and  C_20 
REMARK    8  A    between atoms: O_22  and  C_26 
REMARK    9  A    between atoms: C_27  and  O_22 
ROOT
ATOM      1  C   UNL d   1     -46.096  12.731  22.692  0.00  0.00     0.182 A 
ATOM      2  N   UNL d   1     -46.320  12.119  23.190  0.00  0.00    -0.283 N 
ATOM      3  S   UNL d   1     -46.768  12.992  22.293  0.00  0.00    -0.048 SA
ATOM      4  C   UNL d   1     -47.412  12.537  22.548  0.00  0.00     0.050 A 
ATOM      5  C   UNL d   1     -47.133  11.995  23.105  0.00  0.00     0.072 A 
ATOM      6  C   UNL d   1     -48.210  12.548  22.346  0.00  0.00     0.027 A 
ATOM      7  C   UNL d   1     -47.654  11.463  23.460  0.00  0.00     0.020 A 
ATOM      8  C   UNL d   1     -48.730  12.017  22.700  0.00  0.00     0.085 A 
ATOM      9  C   UNL d   1     -48.452  11.474  23.257  0.00  0.00     0.021 A 
ENDROOT
BRANCH   1  10
ATOM     10  N   UNL d   1     -45.330  13.027  22.609  0.00  0.00    -0.184 NA
ATOM     11  C   UNL d   1     -45.100  13.364  21.894  0.00  0.00     0.281 C 
ATOM     12  O   UNL d   1     -45.634  13.402  21.269  0.00  0.00    -0.265 OA
BRANCH  11  13
ATOM     13  C   UNL d   1     -44.335  13.662  21.804  0.00  0.00     0.063 C 
BRANCH  13  14
ATOM     14  C   UNL d   1     -43.750  13.201  21.463  0.00  0.00     0.006 C 
BRANCH  14  15
ATOM     15  C   UNL d   1     -43.010  13.509  21.301  0.00  0.00     0.011 A 
ATOM     16  C   UNL d   1     -42.337  13.026  21.368  0.00  0.00     0.058 A 
ATOM     17 CL   UNL d   1     -42.424  12.229  21.601  0.00  0.00    -0.082 Cl
ATOM     18  C   UNL d   1     -41.578  13.341  21.202  0.00  0.00     0.011 A 
ATOM     19  C   UNL d   1     -41.488  14.118  20.975  0.00  0.00     0.001 A 
ATOM     20  C   UNL d   1     -42.157  14.601  20.907  0.00  0.00     0.000 A 
ATOM     21  C   UNL d   1     -42.909  14.294  21.070  0.00  0.00     0.001 A 
ENDBRANCH  14  15
ENDBRANCH  13  14
ENDBRANCH  11  13
ENDBRANCH   1  10
BRANCH   2  22
ATOM     22  C   UNL d   1     -45.824  11.692  23.696  0.00  0.00     0.109 C 
BRANCH  22  23
ATOM     23  C   UNL d   1     -45.569  10.936  23.491  0.00  0.00     0.142 C 
BRANCH  23  24
ATOM     24  O   UNL d   1     -44.782  10.730  23.579  0.00  0.00    -0.302 OA
BRANCH  24  25
ATOM     25  C   UNL d   1     -44.504   9.983  23.353  0.00  0.00     0.123 C 
ATOM     26  C   UNL d   1     -43.825   9.660  23.696  0.00  0.00     0.029 C 
ENDBRANCH  24  25
ENDBRANCH  23  24
ENDBRANCH  22  23
ENDBRANCH   2  22
BRANCH   8  27
ATOM     27  N   UNL d   1     -49.541  12.026  22.495  0.00  0.00    -0.208 NA
ATOM     28  C   UNL d   1     -50.074  12.429  22.966  0.00  0.00     0.279 C 
ATOM     29  O   UNL d   1     -50.872  12.437  22.763  0.00  0.00    -0.265 OA
ATOM     30  C   UNL d   1     -49.822  12.829  23.644  0.00  0.00     0.068 C 
ENDBRANCH   8  27
TORSDOF 9
ENDMDL
MODEL 4
REMARK VINA RESULT:      -4.1      1.941      5.517
REMARK  9 active torsions:
REMARK  status: ('A' for Active; 'I' for Inactive)
REMARK    1  A    between atoms: N_3  and  C_1 
REMARK    2  A    between atoms: C_20  and  N_2 
REMARK       I    between atoms: C_7  and  N_3 
REMARK    3  A    between atoms: C_10  and  C_7 
REMARK    4  A    between atoms: C_9  and  C_10 
REMARK    5  A    between atoms: C_15  and  C_9 
REMARK       I    between atoms: C_12  and  N_13 
REMARK    6  A    between atoms: N_13  and  C_14 
REMARK    7  A    between atoms: C_26  and  C_20 
REMARK    8  A    between atoms: O_22  and  C_26 
REMARK    9  A    between atoms: C_27  and  O_22 
ROOT
ATOM      1  C   UNL d   1     -40.666  14.396  19.618  0.00  0.00     0.182 A 
ATOM      2  N   UNL d   1     -40.436  14.143  20.364  0.00  0.00    -0.283 N 
ATOM      3  S   UNL d   1     -41.474  14.256  19.540  0.00  0.00    -0.048 SA
ATOM      4  C   UNL d   1     -41.744  13.913  20.244  0.00  0.00     0.050 A 
ATOM      5  C   UNL d   1     -41.099  13.843  20.756  0.00  0.00     0.072 A 
ATOM      6  C   UNL d   1     -42.490  13.658  20.483  0.00  0.00     0.027 A 
ATOM      7  C   UNL d   1     -41.201  13.518  21.506  0.00  0.00     0.020 A 
ATOM      8  C   UNL d   1     -42.592  13.333  21.233  0.00  0.00     0.085 A 
ATOM      9  C   UNL d   1     -41.947  13.263  21.745  0.00  0.00     0.021 A 
ENDROOT
BRANCH   1  10
ATOM     10  N   UNL d   1     -40.169  14.732  19.051  0.00  0.00    -0.184 NA
ATOM     11  C   UNL d   1     -40.294  14.568  18.253  0.00  0.00     0.281 C 
ATOM     12  O   UNL d   1     -40.913  14.072  18.030  0.00  0.00    -0.265 OA
BRANCH  11  13
ATOM     13  C   UNL d   1     -39.801  14.900  17.680  0.00  0.00     0.063 C 
BRANCH  13  14
ATOM     14  C   UNL d   1     -39.342  14.418  17.202  0.00  0.00     0.006 C 
BRANCH  14  15
ATOM     15  C   UNL d   1     -38.884  14.731  16.602  0.00  0.00     0.011 A 
ATOM     16  C   UNL d   1     -38.462  14.226  16.096  0.00  0.00     0.058 A 
ATOM     17 CL   UNL d   1     -38.510  13.399  16.206  0.00  0.00    -0.082 Cl
ATOM     18  C   UNL d   1     -37.992  14.546  15.480  0.00  0.00     0.011 A 
ATOM     19  C   UNL d   1     -37.942  15.351  15.368  0.00  0.00     0.001 A 
ATOM     20  C   UNL d   1     -38.361  15.858  15.871  0.00  0.00     0.000 A 
ATOM     21  C   UNL d   1     -38.827  15.545  16.481  0.00  0.00     0.001 A 
ENDBRANCH  14  15
ENDBRANCH  13  14
ENDBRANCH  11  13
ENDBRANCH   1  10
BRANCH   2  22
ATOM     22  C   UNL d   1     -39.672  14.178  20.679  0.00  0.00     0.109 C 
BRANCH  22  23
ATOM     23  C   UNL d   1     -39.442  14.815  21.148  0.00  0.00     0.142 C 
BRANCH  23  24
ATOM     24  O   UNL d   1     -38.680  14.853  21.444  0.00  0.00    -0.302 OA
BRANCH  24  25
ATOM     25  C   UNL d   1     -38.315  15.580  21.604  0.00  0.00     0.123 C 
ATOM     26  C   UNL d   1     -38.359  15.921  22.355  0.00  0.00     0.029 C 
ENDBRANCH  24  25
ENDBRANCH  23  24
ENDBRANCH  22  23
ENDBRANCH   2  22
BRANCH   8  27
ATOM     27  N   UNL d   1     -43.348  13.073  21.477  0.00  0.00    -0.208 NA
ATOM     28  C   UNL d   1     -43.421  12.378  21.900  0.00  0.00     0.279 C 
ATOM     29  O   UNL d   1     -44.167  12.124  22.140  0.00  0.00    -0.265 OA
ATOM     30  C   UNL d   1     -42.756  11.926  22.091  0.00  0.00     0.068 C 
ENDBRANCH   8  27
TORSDOF 9
ENDMDL
MODEL 5
REMARK VINA RESULT:      -3.7      3.201      5.512
REMARK  9 active torsions:
REMARK  status: ('A' for Active; 'I' for Inactive)
REMARK    1  A    between atoms: N_3  and  C_1 
REMARK    2  A    between atoms: C_20  and  N_2 
REMARK       I    between atoms: C_7  and  N_3 
REMARK    3  A    between atoms: C_10  and  C_7 
REMARK    4  A    between atoms: C_9  and  C_10 
REMARK    5  A    between atoms: C_15  and  C_9 
REMARK       I    between atoms: C_12  and  N_13 
REMARK    6  A    between atoms: N_13  and  C_14 
REMARK    7  A    between atoms: C_26  and  C_20 
REMARK    8  A    between atoms: O_22  and  C_26 
REMARK    9  A    between atoms: C_27  and  O_22 
ROOT
ATOM      1  C   UNL d   1     -45.181  12.851  22.233  0.00  0.00     0.182 A 
ATOM      2  N   UNL d   1     -44.553  12.414  22.530  0.00  0.00    -0.283 N 
ATOM      3  S   UNL d   1     -44.908  13.277  21.583  0.00  0.00    -0.048 SA
ATOM      4  C   UNL d   1     -44.106  13.101  21.478  0.00  0.00     0.050 A 
ATOM      5  C   UNL d   1     -43.886  12.565  22.066  0.00  0.00     0.072 A 
ATOM      6  C   UNL d   1     -43.552  13.359  20.926  0.00  0.00     0.027 A 
ATOM      7  C   UNL d   1     -43.111  12.287  22.102  0.00  0.00     0.020 A 
ATOM      8  C   UNL d   1     -42.777  13.081  20.962  0.00  0.00     0.085 A 
ATOM      9  C   UNL d   1     -42.557  12.545  21.550  0.00  0.00     0.021 A 
ENDROOT
BRANCH   1  10
ATOM     10  N   UNL d   1     -45.948  12.857  22.538  0.00  0.00    -0.184 NA
ATOM     11  C   UNL d   1     -46.343  13.575  22.629  0.00  0.00     0.281 C 
ATOM     12  O   UNL d   1     -45.969  14.277  22.417  0.00  0.00    -0.265 OA
BRANCH  11  13
ATOM     13  C   UNL d   1     -47.110  13.589  22.934  0.00  0.00     0.063 C 
BRANCH  13  14
ATOM     14  C   UNL d   1     -47.641  14.162  22.686  0.00  0.00     0.006 C 
BRANCH  14  15
ATOM     15  C   UNL d   1     -48.434  14.117  22.884  0.00  0.00     0.011 A 
ATOM     16  C   UNL d   1     -48.920  14.784  22.794  0.00  0.00     0.058 A 
ATOM     17 CL   UNL d   1     -48.595  15.495  22.502  0.00  0.00    -0.082 Cl
ATOM     18  C   UNL d   1     -49.732  14.740  22.997  0.00  0.00     0.011 A 
ATOM     19  C   UNL d   1     -50.055  14.048  23.282  0.00  0.00     0.001 A 
ATOM     20  C   UNL d   1     -49.572  13.382  23.373  0.00  0.00     0.000 A 
ATOM     21  C   UNL d   1     -48.769  13.422  23.173  0.00  0.00     0.001 A 
ENDBRANCH  14  15
ENDBRANCH  13  14
ENDBRANCH  11  13
ENDBRANCH   1  10
BRANCH   2  22
ATOM     22  C   UNL d   1     -44.576  11.905  23.181  0.00  0.00     0.109 C 
BRANCH  22  23
ATOM     23  C   UNL d   1     -44.595  11.089  23.074  0.00  0.00     0.142 C 
BRANCH  23  24
ATOM     24  O   UNL d   1     -44.405  10.589  23.693  0.00  0.00    -0.302 OA
BRANCH  24  25
ATOM     25  C   UNL d   1     -44.637   9.793  23.692  0.00  0.00     0.123 C 
ATOM     26  C   UNL d   1     -44.075   9.187  23.698  0.00  0.00     0.029 C 
ENDBRANCH  24  25
ENDBRANCH  23  24
ENDBRANCH  22  23
ENDBRANCH   2  22
BRANCH   8  27
ATOM     27  N   UNL d   1     -42.213  13.342  20.402  0.00  0.00    -0.208 NA
ATOM     28  C   UNL d   1     -41.616  13.849  20.635  0.00  0.00     0.279 C 
ATOM     29  O   UNL d   1     -41.061  14.104  20.082  0.00  0.00    -0.265 OA
ATOM     30  C   UNL d   1     -41.560  14.108  21.417  0.00  0.00     0.068 C 
ENDBRANCH   8  27
TORSDOF 9
ENDMDL
