MODEL 1
REMARK VINA RESULT:      -8.0      0.000      0.000
REMARK  8 active torsions:
REMARK  status: ('A' for Active; 'I' for Inactive)
REMARK    1  A    between atoms: C_4  and  C_1 
REMARK    2  A    between atoms: C_10  and  C_2 
REMARK    3  A    between atoms: C_15  and  C_9 
REMARK    4  A    between atoms: O_21  and  C_10 
REMARK    5  A    between atoms: O_22  and  C_15 
REMARK    6  A    between atoms: C_24  and  C_17 
REMARK    7  A    between atoms: C_25  and  O_21 
REMARK    8  A    between atoms: C_26  and  O_22 
ROOT
ATOM      1  C   UNL d   1      52.788  32.399  53.327  0.00  0.00     0.090 A 
ATOM      2  C   UNL d   1      53.231  33.011  53.656  0.00  0.00     0.168 A 
ATOM      3  C   UNL d   1      52.024  32.545  53.054  0.00  0.00     0.201 A 
ATOM      4  C   UNL d   1      51.707  33.299  53.108  0.00  0.00     0.062 A 
ATOM      5  O   UNL d   1      52.910  33.769  53.710  0.00  0.00    -0.301 OA
ATOM      6  C   UNL d   1      52.150  33.911  53.437  0.00  0.00     0.106 A 
ATOM      7  C   UNL d   1      50.965  33.427  52.839  0.00  0.00     0.008 A 
ATOM      8  C   UNL d   1      51.850  34.651  53.496  0.00  0.00     0.067 A 
ATOM      9  C   UNL d   1      51.086  34.797  53.221  0.00  0.00     0.198 A 
ATOM     10  C   UNL d   1      50.643  34.184  52.893  0.00  0.00     0.039 A 
ATOM     11  O   UNL d   1      51.581  31.933  52.725  0.00  0.00    -0.286 OA
ATOM     12  O   UNL d   1      50.755  35.589  53.281  0.00  0.00    -0.286 OA
ENDROOT
BRANCH   1  13
ATOM     13  C   UNL d   1      53.089  31.659  53.269  0.00  0.00     0.105 A 
ATOM     14  O   UNL d   1      52.826  31.050  53.719  0.00  0.00    -0.302 OA
ATOM     15  C   UNL d   1      53.257  30.362  53.518  0.00  0.00     0.163 A 
ATOM     16  C   UNL d   1      53.797  30.574  52.923  0.00  0.00     0.032 A 
ATOM     17  C   UNL d   1      53.690  31.391  52.768  0.00  0.00     0.027 A 
BRANCH  15  18
ATOM     18  C   UNL d   1      53.157  29.593  53.860  0.00  0.00     0.323 C 
ATOM     19  O   UNL d   1      52.837  28.981  53.427  0.00  0.00    -0.257 OA
BRANCH  18  20
ATOM     20  O   UNL d   1      53.388  29.456  54.654  0.00  0.00    -0.270 OA
BRANCH  20  21
ATOM     21  C   UNL d   1      53.352  28.702  54.975  0.00  0.00     0.126 C 
ATOM     22  C   UNL d   1      53.404  28.580  55.776  0.00  0.00     0.029 C 
ENDBRANCH  20  21
ENDBRANCH  18  20
ENDBRANCH  15  18
ENDBRANCH   1  13
BRANCH   2  23
ATOM     23  C   UNL d   1      54.004  32.885  53.938  0.00  0.00     0.323 C 
ATOM     24  O   UNL d   1      54.618  32.784  53.390  0.00  0.00    -0.257 OA
BRANCH  23  25
ATOM     25  O   UNL d   1      54.169  32.860  54.745  0.00  0.00    -0.270 OA
BRANCH  25  26
ATOM     26  C   UNL d   1      54.816  33.281  55.047  0.00  0.00     0.126 C 
ATOM     27  C   UNL d   1      54.875  33.414  55.858  0.00  0.00     0.029 C 
ENDBRANCH  25  26
ENDBRANCH  23  25
ENDBRANCH   2  23
BRANCH  10  28
ATOM     28  C   UNL d   1      49.858  34.349  52.615  0.00  0.00     0.003 C 
ATOM     29  C   UNL d   1      49.663  34.275  51.817  0.00  0.00     0.000 C 
ENDBRANCH  10  28
TORSDOF 8
ENDMDL
MODEL 2
REMARK VINA RESULT:      -7.6      1.306      4.512
REMARK  8 active torsions:
REMARK  status: ('A' for Active; 'I' for Inactive)
REMARK    1  A    between atoms: C_4  and  C_1 
REMARK    2  A    between atoms: C_10  and  C_2 
REMARK    3  A    between atoms: C_15  and  C_9 
REMARK    4  A    between atoms: O_21  and  C_10 
REMARK    5  A    between atoms: O_22  and  C_15 
REMARK    6  A    between atoms: C_24  and  C_17 
REMARK    7  A    between atoms: C_25  and  O_21 
REMARK    8  A    between atoms: C_26  and  O_22 
ROOT
ATOM      1  C   UNL d   1      52.086  33.356  52.846  0.00  0.00     0.090 A 
ATOM      2  C   UNL d   1      52.702  33.700  53.272  0.00  0.00     0.168 A 
ATOM      3  C   UNL d   1      52.056  32.537  52.756  0.00  0.00     0.201 A 
ATOM      4  C   UNL d   1      52.638  32.066  53.089  0.00  0.00     0.062 A 
ATOM      5  O   UNL d   1      53.287  33.224  53.607  0.00  0.00    -0.301 OA
ATOM      6  C   UNL d   1      53.254  32.410  53.514  0.00  0.00     0.106 A 
ATOM      7  C   UNL d   1      52.597  31.273  52.993  0.00  0.00     0.008 A 
ATOM      8  C   UNL d   1      53.828  31.960  53.844  0.00  0.00     0.067 A 
ATOM      9  C   UNL d   1      53.797  31.140  53.753  0.00  0.00     0.198 A 
ATOM     10  C   UNL d   1      53.181  30.797  53.327  0.00  0.00     0.039 A 
ATOM     11  O   UNL d   1      51.440  32.193  52.330  0.00  0.00    -0.286 OA
ATOM     12  O   UNL d   1      54.411  30.649  54.104  0.00  0.00    -0.286 OA
ENDROOT
BRANCH   1  13
ATOM     13  C   UNL d   1      51.512  33.807  52.517  0.00  0.00     0.105 A 
ATOM     14  O   UNL d   1      50.796  33.912  52.862  0.00  0.00    -0.302 OA
ATOM     15  C   UNL d   1      50.334  34.411  52.373  0.00  0.00     0.163 A 
ATOM     16  C   UNL d   1      50.797  34.607  51.712  0.00  0.00     0.032 A 
ATOM     17  C   UNL d   1      51.539  34.226  51.805  0.00  0.00     0.027 A 
BRANCH  15  18
ATOM     18  C   UNL d   1      49.541  34.664  52.529  0.00  0.00     0.323 C 
ATOM     19  O   UNL d   1      48.920  34.403  52.069  0.00  0.00    -0.257 OA
BRANCH  18  20
ATOM     20  O   UNL d   1      49.386  35.191  53.162  0.00  0.00    -0.270 OA
BRANCH  20  21
ATOM     21  C   UNL d   1      48.663  35.572  53.221  0.00  0.00     0.126 C 
ATOM     22  C   UNL d   1      48.483  36.042  53.859  0.00  0.00     0.029 C 
ENDBRANCH  20  21
ENDBRANCH  18  20
ENDBRANCH  15  18
ENDBRANCH   1  13
BRANCH   2  23
ATOM     23  C   UNL d   1      52.752  34.524  53.376  0.00  0.00     0.323 C 
ATOM     24  O   UNL d   1      53.003  34.992  52.739  0.00  0.00    -0.257 OA
BRANCH  23  25
ATOM     25  O   UNL d   1      52.558  34.880  54.093  0.00  0.00    -0.270 OA
BRANCH  25  26
ATOM     26  C   UNL d   1      53.000  35.526  54.365  0.00  0.00     0.126 C 
ATOM     27  C   UNL d   1      52.784  35.905  55.064  0.00  0.00     0.029 C 
ENDBRANCH  25  26
ENDBRANCH  23  25
ENDBRANCH   2  23
BRANCH  10  28
ATOM     28  C   UNL d   1      53.162  29.952  53.241  0.00  0.00     0.003 C 
ATOM     29  C   UNL d   1      52.494  29.517  53.451  0.00  0.00     0.000 C 
ENDBRANCH  10  28
TORSDOF 8
ENDMDL
MODEL 3
REMARK VINA RESULT:      -7.3      1.242      4.661
REMARK  8 active torsions:
REMARK  status: ('A' for Active; 'I' for Inactive)
REMARK    1  A    between atoms: C_4  and  C_1 
REMARK    2  A    between atoms: C_10  and  C_2 
REMARK    3  A    between atoms: C_15  and  C_9 
REMARK    4  A    between atoms: O_21  and  C_10 
REMARK    5  A    between atoms: O_22  and  C_15 
REMARK    6  A    between atoms: C_24  and  C_17 
REMARK    7  A    between atoms: C_25  and  O_21 
REMARK    8  A    between atoms: C_26  and  O_22 
ROOT
ATOM      1  C   UNL d   1      53.384  32.282  53.686  0.00  0.00     0.090 A 
ATOM      2  C   UNL d   1      52.830  32.274  53.076  0.00  0.00     0.168 A 
ATOM      3  C   UNL d   1      53.614  31.574  54.041  0.00  0.00     0.201 A 
ATOM      4  C   UNL d   1      53.292  30.865  53.788  0.00  0.00     0.062 A 
ATOM      5  O   UNL d   1      52.506  31.559  52.823  0.00  0.00    -0.301 OA
ATOM      6  C   UNL d   1      52.737  30.857  53.178  0.00  0.00     0.106 A 
ATOM      7  C   UNL d   1      53.523  30.186  54.141  0.00  0.00     0.008 A 
ATOM      8  C   UNL d   1      52.416  30.170  52.923  0.00  0.00     0.067 A 
ATOM      9  C   UNL d   1      52.646  29.463  53.279  0.00  0.00     0.198 A 
ATOM     10  C   UNL d   1      53.201  29.470  53.888  0.00  0.00     0.039 A 
ATOM     11  O   UNL d   1      54.168  31.582  54.651  0.00  0.00    -0.286 OA
ATOM     12  O   UNL d   1      52.306  28.719  53.010  0.00  0.00    -0.286 OA
ENDROOT
BRANCH   1  13
ATOM     13  C   UNL d   1      53.705  32.970  53.941  0.00  0.00     0.105 A 
ATOM     14  O   UNL d   1      53.320  33.467  54.437  0.00  0.00    -0.302 OA
ATOM     15  C   UNL d   1      53.811  34.128  54.590  0.00  0.00     0.163 A 
ATOM     16  C   UNL d   1      54.516  34.015  54.165  0.00  0.00     0.032 A 
ATOM     17  C   UNL d   1      54.447  33.285  53.757  0.00  0.00     0.027 A 
BRANCH  15  18
ATOM     18  C   UNL d   1      53.619  34.787  55.086  0.00  0.00     0.323 C 
ATOM     19  O   UNL d   1      53.655  34.723  55.898  0.00  0.00    -0.257 OA
BRANCH  18  20
ATOM     20  O   UNL d   1      53.389  35.517  54.743  0.00  0.00    -0.270 OA
BRANCH  20  21
ATOM     21  C   UNL d   1      52.943  36.056  55.169  0.00  0.00     0.126 C 
ATOM     22  C   UNL d   1      52.616  36.709  54.814  0.00  0.00     0.029 C 
ENDBRANCH  20  21
ENDBRANCH  18  20
ENDBRANCH  15  18
ENDBRANCH   1  13
BRANCH   2  23
ATOM     23  C   UNL d   1      52.583  32.977  52.703  0.00  0.00     0.323 C 
ATOM     24  O   UNL d   1      53.085  33.329  52.144  0.00  0.00    -0.257 OA
BRANCH  23  25
ATOM     25  O   UNL d   1      51.858  33.325  52.878  0.00  0.00    -0.270 OA
BRANCH  25  26
ATOM     26  C   UNL d   1      51.460  33.761  52.296  0.00  0.00     0.126 C 
ATOM     27  C   UNL d   1      50.751  34.138  52.480  0.00  0.00     0.029 C 
ENDBRANCH  25  26
ENDBRANCH  23  25
ENDBRANCH   2  23
BRANCH  10  28
ATOM     28  C   UNL d   1      53.429  28.735  54.246  0.00  0.00     0.003 C 
ATOM     29  C   UNL d   1      53.431  28.641  55.065  0.00  0.00     0.000 C 
ENDBRANCH  10  28
TORSDOF 8
ENDMDL
MODEL 4
REMARK VINA RESULT:      -6.7      0.959      4.347
REMARK  8 active torsions:
REMARK  status: ('A' for Active; 'I' for Inactive)
REMARK    1  A    between atoms: C_4  and  C_1 
REMARK    2  A    between atoms: C_10  and  C_2 
REMARK    3  A    between atoms: C_15  and  C_9 
REMARK    4  A    between atoms: O_21  and  C_10 
REMARK    5  A    between atoms: O_22  and  C_15 
REMARK    6  A    between atoms: C_24  and  C_17 
REMARK    7  A    between atoms: C_25  and  O_21 
REMARK    8  A    between atoms: C_26  and  O_22 
ROOT
ATOM      1  C   UNL d   1      52.805  32.613  53.452  0.00  0.00     0.090 A 
ATOM      2  C   UNL d   1      53.305  32.614  54.107  0.00  0.00     0.168 A 
ATOM      3  C   UNL d   1      52.620  31.902  53.077  0.00  0.00     0.201 A 
ATOM      4  C   UNL d   1      52.935  31.198  53.355  0.00  0.00     0.062 A 
ATOM      5  O   UNL d   1      53.621  31.904  54.385  0.00  0.00    -0.301 OA
ATOM      6  C   UNL d   1      53.435  31.199  54.009  0.00  0.00     0.106 A 
ATOM      7  C   UNL d   1      52.747  30.517  52.981  0.00  0.00     0.008 A 
ATOM      8  C   UNL d   1      53.748  30.518  54.289  0.00  0.00     0.067 A 
ATOM      9  C   UNL d   1      53.563  29.807  53.913  0.00  0.00     0.198 A 
ATOM     10  C   UNL d   1      53.062  29.807  53.259  0.00  0.00     0.039 A 
ATOM     11  O   UNL d   1      52.120  31.902  52.422  0.00  0.00    -0.286 OA
ATOM     12  O   UNL d   1      53.895  29.070  54.208  0.00  0.00    -0.286 OA
ENDROOT
BRANCH   1  13
ATOM     13  C   UNL d   1      52.493  33.295  53.173  0.00  0.00     0.105 A 
ATOM     14  O   UNL d   1      51.723  33.493  53.280  0.00  0.00    -0.302 OA
ATOM     15  C   UNL d   1      51.584  34.236  52.920  0.00  0.00     0.163 A 
ATOM     16  C   UNL d   1      52.302  34.487  52.587  0.00  0.00     0.032 A 
ATOM     17  C   UNL d   1      52.873  33.894  52.747  0.00  0.00     0.027 A 
BRANCH  15  18
ATOM     18  C   UNL d   1      50.845  34.650  52.902  0.00  0.00     0.323 C 
ATOM     19  O   UNL d   1      50.681  35.235  53.445  0.00  0.00    -0.257 OA
BRANCH  18  20
ATOM     20  O   UNL d   1      50.272  34.459  52.321  0.00  0.00    -0.270 OA
BRANCH  20  21
ATOM     21  C   UNL d   1      49.522  34.788  52.350  0.00  0.00     0.126 C 
ATOM     22  C   UNL d   1      48.976  34.649  51.766  0.00  0.00     0.029 C 
ENDBRANCH  20  21
ENDBRANCH  18  20
ENDBRANCH  15  18
ENDBRANCH   1  13
BRANCH   2  23
ATOM     23  C   UNL d   1      53.505  33.320  54.501  0.00  0.00     0.323 C 
ATOM     24  O   UNL d   1      52.934  33.684  54.980  0.00  0.00    -0.257 OA
BRANCH  23  25
ATOM     25  O   UNL d   1      54.251  33.659  54.424  0.00  0.00    -0.270 OA
BRANCH  25  26
ATOM     26  C   UNL d   1      54.647  33.940  55.096  0.00  0.00     0.126 C 
ATOM     27  C   UNL d   1      55.459  34.078  55.066  0.00  0.00     0.029 C 
ENDBRANCH  25  26
ENDBRANCH  23  25
ENDBRANCH   2  23
BRANCH  10  28
ATOM     28  C   UNL d   1      52.880  29.068  52.881  0.00  0.00     0.003 C 
ATOM     29  C   UNL d   1      52.107  28.784  52.850  0.00  0.00     0.000 C 
ENDBRANCH  10  28
TORSDOF 8
ENDMDL
MODEL 5
REMARK VINA RESULT:      -5.5      1.279      2.115
REMARK  8 active torsions:
REMARK  status: ('A' for Active; 'I' for Inactive)
REMARK    1  A    between atoms: C_4  and  C_1 
REMARK    2  A    between atoms: C_10  and  C_2 
REMARK    3  A    between atoms: C_15  and  C_9 
REMARK    4  A    between atoms: O_21  and  C_10 
REMARK    5  A    between atoms: O_22  and  C_15 
REMARK    6  A    between atoms: C_24  and  C_17 
REMARK    7  A    between atoms: C_25  and  O_21 
REMARK    8  A    between atoms: C_26  and  O_22 
ROOT
ATOM      1  C   UNL d   1      51.956  33.836  53.113  0.00  0.00     0.090 A 
ATOM      2  C   UNL d   1      51.867  34.435  53.672  0.00  0.00     0.168 A 
ATOM      3  C   UNL d   1      51.358  33.696  52.562  0.00  0.00     0.201 A 
ATOM      4  C   UNL d   1      50.677  34.152  52.571  0.00  0.00     0.062 A 
ATOM      5  O   UNL d   1      51.180  34.893  53.680  0.00  0.00    -0.301 OA
ATOM      6  C   UNL d   1      50.588  34.751  53.130  0.00  0.00     0.106 A 
ATOM      7  C   UNL d   1      50.106  34.006  52.031  0.00  0.00     0.008 A 
ATOM      8  C   UNL d   1      49.928  35.203  53.149  0.00  0.00     0.067 A 
ATOM      9  C   UNL d   1      49.331  35.062  52.597  0.00  0.00     0.198 A 
ATOM     10  C   UNL d   1      49.419  34.463  52.038  0.00  0.00     0.039 A 
ATOM     11  O   UNL d   1      51.447  33.098  52.003  0.00  0.00    -0.286 OA
ATOM     12  O   UNL d   1      48.617  35.543  52.610  0.00  0.00    -0.286 OA
ENDROOT
BRANCH   1  13
ATOM     13  C   UNL d   1      52.617  33.385  53.095  0.00  0.00     0.105 A 
ATOM     14  O   UNL d   1      52.637  32.639  53.388  0.00  0.00    -0.302 OA
ATOM     15  C   UNL d   1      53.408  32.330  53.281  0.00  0.00     0.163 A 
ATOM     16  C   UNL d   1      53.861  32.919  52.909  0.00  0.00     0.032 A 
ATOM     17  C   UNL d   1      53.361  33.582  52.793  0.00  0.00     0.027 A 
BRANCH  15  18
ATOM     18  C   UNL d   1      53.671  31.559  53.511  0.00  0.00     0.323 C 
ATOM     19  O   UNL d   1      54.434  31.438  53.772  0.00  0.00    -0.257 OA
BRANCH  18  20
ATOM     20  O   UNL d   1      53.144  30.908  53.473  0.00  0.00    -0.270 OA
BRANCH  20  21
ATOM     21  C   UNL d   1      53.407  30.148  53.636  0.00  0.00     0.126 C 
ATOM     22  C   UNL d   1      52.921  29.504  53.544  0.00  0.00     0.029 C 
ENDBRANCH  20  21
ENDBRANCH  18  20
ENDBRANCH  15  18
ENDBRANCH   1  13
BRANCH   2  23
ATOM     23  C   UNL d   1      52.457  34.593  54.237  0.00  0.00     0.323 C 
ATOM     24  O   UNL d   1      52.556  34.066  54.870  0.00  0.00    -0.257 OA
BRANCH  23  25
ATOM     25  O   UNL d   1      52.940  35.257  54.180  0.00  0.00    -0.270 OA
BRANCH  25  26
ATOM     26  C   UNL d   1      53.164  35.665  54.867  0.00  0.00     0.126 C 
ATOM     27  C   UNL d   1      53.463  36.430  54.810  0.00  0.00     0.029 C 
ENDBRANCH  25  26
ENDBRANCH  23  25
ENDBRANCH   2  23
BRANCH  10  28
ATOM     28  C   UNL d   1      48.797  34.330  51.477  0.00  0.00     0.003 C 
ATOM     29  C   UNL d   1      48.912  34.465  50.672  0.00  0.00     0.000 C 
ENDBRANCH  10  28
TORSDOF 8
ENDMDL
MODEL 6
REMARK VINA RESULT:      -5.3      1.012      3.040
REMARK  8 active torsions:
REMARK  status: ('A' for Active; 'I' for Inactive)
REMARK    1  A    between atoms: C_4  and  C_1 
REMARK    2  A    between atoms: C_10  and  C_2 
REMARK    3  A    between atoms: C_15  and  C_9 
REMARK    4  A    between atoms: O_21  and  C_10 
REMARK    5  A    between atoms: O_22  and  C_15 
REMARK    6  A    between atoms: C_24  and  C_17 
REMARK    7  A    between atoms: C_25  and  O_21 
REMARK    8  A    between atoms: C_26  and  O_22 
ROOT
ATOM      1  C   UNL d   1      52.941  32.400  53.586  0.00  0.00     0.090 A 
ATOM      2  C   UNL d   1      52.325  32.944  53.531  0.00  0.00     0.168 A 
ATOM      3  C   UNL d   1      53.638  32.606  53.977  0.00  0.00     0.201 A 
ATOM      4  C   UNL d   1      53.716  33.351  54.310  0.00  0.00     0.062 A 
ATOM      5  O   UNL d   1      52.406  33.693  53.866  0.00  0.00    -0.301 OA
ATOM      6  C   UNL d   1      53.099  33.895  54.254  0.00  0.00     0.106 A 
ATOM      7  C   UNL d   1      54.396  33.538  54.686  0.00  0.00     0.008 A 
ATOM      8  C   UNL d   1      53.164  34.625  54.575  0.00  0.00     0.067 A 
ATOM      9  C   UNL d   1      53.861  34.831  54.966  0.00  0.00     0.198 A 
ATOM     10  C   UNL d   1      54.478  34.287  55.021  0.00  0.00     0.039 A 
ATOM     11  O   UNL d   1      54.254  32.062  54.033  0.00  0.00    -0.286 OA
ATOM     12  O   UNL d   1      53.940  35.614  55.314  0.00  0.00    -0.286 OA
ENDROOT
BRANCH   1  13
ATOM     13  C   UNL d   1      52.875  31.669  53.265  0.00  0.00     0.105 A 
ATOM     14  O   UNL d   1      52.816  31.006  53.711  0.00  0.00    -0.302 OA
ATOM     15  C   UNL d   1      52.756  30.344  53.202  0.00  0.00     0.163 A 
ATOM     16  C   UNL d   1      52.780  30.630  52.422  0.00  0.00     0.032 A 
ATOM     17  C   UNL d   1      52.855  31.464  52.464  0.00  0.00     0.027 A 
BRANCH  15  18
ATOM     18  C   UNL d   1      52.684  29.536  53.443  0.00  0.00     0.323 C 
ATOM     19  O   UNL d   1      52.450  28.961  52.914  0.00  0.00    -0.257 OA
BRANCH  18  20
ATOM     20  O   UNL d   1      52.854  29.318  54.234  0.00  0.00    -0.270 OA
BRANCH  20  21
ATOM     21  C   UNL d   1      53.229  28.608  54.400  0.00  0.00     0.126 C 
ATOM     22  C   UNL d   1      53.476  28.426  55.152  0.00  0.00     0.029 C 
ENDBRANCH  20  21
ENDBRANCH  18  20
ENDBRANCH  15  18
ENDBRANCH   1  13
BRANCH   2  23
ATOM     23  C   UNL d   1      51.614  32.757  53.141  0.00  0.00     0.323 C 
ATOM     24  O   UNL d   1      51.105  32.198  53.484  0.00  0.00    -0.257 OA
BRANCH  23  25
ATOM     25  O   UNL d   1      51.408  33.112  52.427  0.00  0.00    -0.270 OA
BRANCH  25  26
ATOM     26  C   UNL d   1      50.657  33.454  52.339  0.00  0.00     0.126 C 
ATOM     27  C   UNL d   1      50.525  33.999  51.735  0.00  0.00     0.029 C 
ENDBRANCH  25  26
ENDBRANCH  23  25
ENDBRANCH   2  23
BRANCH  10  28
ATOM     28  C   UNL d   1      55.189  34.512  55.427  0.00  0.00     0.003 C 
ATOM     29  C   UNL d   1      55.893  34.097  55.314  0.00  0.00     0.000 C 
ENDBRANCH  10  28
TORSDOF 8
ENDMDL
