MODEL 1
REMARK VINA RESULT:      85.2      0.000      0.000
REMARK  6 active torsions:
REMARK  status: ('A' for Active; 'I' for Inactive)
REMARK    1  A    between atoms: C_16  and  N_1 
REMARK    2  A    between atoms: C_11  and  C_2 
REMARK    3  A    between atoms: S_15  and  C_3 
REMARK    4  A    between atoms: C_8  and  C_11 
REMARK    5  A    between atoms: C_13  and  C_17 
REMARK       I    between atoms: N_14  and  C_13 
REMARK    6  A    between atoms: C_17  and  S_15 
ROOT
ATOM      1  N   UNL d   1     -50.077  26.519  33.738  0.00  0.00    -0.269 N 
ATOM      2  C   UNL d   1     -50.877  26.358  33.579  0.00  0.00     0.172 A 
ATOM      3  C   UNL d   1     -50.006  27.332  33.840  0.00  0.00     0.201 A 
ATOM      4  N   UNL d   1     -51.286  27.067  33.584  0.00  0.00    -0.128 NA
ATOM      5  N   UNL d   1     -50.741  27.671  33.747  0.00  0.00    -0.121 NA
ENDROOT
BRANCH   3   6
ATOM      6  S   UNL d   1     -49.302  27.752  34.010  0.00  0.00    -0.043 SA
BRANCH   6   7
ATOM      7  C   UNL d   1     -49.303  28.340  34.601  0.00  0.00     0.099 C 
BRANCH   7   8
ATOM      8  C   UNL d   1     -48.886  29.036  34.476  0.00  0.00     0.271 C 
ATOM      9  N   UNL d   1     -48.296  29.265  35.004  0.00  0.00    -0.272 N 
ATOM     10  C   UNL d   1     -47.873  29.969  34.881  0.00  0.00     0.083 A 
ATOM     11  C   UNL d   1     -48.120  28.796  35.660  0.00  0.00     0.083 A 
ATOM     12  C   UNL d   1     -47.282  30.198  35.408  0.00  0.00     0.019 A 
ATOM     13  C   UNL d   1     -47.112  29.721  36.063  0.00  0.00     0.003 A 
ATOM     14  C   UNL d   1     -47.529  29.025  36.188  0.00  0.00     0.019 A 
ATOM     15  O   UNL d   1     -49.058  29.515  33.817  0.00  0.00    -0.266 OA
ENDBRANCH   7   8
ENDBRANCH   6   7
ENDBRANCH   3   6
BRANCH   1  16
ATOM     16  C   UNL d   1     -49.447  25.992  33.792  0.00  0.00     0.067 A 
ATOM     17  C   UNL d   1     -49.441  25.313  33.306  0.00  0.00     0.018 A 
ATOM     18  C   UNL d   1     -48.809  24.776  33.354  0.00  0.00     0.002 A 
ATOM     19  C   UNL d   1     -48.196  24.928  33.886  0.00  0.00     0.000 A 
ATOM     20  C   UNL d   1     -48.197  25.590  34.364  0.00  0.00     0.002 A 
ATOM     21  C   UNL d   1     -48.830  26.128  34.316  0.00  0.00     0.018 A 
ENDBRANCH   1  16
BRANCH   2  22
ATOM     22  C   UNL d   1     -51.118  25.572  33.451  0.00  0.00     0.059 C 
BRANCH  22  23
ATOM     23  C   UNL d   1     -51.930  25.393  33.415  0.00  0.00     0.094 A 
ATOM     24  C   UNL d   1     -52.492  25.997  33.385  0.00  0.00     0.082 A 
ATOM     25  C   UNL d   1     -53.292  25.810  33.350  0.00  0.00     0.285 A 
ATOM     26  O   UNL d   1     -53.854  26.414  33.320  0.00  0.00    -0.265 OA
ATOM     27  N   UNL d   1     -53.531  25.022  33.346  0.00  0.00    -0.152 NA
ATOM     28  C   UNL d   1     -52.982  24.423  33.375  0.00  0.00     0.371 A 
ATOM     29  N   UNL d   1     -52.169  24.604  33.411  0.00  0.00    -0.191 NA
ATOM     30  O   UNL d   1     -53.249  23.627  33.369  0.00  0.00    -0.242 OA
ENDBRANCH  22  23
ENDBRANCH   2  22
TORSDOF 6
ENDMDL
MODEL 2
REMARK VINA RESULT:      87.0      1.705      5.476
REMARK  6 active torsions:
REMARK  status: ('A' for Active; 'I' for Inactive)
REMARK    1  A    between atoms: C_16  and  N_1 
REMARK    2  A    between atoms: C_11  and  C_2 
REMARK    3  A    between atoms: S_15  and  C_3 
REMARK    4  A    between atoms: C_8  and  C_11 
REMARK    5  A    between atoms: C_13  and  C_17 
REMARK       I    between atoms: N_14  and  C_13 
REMARK    6  A    between atoms: C_17  and  S_15 
ROOT
ATOM      1  N   UNL d   1     -49.791  27.437  35.021  0.00  0.00    -0.269 N 
ATOM      2  C   UNL d   1     -49.176  27.965  34.835  0.00  0.00     0.172 A 
ATOM      3  C   UNL d   1     -50.105  27.168  34.311  0.00  0.00     0.201 A 
ATOM      4  N   UNL d   1     -49.120  28.014  34.020  0.00  0.00    -0.128 NA
ATOM      5  N   UNL d   1     -49.700  27.517  33.697  0.00  0.00    -0.121 NA
ENDROOT
BRANCH   3   6
ATOM      6  S   UNL d   1     -50.737  26.625  34.221  0.00  0.00    -0.043 SA
BRANCH   6   7
ATOM      7  C   UNL d   1     -50.855  26.244  33.489  0.00  0.00     0.099 C 
BRANCH   7   8
ATOM      8  C   UNL d   1     -51.489  25.731  33.400  0.00  0.00     0.271 C 
ATOM      9  N   UNL d   1     -51.366  24.915  33.403  0.00  0.00    -0.272 N 
ATOM     10  C   UNL d   1     -52.004  24.394  33.313  0.00  0.00     0.083 A 
ATOM     11  C   UNL d   1     -50.603  24.611  33.495  0.00  0.00     0.083 A 
ATOM     12  C   UNL d   1     -51.881  23.579  33.316  0.00  0.00     0.019 A 
ATOM     13  C   UNL d   1     -51.114  23.282  33.409  0.00  0.00     0.003 A 
ATOM     14  C   UNL d   1     -50.479  23.796  33.497  0.00  0.00     0.019 A 
ATOM     15  O   UNL d   1     -52.261  26.029  33.307  0.00  0.00    -0.266 OA
ENDBRANCH   7   8
ENDBRANCH   6   7
ENDBRANCH   3   6
BRANCH   1  16
ATOM     16  C   UNL d   1     -50.061  27.203  35.762  0.00  0.00     0.067 A 
ATOM     17  C   UNL d   1     -50.881  27.094  35.881  0.00  0.00     0.018 A 
ATOM     18  C   UNL d   1     -51.163  26.858  36.626  0.00  0.00     0.002 A 
ATOM     19  C   UNL d   1     -50.621  26.736  37.237  0.00  0.00     0.000 A 
ATOM     20  C   UNL d   1     -49.819  26.840  37.126  0.00  0.00     0.002 A 
ATOM     21  C   UNL d   1     -49.536  27.077  36.380  0.00  0.00     0.018 A 
ENDBRANCH   1  16
BRANCH   2  22
ATOM     22  C   UNL d   1     -48.750  28.329  35.451  0.00  0.00     0.059 C 
BRANCH  22  23
ATOM     23  C   UNL d   1     -48.243  28.965  35.277  0.00  0.00     0.094 A 
ATOM     24  C   UNL d   1     -47.435  28.914  35.439  0.00  0.00     0.082 A 
ATOM     25  C   UNL d   1     -46.941  29.547  35.264  0.00  0.00     0.285 A 
ATOM     26  O   UNL d   1     -46.133  29.497  35.426  0.00  0.00    -0.265 OA
ATOM     27  N   UNL d   1     -47.253  30.232  34.926  0.00  0.00    -0.152 NA
ATOM     28  C   UNL d   1     -48.048  30.287  34.764  0.00  0.00     0.371 A 
ATOM     29  N   UNL d   1     -48.555  29.649  34.939  0.00  0.00    -0.191 NA
ATOM     30  O   UNL d   1     -48.343  30.994  34.420  0.00  0.00    -0.242 OA
ENDBRANCH  22  23
ENDBRANCH   2  22
TORSDOF 6
ENDMDL
