MODEL 1
REMARK VINA RESULT:      10.5      0.000      0.000
REMARK  3 active torsions:
REMARK  status: ('A' for Active; 'I' for Inactive)
REMARK    1  A    between atoms: C_10  and  C_4 
REMARK    2  A    between atoms: C_13  and  C_10 
REMARK    3  A    between atoms: C_11  and  C_13 
ROOT
ATOM      1  C   UNL d   1     -50.262  25.989  33.353  0.00  0.00     0.752 A 
ATOM      2  N   UNL d   1     -51.079  26.093  33.337  0.00  0.00    -0.056 N 
ATOM      3  N   UNL d   1     -49.953  25.226  33.353  0.00  0.00    -0.059 NA
ATOM      4  C   UNL d   1     -51.272  24.680  33.321  0.00  0.00     0.037 A 
ATOM      5  C   UNL d   1     -51.590  25.441  33.322  0.00  0.00     0.102 A 
ATOM      6  N   UNL d   1     -49.912  26.725  33.367  0.00  0.00    -0.035 NA
ATOM      7  C   UNL d   1     -50.454  24.572  33.337  0.00  0.00     0.101 A 
ATOM      8  N   UNL d   1     -51.228  26.902  33.341  0.00  0.00    -0.127 NA
ATOM      9  C   UNL d   1     -50.504  27.302  33.360  0.00  0.00     0.239 A 
ATOM     10  C   UNL d   1     -52.400  25.550  33.306  0.00  0.00     0.021 C 
ATOM     11  C   UNL d   1     -50.136  23.811  33.337  0.00  0.00     0.021 C 
ENDROOT
BRANCH   4  12
ATOM     12  C   UNL d   1     -51.765  24.027  33.306  0.00  0.00     0.009 C 
BRANCH  12  13
ATOM     13  C   UNL d   1     -52.583  24.123  33.327  0.00  0.00     0.070 C 
BRANCH  13  14
ATOM     14  C   UNL d   1     -53.054  23.558  33.699  0.00  0.00     0.211 C 
ATOM     15  O   UNL d   1     -53.761  23.314  33.354  0.00  0.00    -0.644 OA
ATOM     16  O   UNL d   1     -52.817  23.235  34.420  0.00  0.00    -0.644 OA
ENDBRANCH  13  14
ENDBRANCH  12  13
ENDBRANCH   4  12
TORSDOF 3
ENDMDL
MODEL 2
REMARK VINA RESULT:      11.9      2.279      3.450
REMARK  3 active torsions:
REMARK  status: ('A' for Active; 'I' for Inactive)
REMARK    1  A    between atoms: C_10  and  C_4 
REMARK    2  A    between atoms: C_13  and  C_10 
REMARK    3  A    between atoms: C_11  and  C_13 
ROOT
ATOM      1  C   UNL d   1     -53.171  24.501  33.334  0.00  0.00     0.752 A 
ATOM      2  N   UNL d   1     -52.578  23.929  33.333  0.00  0.00    -0.056 N 
ATOM      3  N   UNL d   1     -52.962  25.297  33.325  0.00  0.00    -0.059 NA
ATOM      4  C   UNL d   1     -51.578  24.946  33.315  0.00  0.00     0.037 A 
ATOM      5  C   UNL d   1     -51.779  24.146  33.324  0.00  0.00     0.102 A 
ATOM      6  N   UNL d   1     -53.892  24.120  33.344  0.00  0.00    -0.035 NA
ATOM      7  C   UNL d   1     -52.169  25.522  33.316  0.00  0.00     0.101 A 
ATOM      8  N   UNL d   1     -52.942  23.191  33.343  0.00  0.00    -0.127 NA
ATOM      9  C   UNL d   1     -53.762  23.304  33.350  0.00  0.00     0.239 A 
ATOM     10  C   UNL d   1     -51.195  23.574  33.323  0.00  0.00     0.021 C 
ATOM     11  C   UNL d   1     -51.969  26.322  33.307  0.00  0.00     0.021 C 
ENDROOT
BRANCH   4  12
ATOM     12  C   UNL d   1     -50.793  25.174  33.306  0.00  0.00     0.009 C 
BRANCH  12  13
ATOM     13  C   UNL d   1     -50.533  25.792  33.787  0.00  0.00     0.070 C 
BRANCH  13  14
ATOM     14  C   UNL d   1     -49.810  26.155  33.635  0.00  0.00     0.211 C 
ATOM     15  O   UNL d   1     -49.716  26.965  33.762  0.00  0.00    -0.644 OA
ATOM     16  O   UNL d   1     -49.175  25.709  33.355  0.00  0.00    -0.644 OA
ENDBRANCH  13  14
ENDBRANCH  12  13
ENDBRANCH   4  12
TORSDOF 3
ENDMDL
