MODEL 1
REMARK VINA RESULT:      33.4      0.000      0.000
REMARK  4 active torsions:
REMARK  status: ('A' for Active; 'I' for Inactive)
REMARK    1  A    between atoms: C_6  and  C_1 
REMARK    2  A    between atoms: C_4  and  C_2 
REMARK    3  A    between atoms: C_3  and  N_5 
REMARK    4  A    between atoms: N_5  and  C_7 
ROOT
ATOM      1  C   UNL d   1     -58.597 -98.803 -43.477  0.00  0.00     0.073 A 
ATOM      2  C   UNL d   1     -57.252 -98.781 -43.943  0.00  0.00     0.081 A 
ATOM      3  C   UNL d   1     -57.792 -98.780 -43.320  0.00  0.00     0.023 A 
ATOM      4  C   UNL d   1     -58.863 -98.828 -44.250  0.00  0.00     0.004 A 
ATOM      5  C   UNL d   1     -58.321 -98.829 -44.874  0.00  0.00     0.002 A 
ATOM      6  C   UNL d   1     -57.518 -98.806 -44.721  0.00  0.00     0.019 A 
ENDROOT
BRANCH   2   7
ATOM      7  N   UNL d   1     -56.445 -98.757 -43.791  0.00  0.00    -0.245 NA
BRANCH   7   8
ATOM      8  C   UNL d   1     -55.916 -99.002 -44.378  0.00  0.00     0.087 A 
ATOM      9  C   UNL d   1     -55.283 -99.497 -44.180  0.00  0.00     0.082 A 
ATOM     10  C   UNL d   1     -54.752 -99.744 -44.762  0.00  0.00     0.008 A 
ATOM     11  C   UNL d   1     -54.852 -99.498 -45.545  0.00  0.00     0.000 A 
ATOM     12  C   UNL d   1     -55.482 -99.005 -45.747  0.00  0.00     0.002 A 
ATOM     13  C   UNL d   1     -56.016 -98.755 -45.164  0.00  0.00     0.019 A 
BRANCH   9  14
ATOM     14  C   UNL d   1     -55.180 -99.748 -43.390  0.00  0.00     0.212 C 
ATOM     15  O   UNL d   1     -55.488-100.472 -43.156  0.00  0.00    -0.644 OA
ATOM     16  O   UNL d   1     -54.775 -99.268 -42.862  0.00  0.00    -0.644 OA
ENDBRANCH   9  14
ENDBRANCH   7   8
ENDBRANCH   2   7
BRANCH   1  17
ATOM     17  C   UNL d   1     -59.137 -98.802 -42.854  0.00  0.00     0.419 C 
ATOM     18  F   UNL d   1     -58.868 -98.760 -42.069  0.00  0.00    -0.166 F 
ATOM     19  F   UNL d   1     -59.950 -98.843 -43.008  0.00  0.00    -0.166 F 
ATOM     20  F   UNL d   1     -59.494 -98.788 -42.108  0.00  0.00    -0.166 F 
ENDBRANCH   1  17
TORSDOF 4
ENDMDL
