MODEL 1
REMARK VINA RESULT:      -8.8      0.000      0.000
REMARK  1 active torsions:
REMARK  status: ('A' for Active; 'I' for Inactive)
REMARK    1  A    between atoms: C_7  and  C_2 
ROOT
ATOM      1  C   UNL d   1     -48.147  11.875  23.327  0.00  0.00     0.257 A 
ATOM      2  C   UNL d   1     -48.564  12.534  23.067  0.00  0.00     0.142 A 
ATOM      3  C   UNL d   1     -47.318  11.891  23.351  0.00  0.00     0.238 A 
ATOM      4  O   UNL d   1     -48.158  13.200  22.835  0.00  0.00    -0.304 OA
ATOM      5  C   UNL d   1     -46.912  12.586  23.109  0.00  0.00     0.065 A 
ATOM      6  C   UNL d   1     -47.330  13.245  22.849  0.00  0.00     0.103 A 
ATOM      7  O   UNL d   1     -46.900  11.213  23.618  0.00  0.00    -0.283 OA
ATOM      8  O   UNL d   1     -48.552  11.180  23.569  0.00  0.00    -0.281 OA
ATOM      9  C   UNL d   1     -46.079  12.602  23.134  0.00  0.00     0.005 A 
ATOM     10  C   UNL d   1     -46.924  13.911  22.617  0.00  0.00     0.025 A 
ATOM     11  C   UNL d   1     -45.673  13.278  22.898  0.00  0.00     0.000 A 
ATOM     12  C   UNL d   1     -46.091  13.928  22.642  0.00  0.00     0.002 A 
ENDROOT
BRANCH   2  13
ATOM     13  C   UNL d   1     -49.398  12.536  23.035  0.00  0.00     0.026 A 
ATOM     14  C   UNL d   1     -49.770  12.350  22.302  0.00  0.00     0.002 A 
ATOM     15  C   UNL d   1     -50.593  12.353  22.276  0.00  0.00     0.000 A 
ATOM     16  C   UNL d   1     -51.058  12.530  22.933  0.00  0.00     0.000 A 
ATOM     17  C   UNL d   1     -50.678  12.711  23.647  0.00  0.00     0.000 A 
ATOM     18  C   UNL d   1     -49.857  12.714  23.697  0.00  0.00     0.002 A 
ENDBRANCH   2  13
TORSDOF 1
ENDMDL
MODEL 2
REMARK VINA RESULT:      -8.8      1.563      2.213
REMARK  1 active torsions:
REMARK  status: ('A' for Active; 'I' for Inactive)
REMARK    1  A    between atoms: C_7  and  C_2 
ROOT
ATOM      1  C   UNL d   1     -47.562  14.148  22.826  0.00  0.00     0.257 A 
ATOM      2  C   UNL d   1     -48.310  13.829  22.954  0.00  0.00     0.142 A 
ATOM      3  C   UNL d   1     -46.887  13.683  22.948  0.00  0.00     0.238 A 
ATOM      4  O   UNL d   1     -48.380  13.056  23.200  0.00  0.00    -0.304 OA
ATOM      5  C   UNL d   1     -46.974  12.887  23.202  0.00  0.00     0.065 A 
ATOM      6  C   UNL d   1     -47.721  12.568  23.330  0.00  0.00     0.103 A 
ATOM      7  O   UNL d   1     -46.128  14.018  22.815  0.00  0.00    -0.283 OA
ATOM      8  O   UNL d   1     -47.475  14.944  22.573  0.00  0.00    -0.281 OA
ATOM      9  C   UNL d   1     -46.294  12.420  23.324  0.00  0.00     0.005 A 
ATOM     10  C   UNL d   1     -47.791  11.796  23.576  0.00  0.00     0.025 A 
ATOM     11  C   UNL d   1     -46.370  11.640  23.573  0.00  0.00     0.000 A 
ATOM     12  C   UNL d   1     -47.111  11.329  23.698  0.00  0.00     0.002 A 
ENDROOT
BRANCH   2  13
ATOM     13  C   UNL d   1     -49.001  14.281  22.837  0.00  0.00     0.026 A 
ATOM     14  C   UNL d   1     -49.441  14.161  22.129  0.00  0.00     0.002 A 
ATOM     15  C   UNL d   1     -50.123  14.609  22.018  0.00  0.00     0.000 A 
ATOM     16  C   UNL d   1     -50.385  15.163  22.569  0.00  0.00     0.000 A 
ATOM     17  C   UNL d   1     -49.943  15.270  23.261  0.00  0.00     0.000 A 
ATOM     18  C   UNL d   1     -49.258  14.833  23.393  0.00  0.00     0.002 A 
ENDBRANCH   2  13
TORSDOF 1
ENDMDL
MODEL 3
REMARK VINA RESULT:      -8.6      1.704      3.659
REMARK  1 active torsions:
REMARK  status: ('A' for Active; 'I' for Inactive)
REMARK    1  A    between atoms: C_7  and  C_2 
ROOT
ATOM      1  C   UNL d   1     -48.688  13.547  21.987  0.00  0.00     0.257 A 
ATOM      2  C   UNL d   1     -48.240  13.807  22.627  0.00  0.00     0.142 A 
ATOM      3  C   UNL d   1     -49.450  13.849  21.864  0.00  0.00     0.238 A 
ATOM      4  O   UNL d   1     -48.552  14.361  23.136  0.00  0.00    -0.304 OA
ATOM      5  C   UNL d   1     -49.759  14.419  22.397  0.00  0.00     0.065 A 
ATOM      6  C   UNL d   1     -49.311  14.679  23.037  0.00  0.00     0.103 A 
ATOM      7  O   UNL d   1     -49.899  13.577  21.208  0.00  0.00    -0.283 OA
ATOM      8  O   UNL d   1     -48.379  12.976  21.454  0.00  0.00    -0.281 OA
ATOM      9  C   UNL d   1     -50.526  14.723  22.273  0.00  0.00     0.005 A 
ATOM     10  C   UNL d   1     -49.623  15.233  23.546  0.00  0.00     0.025 A 
ATOM     11  C   UNL d   1     -50.836  15.282  22.790  0.00  0.00     0.000 A 
ATOM     12  C   UNL d   1     -50.390  15.536  23.422  0.00  0.00     0.002 A 
ENDROOT
BRANCH   2  13
ATOM     13  C   UNL d   1     -47.471  13.515  22.767  0.00  0.00     0.026 A 
ATOM     14  C   UNL d   1     -46.817  13.962  22.481  0.00  0.00     0.002 A 
ATOM     15  C   UNL d   1     -46.060  13.670  22.622  0.00  0.00     0.000 A 
ATOM     16  C   UNL d   1     -45.924  12.965  23.027  0.00  0.00     0.000 A 
ATOM     17  C   UNL d   1     -46.577  12.537  23.302  0.00  0.00     0.000 A 
ATOM     18  C   UNL d   1     -47.343  12.809  23.173  0.00  0.00     0.002 A 
ENDBRANCH   2  13
TORSDOF 1
ENDMDL
MODEL 4
REMARK VINA RESULT:      -6.5      8.190      9.922
REMARK  1 active torsions:
REMARK  status: ('A' for Active; 'I' for Inactive)
REMARK    1  A    between atoms: C_7  and  C_2 
ROOT
ATOM      1  C   UNL d   1     -40.346  15.051  18.151  0.00  0.00     0.257 A 
ATOM      2  C   UNL d   1     -40.076  14.708  18.849  0.00  0.00     0.142 A 
ATOM      3  C   UNL d   1     -40.031  14.811  17.423  0.00  0.00     0.238 A 
ATOM      4  O   UNL d   1     -39.500  14.134  18.818  0.00  0.00    -0.304 OA
ATOM      5  C   UNL d   1     -39.437  14.217  17.406  0.00  0.00     0.065 A 
ATOM      6  C   UNL d   1     -39.168  13.875  18.103  0.00  0.00     0.103 A 
ATOM      7  O   UNL d   1     -40.313  15.166  16.716  0.00  0.00    -0.283 OA
ATOM      8  O   UNL d   1     -40.940  15.644  18.168  0.00  0.00    -0.281 OA
ATOM      9  C   UNL d   1     -39.121  13.976  16.673  0.00  0.00     0.005 A 
ATOM     10  C   UNL d   1     -38.591  13.301  18.072  0.00  0.00     0.025 A 
ATOM     11  C   UNL d   1     -38.538  13.396  16.646  0.00  0.00     0.000 A 
ATOM     12  C   UNL d   1     -38.275  13.060  17.339  0.00  0.00     0.002 A 
ENDROOT
BRANCH   2  13
ATOM     13  C   UNL d   1     -40.381  14.936  19.591  0.00  0.00     0.026 A 
ATOM     14  C   UNL d   1     -40.940  14.430  19.967  0.00  0.00     0.002 A 
ATOM     15  C   UNL d   1     -41.237  14.659  20.699  0.00  0.00     0.000 A 
ATOM     16  C   UNL d   1     -41.010  15.358  21.072  0.00  0.00     0.000 A 
ATOM     17  C   UNL d   1     -40.459  15.846  20.692  0.00  0.00     0.000 A 
ATOM     18  C   UNL d   1     -40.148  15.637  19.959  0.00  0.00     0.002 A 
ENDBRANCH   2  13
TORSDOF 1
ENDMDL
MODEL 5
REMARK VINA RESULT:      -6.4      8.598     10.335
REMARK  1 active torsions:
REMARK  status: ('A' for Active; 'I' for Inactive)
REMARK    1  A    between atoms: C_7  and  C_2 
ROOT
ATOM      1  C   UNL d   1     -40.212  14.117  18.438  0.00  0.00     0.257 A 
ATOM      2  C   UNL d   1     -39.467  14.412  18.253  0.00  0.00     0.142 A 
ATOM      3  C   UNL d   1     -40.587  14.345  19.141  0.00  0.00     0.238 A 
ATOM      4  O   UNL d   1     -39.102  14.929  18.766  0.00  0.00    -0.304 OA
ATOM      5  C   UNL d   1     -40.198  14.879  19.661  0.00  0.00     0.065 A 
ATOM      6  C   UNL d   1     -39.453  15.174  19.476  0.00  0.00     0.103 A 
ATOM      7  O   UNL d   1     -41.348  14.038  19.321  0.00  0.00    -0.283 OA
ATOM      8  O   UNL d   1     -40.601  13.583  17.918  0.00  0.00    -0.281 OA
ATOM      9  C   UNL d   1     -40.575  15.108  20.368  0.00  0.00     0.005 A 
ATOM     10  C   UNL d   1     -39.088  15.690  19.988  0.00  0.00     0.025 A 
ATOM     11  C   UNL d   1     -40.202  15.630  20.883  0.00  0.00     0.000 A 
ATOM     12  C   UNL d   1     -39.465  15.920  20.696  0.00  0.00     0.002 A 
ENDROOT
BRANCH   2  13
ATOM     13  C   UNL d   1     -39.075  14.194  17.550  0.00  0.00     0.026 A 
ATOM     14  C   UNL d   1     -39.149  14.698  16.879  0.00  0.00     0.002 A 
ATOM     15  C   UNL d   1     -38.760  14.478  16.187  0.00  0.00     0.000 A 
ATOM     16  C   UNL d   1     -38.306  13.792  16.131  0.00  0.00     0.000 A 
ATOM     17  C   UNL d   1     -38.242  13.307  16.799  0.00  0.00     0.000 A 
ATOM     18  C   UNL d   1     -38.622  13.506  17.501  0.00  0.00     0.002 A 
ENDBRANCH   2  13
TORSDOF 1
ENDMDL
MODEL 6
REMARK VINA RESULT:      -5.9      8.793      9.646
REMARK  1 active torsions:
REMARK  status: ('A' for Active; 'I' for Inactive)
REMARK    1  A    between atoms: C_7  and  C_2 
ROOT
ATOM      1  C   UNL d   1     -40.367  15.224  20.007  0.00  0.00     0.257 A 
ATOM      2  C   UNL d   1     -39.896  14.867  19.435  0.00  0.00     0.142 A 
ATOM      3  C   UNL d   1     -40.229  15.076  20.810  0.00  0.00     0.238 A 
ATOM      4  O   UNL d   1     -39.294  14.370  19.664  0.00  0.00    -0.304 OA
ATOM      5  C   UNL d   1     -39.604  14.560  21.032  0.00  0.00     0.065 A 
ATOM      6  C   UNL d   1     -39.132  14.204  20.461  0.00  0.00     0.103 A 
ATOM      7  O   UNL d   1     -40.715  15.444  21.387  0.00  0.00    -0.283 OA
ATOM      8  O   UNL d   1     -40.992  15.739  19.784  0.00  0.00    -0.281 OA
ATOM      9  C   UNL d   1     -39.464  14.411  21.841  0.00  0.00     0.005 A 
ATOM     10  C   UNL d   1     -38.530  13.706  20.690  0.00  0.00     0.025 A 
ATOM     11  C   UNL d   1     -38.854  13.908  22.068  0.00  0.00     0.000 A 
ATOM     12  C   UNL d   1     -38.390  13.557  21.499  0.00  0.00     0.002 A 
ENDROOT
BRANCH   2  13
ATOM     13  C   UNL d   1     -40.020  15.004  18.621  0.00  0.00     0.026 A 
ATOM     14  C   UNL d   1     -39.603  15.637  18.254  0.00  0.00     0.002 A 
ATOM     15  C   UNL d   1     -39.729  15.768  17.451  0.00  0.00     0.000 A 
ATOM     16  C   UNL d   1     -40.243  15.307  17.001  0.00  0.00     0.000 A 
ATOM     17  C   UNL d   1     -40.646  14.688  17.375  0.00  0.00     0.000 A 
ATOM     18  C   UNL d   1     -40.536  14.538  18.177  0.00  0.00     0.002 A 
ENDBRANCH   2  13
TORSDOF 1
ENDMDL
