MODEL 1
REMARK VINA RESULT:       0.6      0.000      0.000
REMARK  4 active torsions:
REMARK  status: ('A' for Active; 'I' for Inactive)
REMARK    1  A    between atoms: N_10  and  C_3 
REMARK    2  A    between atoms: C_12  and  C_5 
REMARK    3  A    between atoms: C_11  and  C_8 
REMARK    4  A    between atoms: C_13  and  N_10 
ROOT
ATOM      1  C   UNL d   1      58.762  -0.534  30.285  0.00  0.00     0.168 A 
ATOM      2  N   UNL d   1      58.160  -0.538  30.868  0.00  0.00    -0.184 N 
ATOM      3  C   UNL d   1      57.642  -1.155  30.880  0.00  0.00     0.217 A 
ATOM      4  N   UNL d   1      58.812  -1.148  29.749  0.00  0.00    -0.231 NA
ATOM      5  C   UNL d   1      59.293   0.075  30.254  0.00  0.00     0.057 A 
ATOM      6  N   UNL d   1      58.647   0.678  31.360  0.00  0.00    -0.160 NA
ATOM      7  C   UNL d   1      57.683  -1.777  30.347  0.00  0.00     0.067 A 
ATOM      8  C   UNL d   1      58.276  -1.773  29.774  0.00  0.00     0.064 A 
ATOM      9  C   UNL d   1      59.240   0.682  30.787  0.00  0.00     0.124 A 
ENDROOT
BRANCH   5  10
ATOM     10  C   UNL d   1      59.886   0.079  29.680  0.00  0.00     0.004 A 
ATOM     11  C   UNL d   1      60.540  -0.385  29.788  0.00  0.00     0.000 A 
ATOM     12  C   UNL d   1      61.133  -0.381  29.215  0.00  0.00     0.000 A 
ATOM     13  C   UNL d   1      61.053   0.087  28.551  0.00  0.00     0.000 A 
ATOM     14  C   UNL d   1      60.393   0.546  28.456  0.00  0.00     0.000 A 
ATOM     15  C   UNL d   1      59.800   0.542  29.030  0.00  0.00     0.000 A 
ENDBRANCH   5  10
BRANCH   3  16
ATOM     16  N   UNL d   1      57.029  -1.159  31.473  0.00  0.00    -0.383 NA
BRANCH  16  17
ATOM     17  C   UNL d   1      56.424  -1.164  32.064  0.00  0.00     0.134 C 
ATOM     18  C   UNL d   1      56.158  -0.431  32.396  0.00  0.00     0.035 C 
ATOM     19  C   UNL d   1      56.086  -1.906  32.320  0.00  0.00     0.035 C 
ENDBRANCH  16  17
ENDBRANCH   3  16
BRANCH   8  20
ATOM     20  C   UNL d   1      58.332  -2.412  29.212  0.00  0.00     0.036 C 
ATOM     21  C   UNL d   1      58.780  -3.108  29.408  0.00  0.00     0.006 C 
ATOM     22  C   UNL d   1      57.937  -2.350  28.456  0.00  0.00     0.006 C 
ATOM     23  C   UNL d   1      58.384  -3.041  28.653  0.00  0.00     0.006 C 
ENDBRANCH   8  20
TORSDOF 4
ENDMDL
MODEL 2
REMARK VINA RESULT:       3.2      1.335      2.869
REMARK  4 active torsions:
REMARK  status: ('A' for Active; 'I' for Inactive)
REMARK    1  A    between atoms: N_10  and  C_3 
REMARK    2  A    between atoms: C_12  and  C_5 
REMARK    3  A    between atoms: C_11  and  C_8 
REMARK    4  A    between atoms: C_13  and  N_10 
ROOT
ATOM      1  C   UNL d   1      58.977  -1.440  29.976  0.00  0.00     0.168 A 
ATOM      2  N   UNL d   1      58.270  -1.077  30.242  0.00  0.00    -0.184 N 
ATOM      3  C   UNL d   1      58.299  -0.305  30.473  0.00  0.00     0.217 A 
ATOM      4  N   UNL d   1      59.672  -1.011  29.956  0.00  0.00    -0.231 NA
ATOM      5  C   UNL d   1      58.972  -2.213  29.739  0.00  0.00     0.057 A 
ATOM      6  N   UNL d   1      57.585  -2.277  30.023  0.00  0.00    -0.160 NA
ATOM      7  C   UNL d   1      58.990   0.135  30.458  0.00  0.00     0.067 A 
ATOM      8  C   UNL d   1      59.686  -0.223  30.196  0.00  0.00     0.064 A 
ATOM      9  C   UNL d   1      58.281  -2.635  29.760  0.00  0.00     0.124 A 
ENDROOT
BRANCH   5  10
ATOM     10  C   UNL d   1      59.667  -2.571  29.477  0.00  0.00     0.004 A 
ATOM     11  C   UNL d   1      60.096  -3.022  29.995  0.00  0.00     0.000 A 
ATOM     12  C   UNL d   1      60.792  -3.380  29.733  0.00  0.00     0.000 A 
ATOM     13  C   UNL d   1      61.036  -3.275  28.961  0.00  0.00     0.000 A 
ATOM     14  C   UNL d   1      60.598  -2.822  28.455  0.00  0.00     0.000 A 
ATOM     15  C   UNL d   1      59.902  -2.464  28.717  0.00  0.00     0.000 A 
ENDBRANCH   5  10
BRANCH   3  16
ATOM     16  N   UNL d   1      57.581   0.065  30.744  0.00  0.00    -0.383 NA
BRANCH  16  17
ATOM     17  C   UNL d   1      56.866   0.432  31.009  0.00  0.00     0.134 C 
ATOM     18  C   UNL d   1      56.288   0.682  30.441  0.00  0.00     0.035 C 
ATOM     19  C   UNL d   1      56.732   0.547  31.845  0.00  0.00     0.035 C 
ENDBRANCH  16  17
ENDBRANCH   3  16
BRANCH   8  20
ATOM     20  C   UNL d   1      60.414   0.222  30.174  0.00  0.00     0.036 C 
ATOM     21  C   UNL d   1      60.683   0.624  30.873  0.00  0.00     0.006 C 
ATOM     22  C   UNL d   1      60.867   0.260  29.449  0.00  0.00     0.006 C 
ATOM     23  C   UNL d   1      61.133   0.659  30.147  0.00  0.00     0.006 C 
ENDBRANCH   8  20
TORSDOF 4
ENDMDL
MODEL 3
REMARK VINA RESULT:       3.2      1.339      3.773
REMARK  4 active torsions:
REMARK  status: ('A' for Active; 'I' for Inactive)
REMARK    1  A    between atoms: N_10  and  C_3 
REMARK    2  A    between atoms: C_12  and  C_5 
REMARK    3  A    between atoms: C_11  and  C_8 
REMARK    4  A    between atoms: C_13  and  N_10 
ROOT
ATOM      1  C   UNL d   1      58.632  -1.512  29.966  0.00  0.00     0.168 A 
ATOM      2  N   UNL d   1      58.895  -2.248  29.664  0.00  0.00    -0.184 N 
ATOM      3  C   UNL d   1      59.571  -2.264  29.226  0.00  0.00     0.217 A 
ATOM      4  N   UNL d   1      59.061  -0.834  29.812  0.00  0.00    -0.231 NA
ATOM      5  C   UNL d   1      57.957  -1.472  30.408  0.00  0.00     0.057 A 
ATOM      6  N   UNL d   1      57.793  -2.871  30.261  0.00  0.00    -0.160 NA
ATOM      7  C   UNL d   1      60.009  -1.591  29.065  0.00  0.00     0.067 A 
ATOM      8  C   UNL d   1      59.751  -0.866  29.362  0.00  0.00     0.064 A 
ATOM      9  C   UNL d   1      57.535  -2.146  30.559  0.00  0.00     0.124 A 
ENDROOT
BRANCH   5  10
ATOM     10  C   UNL d   1      57.699  -0.747  30.706  0.00  0.00     0.004 A 
ATOM     11  C   UNL d   1      57.855  -0.561  31.478  0.00  0.00     0.000 A 
ATOM     12  C   UNL d   1      57.596   0.164  31.775  0.00  0.00     0.000 A 
ATOM     13  C   UNL d   1      57.190   0.680  31.291  0.00  0.00     0.000 A 
ATOM     14  C   UNL d   1      57.041   0.481  30.521  0.00  0.00     0.000 A 
ATOM     15  C   UNL d   1      57.299  -0.244  30.224  0.00  0.00     0.000 A 
ENDBRANCH   5  10
BRANCH   3  16
ATOM     16  N   UNL d   1      59.838  -3.013  28.919  0.00  0.00    -0.383 NA
BRANCH  16  17
ATOM     17  C   UNL d   1      60.099  -3.758  28.614  0.00  0.00     0.134 C 
ATOM     18  C   UNL d   1      59.532  -4.368  28.458  0.00  0.00     0.035 C 
ATOM     19  C   UNL d   1      60.930  -3.888  28.467  0.00  0.00     0.035 C 
ENDBRANCH  16  17
ENDBRANCH   3  16
BRANCH   8  20
ATOM     20  C   UNL d   1      60.196  -0.155  29.204  0.00  0.00     0.036 C 
ATOM     21  C   UNL d   1      60.050   0.282  28.489  0.00  0.00     0.006 C 
ATOM     22  C   UNL d   1      60.784   0.112  29.764  0.00  0.00     0.006 C 
ATOM     23  C   UNL d   1      60.638   0.546  29.052  0.00  0.00     0.006 C 
ENDBRANCH   8  20
TORSDOF 4
ENDMDL
