MODEL 1
REMARK VINA RESULT:     103.7      0.000      0.000
REMARK  5 active torsions:
REMARK  status: ('A' for Active; 'I' for Inactive)
REMARK    1  A    between atoms: C_14  and  N_4 
REMARK    2  A    between atoms: C_15  and  C_9 
REMARK    3  A    between atoms: O_18  and  C_12 
REMARK    4  A    between atoms: O_19  and  C_13 
REMARK    5  A    between atoms: C_16  and  C_14 
ROOT
ATOM      1  C   UNL d   1     -51.622  25.179  34.212  0.00  0.00     0.056 A 
ATOM      2  C   UNL d   1     -50.885  25.339  33.866  0.00  0.00     0.107 A 
ATOM      3  C   UNL d   1     -50.448  25.993  34.107  0.00  0.00     0.038 A 
ATOM      4  N   UNL d   1     -51.473  26.339  35.039  0.00  0.00    -0.304 N 
ATOM      5  N   UNL d   1     -50.741  24.752  33.307  0.00  0.00    -0.148 NA
ATOM      6  C   UNL d   1     -51.917  25.679  34.798  0.00  0.00     0.083 A 
ATOM      7  N   UNL d   1     -51.384  24.235  33.308  0.00  0.00    -0.148 NA
ATOM      8  C   UNL d   1     -50.742  26.493  34.693  0.00  0.00     0.068 A 
ATOM      9  C   UNL d   1     -51.931  24.493  33.863  0.00  0.00     0.106 A 
ATOM     10  C   UNL d   1     -50.305  27.149  34.935  0.00  0.00     0.044 A 
ATOM     11  C   UNL d   1     -49.716  26.149  33.761  0.00  0.00     0.029 A 
ATOM     12  C   UNL d   1     -49.574  27.303  34.589  0.00  0.00     0.118 A 
ATOM     13  C   UNL d   1     -49.280  26.803  34.002  0.00  0.00     0.116 A 
ENDROOT
BRANCH   4  14
ATOM     14  C   UNL d   1     -51.767  26.839  35.625  0.00  0.00     0.080 C 
BRANCH  14  15
ATOM     15  C   UNL d   1     -51.858  26.562  36.396  0.00  0.00     0.018 A 
ATOM     16  C   UNL d   1     -52.530  26.115  36.601  0.00  0.00     0.004 A 
ATOM     17  C   UNL d   1     -52.622  25.838  37.371  0.00  0.00     0.030 A 
ATOM     18  C   UNL d   1     -52.043  26.003  37.949  0.00  0.00     0.140 A 
ATOM     19  C   UNL d   1     -51.371  26.450  37.743  0.00  0.00     0.030 A 
ATOM     20  F   UNL d   1     -52.133  25.722  38.731  0.00  0.00    -0.204 F 
ATOM     21  C   UNL d   1     -51.281  26.727  36.970  0.00  0.00     0.004 A 
ENDBRANCH  14  15
ENDBRANCH   4  14
BRANCH   9  22
ATOM     22  C   UNL d   1     -52.632  24.075  33.979  0.00  0.00     0.019 A 
ATOM     23  C   UNL d   1     -52.725  23.607  34.651  0.00  0.00     0.002 A 
ATOM     24  C   UNL d   1     -53.431  23.189  34.765  0.00  0.00     0.000 A 
ATOM     25  C   UNL d   1     -54.043  23.238  34.205  0.00  0.00     0.000 A 
ATOM     26  C   UNL d   1     -53.941  23.709  33.533  0.00  0.00     0.000 A 
ATOM     27  C   UNL d   1     -53.240  24.125  33.420  0.00  0.00     0.002 A 
ENDBRANCH   9  22
BRANCH  12  28
ATOM     28  O   UNL d   1     -49.131  27.972  34.838  0.00  0.00    -0.326 OA
ATOM     29  C   UNL d   1     -48.702  27.941  35.544  0.00  0.00     0.181 C 
ENDBRANCH  12  28
BRANCH  13  30
ATOM     30  O   UNL d   1     -48.538  26.965  33.656  0.00  0.00    -0.326 OA
ATOM     31  C   UNL d   1     -48.025  26.342  33.471  0.00  0.00     0.181 C 
ENDBRANCH  13  30
TORSDOF 5
ENDMDL
