MODEL 1
REMARK VINA RESULT:      55.9      0.000      0.000
REMARK  3 active torsions:
REMARK  status: ('A' for Active; 'I' for Inactive)
REMARK    1  A    between atoms: S_3  and  N_1 
REMARK    2  A    between atoms: C_7  and  C_4 
REMARK    3  A    between atoms: C_16  and  C_5 
ROOT
ATOM      1  N   UNL d   1      59.844  49.291  50.251  0.00  0.00    -0.155 N 
ATOM      2  N   UNL d   1      59.112  49.294  49.845  0.00  0.00    -0.156 NA
ATOM      3  C   UNL d   1      59.708  49.468  51.026  0.00  0.00     0.096 A 
ATOM      4  C   UNL d   1      58.531  49.478  50.398  0.00  0.00     0.103 A 
ATOM      5  C   UNL d   1      58.916  49.585  51.136  0.00  0.00     0.041 A 
ENDROOT
BRANCH   3   6
ATOM      6  C   UNL d   1      60.285  49.522  51.613  0.00  0.00     0.021 A 
ATOM      7  C   UNL d   1      60.091  49.453  52.426  0.00  0.00     0.028 A 
ATOM      8  C   UNL d   1      60.669  49.506  53.015  0.00  0.00     0.119 A 
ATOM      9  O   UNL d   1      60.612  49.458  53.808  0.00  0.00    -0.300 OA
ATOM     10  C   UNL d   1      61.439  49.629  52.788  0.00  0.00     0.119 A 
ATOM     11  C   UNL d   1      61.384  49.553  54.125  0.00  0.00     0.304 A 
ATOM     12  O   UNL d   1      61.887  49.659  53.467  0.00  0.00    -0.300 OA
ATOM     13  C   UNL d   1      61.667  49.700  52.018  0.00  0.00     0.026 A 
ATOM     14  C   UNL d   1      61.089  49.647  51.429  0.00  0.00     0.004 A 
ENDBRANCH   3   6
BRANCH   1  15
ATOM     15  S   UNL d   1      60.582  49.129  49.888  0.00  0.00     0.266 S 
ATOM     16  O   UNL d   1      60.711  48.583  50.482  0.00  0.00    -0.203 OA
ATOM     17  O   UNL d   1      60.417  49.694  49.297  0.00  0.00    -0.203 OA
ATOM     18  C   UNL d   1      61.297  48.965  49.544  0.00  0.00     0.165 C 
ENDBRANCH   1  15
BRANCH   4  19
ATOM     19  C   UNL d   1      57.722  49.546  50.263  0.00  0.00     0.019 A 
ATOM     20  C   UNL d   1      57.243  49.607  50.946  0.00  0.00     0.002 A 
ATOM     21  C   UNL d   1      56.409  49.678  50.823  0.00  0.00     0.000 A 
ATOM     22  C   UNL d   1      56.100  49.683  50.054  0.00  0.00     0.000 A 
ATOM     23  C   UNL d   1      56.603  49.621  49.421  0.00  0.00     0.000 A 
ATOM     24  C   UNL d   1      57.401  49.554  49.533  0.00  0.00     0.002 A 
ENDBRANCH   4  19
TORSDOF 3
ENDMDL
