MODEL 1
REMARK VINA RESULT:      -3.0      0.000      0.000
REMARK  7 active torsions:
REMARK  status: ('A' for Active; 'I' for Inactive)
REMARK    1  A    between atoms: C_6  and  N_1 
REMARK    2  A    between atoms: C_7  and  C_6 
REMARK    3  A    between atoms: O_10  and  C_7 
REMARK    4  A    between atoms: C_13  and  O_10 
REMARK    5  A    between atoms: C_14  and  C_13 
REMARK    6  A    between atoms: C_16  and  C_14 
REMARK    7  A    between atoms: C_15  and  C_16 
ROOT
ATOM      1  N   UNL d   1      31.385  16.602 -23.903  0.00  0.00    -0.246 N 
ATOM      2  C   UNL d   1      31.304  15.878 -23.500  0.00  0.00     0.378 A 
ATOM      3  O   UNL d   1      30.501  15.668 -23.503  0.00  0.00    -0.258 OA
ATOM      4  C   UNL d   1      30.631  16.835 -24.153  0.00  0.00     0.092 A 
ATOM      5  C   UNL d   1      30.087  16.258 -23.905  0.00  0.00     0.121 A 
ATOM      6  O   UNL d   1      31.923  15.453 -23.161  0.00  0.00    -0.237 OA
ATOM      7  C   UNL d   1      30.370  17.498 -24.573  0.00  0.00     0.020 A 
ATOM      8  C   UNL d   1      29.280  16.354 -24.084  0.00  0.00     0.026 A 
ATOM      9  C   UNL d   1      29.567  17.582 -24.745  0.00  0.00     0.002 A 
ATOM     10  C   UNL d   1      29.026  17.013 -24.502  0.00  0.00     0.002 A 
ENDROOT
BRANCH   1  11
ATOM     11  C   UNL d   1      32.067  17.042 -24.051  0.00  0.00     0.154 C 
BRANCH  11  12
ATOM     12  C   UNL d   1      32.565  17.241 -23.434  0.00  0.00     0.318 C 
ATOM     13  O   UNL d   1      33.100  16.687 -23.137  0.00  0.00    -0.257 OA
BRANCH  12  14
ATOM     14  O   UNL d   1      32.533  17.998 -23.108  0.00  0.00    -0.270 OA
BRANCH  14  15
ATOM     15  C   UNL d   1      33.075  18.503 -22.748  0.00  0.00     0.126 C 
BRANCH  15  16
ATOM     16  C   UNL d   1      32.862  19.273 -22.557  0.00  0.00     0.027 C 
BRANCH  16  17
ATOM     17  C   UNL d   1      33.196  19.653 -21.906  0.00  0.00     0.002 C 
BRANCH  17  18
ATOM     18  C   UNL d   1      33.047  20.450 -21.768  0.00  0.00     0.000 C 
ATOM     19  C   UNL d   1      33.156  20.761 -21.016  0.00  0.00     0.000 C 
ENDBRANCH  17  18
ENDBRANCH  16  17
ENDBRANCH  15  16
ENDBRANCH  14  15
ENDBRANCH  12  14
ENDBRANCH  11  12
ENDBRANCH   1  11
TORSDOF 7
ENDMDL
MODEL 2
REMARK VINA RESULT:      -2.4      2.754      5.468
REMARK  7 active torsions:
REMARK  status: ('A' for Active; 'I' for Inactive)
REMARK    1  A    between atoms: C_6  and  N_1 
REMARK    2  A    between atoms: C_7  and  C_6 
REMARK    3  A    between atoms: O_10  and  C_7 
REMARK    4  A    between atoms: C_13  and  O_10 
REMARK    5  A    between atoms: C_14  and  C_13 
REMARK    6  A    between atoms: C_16  and  C_14 
REMARK    7  A    between atoms: C_15  and  C_16 
ROOT
ATOM      1  N   UNL d   1      32.712  21.643 -21.466  0.00  0.00    -0.246 N 
ATOM      2  C   UNL d   1      32.080  21.762 -20.938  0.00  0.00     0.378 A 
ATOM      3  O   UNL d   1      31.719  22.486 -21.125  0.00  0.00    -0.258 OA
ATOM      4  C   UNL d   1      32.737  22.294 -21.976  0.00  0.00     0.092 A 
ATOM      5  C   UNL d   1      32.124  22.813 -21.764  0.00  0.00     0.121 A 
ATOM      6  O   UNL d   1      31.861  21.243 -20.337  0.00  0.00    -0.237 OA
ATOM      7  C   UNL d   1      33.240  22.483 -22.607  0.00  0.00     0.020 A 
ATOM      8  C   UNL d   1      32.021  23.520 -22.191  0.00  0.00     0.026 A 
ATOM      9  C   UNL d   1      33.128  23.187 -23.022  0.00  0.00     0.002 A 
ATOM     10  C   UNL d   1      32.522  23.702 -22.815  0.00  0.00     0.002 A 
ENDROOT
BRANCH   1  11
ATOM     11  C   UNL d   1      33.241  21.011 -21.512  0.00  0.00     0.154 C 
BRANCH  11  12
ATOM     12  C   UNL d   1      32.958  20.246 -21.564  0.00  0.00     0.318 C 
ATOM     13  O   UNL d   1      32.604  19.889 -20.909  0.00  0.00    -0.257 OA
BRANCH  12  14
ATOM     14  O   UNL d   1      33.026  19.830 -22.273  0.00  0.00    -0.270 OA
BRANCH  14  15
ATOM     15  C   UNL d   1      33.141  19.041 -22.478  0.00  0.00     0.126 C 
BRANCH  15  16
ATOM     16  C   UNL d   1      32.914  18.767 -23.219  0.00  0.00     0.027 C 
BRANCH  16  17
ATOM     17  C   UNL d   1      32.865  17.958 -23.372  0.00  0.00     0.002 C 
BRANCH  17  18
ATOM     18  C   UNL d   1      32.444  17.682 -24.021  0.00  0.00     0.000 C 
ATOM     19  C   UNL d   1      32.441  16.880 -24.196  0.00  0.00     0.000 C 
ENDBRANCH  17  18
ENDBRANCH  16  17
ENDBRANCH  15  16
ENDBRANCH  14  15
ENDBRANCH  12  14
ENDBRANCH  11  12
ENDBRANCH   1  11
TORSDOF 7
ENDMDL
MODEL 3
REMARK VINA RESULT:      -1.0      1.916      5.063
REMARK  7 active torsions:
REMARK  status: ('A' for Active; 'I' for Inactive)
REMARK    1  A    between atoms: C_6  and  N_1 
REMARK    2  A    between atoms: C_7  and  C_6 
REMARK    3  A    between atoms: O_10  and  C_7 
REMARK    4  A    between atoms: C_13  and  O_10 
REMARK    5  A    between atoms: C_14  and  C_13 
REMARK    6  A    between atoms: C_16  and  C_14 
REMARK    7  A    between atoms: C_15  and  C_16 
ROOT
ATOM      1  N   UNL d   1      33.205  20.457 -22.110  0.00  0.00    -0.246 N 
ATOM      2  C   UNL d   1      33.208  20.277 -21.297  0.00  0.00     0.378 A 
ATOM      3  O   UNL d   1      33.188  20.992 -20.875  0.00  0.00    -0.258 OA
ATOM      4  C   UNL d   1      33.182  21.280 -22.185  0.00  0.00     0.092 A 
ATOM      5  C   UNL d   1      33.172  21.609 -21.422  0.00  0.00     0.121 A 
ATOM      6  O   UNL d   1      33.229  19.518 -20.979  0.00  0.00    -0.237 OA
ATOM      7  C   UNL d   1      33.169  21.774 -22.850  0.00  0.00     0.020 A 
ATOM      8  C   UNL d   1      33.148  22.436 -21.334  0.00  0.00     0.026 A 
ATOM      9  C   UNL d   1      33.147  22.593 -22.749  0.00  0.00     0.002 A 
ATOM     10  C   UNL d   1      33.136  22.922 -21.996  0.00  0.00     0.002 A 
ENDROOT
BRANCH   1  11
ATOM     11  C   UNL d   1      33.220  19.943 -22.756  0.00  0.00     0.154 C 
BRANCH  11  12
ATOM     12  C   UNL d   1      32.938  19.180 -22.677  0.00  0.00     0.318 C 
ATOM     13  O   UNL d   1      33.172  18.716 -22.035  0.00  0.00    -0.257 OA
BRANCH  12  14
ATOM     14  O   UNL d   1      32.419  18.873 -23.239  0.00  0.00    -0.270 OA
BRANCH  14  15
ATOM     15  C   UNL d   1      32.162  18.119 -23.447  0.00  0.00     0.126 C 
BRANCH  15  16
ATOM     16  C   UNL d   1      31.486  18.022 -23.906  0.00  0.00     0.027 C 
BRANCH  16  17
ATOM     17  C   UNL d   1      31.280  17.279 -24.198  0.00  0.00     0.002 C 
BRANCH  17  18
ATOM     18  C   UNL d   1      30.512  17.131 -24.451  0.00  0.00     0.000 C 
ATOM     19  C   UNL d   1      30.381  16.642 -25.097  0.00  0.00     0.000 C 
ENDBRANCH  17  18
ENDBRANCH  16  17
ENDBRANCH  15  16
ENDBRANCH  14  15
ENDBRANCH  12  14
ENDBRANCH  11  12
ENDBRANCH   1  11
TORSDOF 7
ENDMDL
MODEL 4
REMARK VINA RESULT:      -1.0      1.208      3.947
REMARK  7 active torsions:
REMARK  status: ('A' for Active; 'I' for Inactive)
REMARK    1  A    between atoms: C_6  and  N_1 
REMARK    2  A    between atoms: C_7  and  C_6 
REMARK    3  A    between atoms: O_10  and  C_7 
REMARK    4  A    between atoms: C_13  and  O_10 
REMARK    5  A    between atoms: C_14  and  C_13 
REMARK    6  A    between atoms: C_16  and  C_14 
REMARK    7  A    between atoms: C_15  and  C_16 
ROOT
ATOM      1  N   UNL d   1      32.757  17.471 -23.999  0.00  0.00    -0.246 N 
ATOM      2  C   UNL d   1      32.868  17.284 -23.195  0.00  0.00     0.378 A 
ATOM      3  O   UNL d   1      33.065  17.983 -22.792  0.00  0.00    -0.258 OA
ATOM      4  C   UNL d   1      32.885  18.283 -24.088  0.00  0.00     0.092 A 
ATOM      5  C   UNL d   1      33.075  18.598 -23.342  0.00  0.00     0.121 A 
ATOM      6  O   UNL d   1      32.794  16.532 -22.869  0.00  0.00    -0.237 OA
ATOM      7  C   UNL d   1      32.854  18.778 -24.751  0.00  0.00     0.020 A 
ATOM      8  C   UNL d   1      33.233  19.412 -23.271  0.00  0.00     0.026 A 
ATOM      9  C   UNL d   1      33.012  19.583 -24.667  0.00  0.00     0.002 A 
ATOM     10  C   UNL d   1      33.201  19.898 -23.931  0.00  0.00     0.002 A 
ENDROOT
BRANCH   1  11
ATOM     11  C   UNL d   1      32.555  16.973 -24.626  0.00  0.00     0.154 C 
BRANCH  11  12
ATOM     12  C   UNL d   1      31.951  16.430 -24.537  0.00  0.00     0.318 C 
ATOM     13  O   UNL d   1      32.100  15.696 -24.190  0.00  0.00    -0.257 OA
BRANCH  12  14
ATOM     14  O   UNL d   1      31.190  16.616 -24.795  0.00  0.00    -0.270 OA
BRANCH  14  15
ATOM     15  C   UNL d   1      30.466  16.224 -24.810  0.00  0.00     0.126 C 
BRANCH  15  16
ATOM     16  C   UNL d   1      29.784  16.602 -24.549  0.00  0.00     0.027 C 
BRANCH  16  17
ATOM     17  C   UNL d   1      29.066  16.197 -24.516  0.00  0.00     0.002 C 
BRANCH  17  18
ATOM     18  C   UNL d   1      28.425  16.521 -24.116  0.00  0.00     0.000 C 
ATOM     19  C   UNL d   1      28.252  16.274 -23.353  0.00  0.00     0.000 C 
ENDBRANCH  17  18
ENDBRANCH  16  17
ENDBRANCH  15  16
ENDBRANCH  14  15
ENDBRANCH  12  14
ENDBRANCH  11  12
ENDBRANCH   1  11
TORSDOF 7
ENDMDL
MODEL 5
REMARK VINA RESULT:      -0.7      1.702      2.036
REMARK  7 active torsions:
REMARK  status: ('A' for Active; 'I' for Inactive)
REMARK    1  A    between atoms: C_6  and  N_1 
REMARK    2  A    between atoms: C_7  and  C_6 
REMARK    3  A    between atoms: O_10  and  C_7 
REMARK    4  A    between atoms: C_13  and  O_10 
REMARK    5  A    between atoms: C_14  and  C_13 
REMARK    6  A    between atoms: C_16  and  C_14 
REMARK    7  A    between atoms: C_15  and  C_16 
ROOT
ATOM      1  N   UNL d   1      32.092  17.566 -24.116  0.00  0.00    -0.246 N 
ATOM      2  C   UNL d   1      32.363  17.036 -23.534  0.00  0.00     0.378 A 
ATOM      3  O   UNL d   1      31.783  16.452 -23.426  0.00  0.00    -0.258 OA
ATOM      4  C   UNL d   1      31.346  17.307 -24.364  0.00  0.00     0.092 A 
ATOM      5  C   UNL d   1      31.157  16.619 -23.937  0.00  0.00     0.121 A 
ATOM      6  O   UNL d   1      33.084  17.092 -23.141  0.00  0.00    -0.237 OA
ATOM      7  C   UNL d   1      30.815  17.607 -24.923  0.00  0.00     0.020 A 
ATOM      8  C   UNL d   1      30.430  16.239 -24.078  0.00  0.00     0.026 A 
ATOM      9  C   UNL d   1      30.098  17.221 -25.054  0.00  0.00     0.002 A 
ATOM     10  C   UNL d   1      29.907  16.541 -24.634  0.00  0.00     0.002 A 
ENDROOT
BRANCH   1  11
ATOM     11  C   UNL d   1      32.462  18.238 -24.421  0.00  0.00     0.154 C 
BRANCH  11  12
ATOM     12  C   UNL d   1      32.591  18.886 -23.940  0.00  0.00     0.318 C 
ATOM     13  O   UNL d   1      32.294  18.896 -23.169  0.00  0.00    -0.257 OA
BRANCH  12  14
ATOM     14  O   UNL d   1      33.017  19.532 -24.225  0.00  0.00    -0.270 OA
BRANCH  14  15
ATOM     15  C   UNL d   1      33.240  20.265 -23.922  0.00  0.00     0.126 C 
BRANCH  15  16
ATOM     16  C   UNL d   1      33.088  20.953 -24.345  0.00  0.00     0.027 C 
BRANCH  16  17
ATOM     17  C   UNL d   1      33.234  21.692 -24.011  0.00  0.00     0.002 C 
BRANCH  17  18
ATOM     18  C   UNL d   1      32.867  22.364 -24.311  0.00  0.00     0.000 C 
ATOM     19  C   UNL d   1      33.059  22.633 -25.062  0.00  0.00     0.000 C 
ENDBRANCH  17  18
ENDBRANCH  16  17
ENDBRANCH  15  16
ENDBRANCH  14  15
ENDBRANCH  12  14
ENDBRANCH  11  12
ENDBRANCH   1  11
TORSDOF 7
ENDMDL
MODEL 6
REMARK VINA RESULT:      -0.6      1.364      2.103
REMARK  7 active torsions:
REMARK  status: ('A' for Active; 'I' for Inactive)
REMARK    1  A    between atoms: C_6  and  N_1 
REMARK    2  A    between atoms: C_7  and  C_6 
REMARK    3  A    between atoms: O_10  and  C_7 
REMARK    4  A    between atoms: C_13  and  O_10 
REMARK    5  A    between atoms: C_14  and  C_13 
REMARK    6  A    between atoms: C_16  and  C_14 
REMARK    7  A    between atoms: C_15  and  C_16 
ROOT
ATOM      1  N   UNL d   1      29.954  16.850 -24.414  0.00  0.00    -0.246 N 
ATOM      2  C   UNL d   1      29.641  17.579 -24.668  0.00  0.00     0.378 A 
ATOM      3  O   UNL d   1      28.852  17.623 -24.415  0.00  0.00    -0.258 OA
ATOM      4  C   UNL d   1      29.356  16.450 -24.005  0.00  0.00     0.092 A 
ATOM      5  C   UNL d   1      28.677  16.928 -24.007  0.00  0.00     0.121 A 
ATOM      6  O   UNL d   1      30.054  18.148 -25.096  0.00  0.00    -0.237 OA
ATOM      7  C   UNL d   1      29.342  15.711 -23.631  0.00  0.00     0.020 A 
ATOM      8  C   UNL d   1      27.986  16.657 -23.631  0.00  0.00     0.026 A 
ATOM      9  C   UNL d   1      28.651  15.454 -23.262  0.00  0.00     0.002 A 
ATOM     10  C   UNL d   1      27.977  15.924 -23.262  0.00  0.00     0.002 A 
ENDROOT
BRANCH   1  11
ATOM     11  C   UNL d   1      30.712  16.542 -24.524  0.00  0.00     0.154 C 
BRANCH  11  12
ATOM     12  C   UNL d   1      31.296  16.689 -23.972  0.00  0.00     0.318 C 
ATOM     13  O   UNL d   1      31.382  16.192 -23.318  0.00  0.00    -0.257 OA
BRANCH  12  14
ATOM     14  O   UNL d   1      31.800  17.334 -24.067  0.00  0.00    -0.270 OA
BRANCH  14  15
ATOM     15  C   UNL d   1      32.583  17.499 -23.870  0.00  0.00     0.126 C 
BRANCH  15  16
ATOM     16  C   UNL d   1      32.771  18.178 -23.448  0.00  0.00     0.027 C 
BRANCH  16  17
ATOM     17  C   UNL d   1      33.007  18.865 -23.839  0.00  0.00     0.002 C 
BRANCH  17  18
ATOM     18  C   UNL d   1      33.241  19.527 -23.412  0.00  0.00     0.000 C 
ATOM     19  C   UNL d   1      33.236  20.266 -23.769  0.00  0.00     0.000 C 
ENDBRANCH  17  18
ENDBRANCH  16  17
ENDBRANCH  15  16
ENDBRANCH  14  15
ENDBRANCH  12  14
ENDBRANCH  11  12
ENDBRANCH   1  11
TORSDOF 7
ENDMDL
