MODEL 1
REMARK VINA RESULT:     139.4      0.000      0.000
REMARK  3 active torsions:
REMARK  status: ('A' for Active; 'I' for Inactive)
REMARK    1  A    between atoms: C_17  and  N_4 
REMARK    2  A    between atoms: C_11  and  C_5 
REMARK       I    between atoms: N_13  and  C_11 
REMARK    3  A    between atoms: C_21  and  N_13 
ROOT
ATOM      1  C   UNL d   1     -56.737 -99.135 -44.018  0.00  0.00     0.155 A 
ATOM      2  C   UNL d   1     -57.156 -99.038 -43.317  0.00  0.00     0.091 A 
ATOM      3  N   UNL d   1     -57.143 -99.111 -44.738  0.00  0.00    -0.210 NA
ATOM      4  N   UNL d   1     -55.937 -99.252 -43.998  0.00  0.00    -0.275 N 
ATOM      5  C   UNL d   1     -55.949 -99.179 -42.584  0.00  0.00     0.094 A 
ATOM      6  C   UNL d   1     -55.532 -99.275 -43.282  0.00  0.00     0.175 A 
ATOM      7  N   UNL d   1     -58.378 -98.895 -44.055  0.00  0.00    -0.258 N 
ATOM      8  C   UNL d   1     -57.953 -98.993 -44.766  0.00  0.00     0.152 A 
ATOM      9  C   UNL d   1     -57.985 -98.916 -43.331  0.00  0.00     0.269 A 
ATOM     10  C   UNL d   1     -56.761 -99.059 -42.594  0.00  0.00     0.016 A 
ATOM     11  C   UNL d   1     -58.346 -98.972 -45.478  0.00  0.00     0.035 A 
ATOM     12  N   UNL d   1     -54.715 -99.394 -43.262  0.00  0.00    -0.128 N 
ATOM     13  C   UNL d   1     -59.188 -98.777 -44.070  0.00  0.00     0.084 A 
ATOM     14  O   UNL d   1     -58.393 -98.821 -42.628  0.00  0.00    -0.266 OA
ATOM     15  C   UNL d   1     -59.582 -98.755 -44.795  0.00  0.00     0.019 A 
ATOM     16  C   UNL d   1     -59.157 -98.854 -45.505  0.00  0.00     0.005 A 
ATOM     17  C   UNL d   1     -57.925 -99.069 -46.181  0.00  0.00     0.003 C 
ENDROOT
BRANCH   5  18
ATOM     18  C   UNL d   1     -55.552 -99.201 -41.864  0.00  0.00     0.282 C 
ATOM     19  N   UNL d   1     -55.974 -99.241 -41.151  0.00  0.00    -0.208 NA
ATOM     20  O   UNL d   1     -54.716 -99.182 -41.848  0.00  0.00    -0.265 OA
BRANCH  19  21
ATOM     21  C   UNL d   1     -55.567 -99.263 -40.434  0.00  0.00     0.085 A 
ATOM     22  C   UNL d   1     -55.705 -99.797 -39.827  0.00  0.00     0.019 A 
ATOM     23  C   UNL d   1     -55.171 -99.614 -39.218  0.00  0.00     0.002 A 
ATOM     24  C   UNL d   1     -54.712 -98.971 -39.460  0.00  0.00     0.002 A 
ATOM     25  C   UNL d   1     -54.954 -98.755 -40.206  0.00  0.00     0.019 A 
ENDBRANCH  19  21
ENDBRANCH   5  18
BRANCH   4  26
ATOM     26  C   UNL d   1     -55.516 -99.349 -44.701  0.00  0.00     0.067 A 
ATOM     27  C   UNL d   1     -55.410-100.064 -45.100  0.00  0.00     0.018 A 
ATOM     28  C   UNL d   1     -54.961 -99.908 -45.768  0.00  0.00     0.002 A 
ATOM     29  C   UNL d   1     -54.781 -99.093 -45.793  0.00  0.00     0.002 A 
ATOM     30  C   UNL d   1     -55.130 -98.755 -45.127  0.00  0.00     0.018 A 
ENDBRANCH   4  26
TORSDOF 3
ENDMDL
