MODEL 1
REMARK VINA RESULT:      -0.2      0.000      0.000
REMARK  4 active torsions:
REMARK  status: ('A' for Active; 'I' for Inactive)
REMARK    1  A    between atoms: N_5  and  S_1 
REMARK    2  A    between atoms: C_8  and  S_1 
REMARK    3  A    between atoms: C_2  and  C_7 
REMARK    4  A    between atoms: C_11  and  N_5 
ROOT
ATOM      1  C   UNL d   1     -41.719-121.896 -52.829  0.00  0.00     0.025 A 
ATOM      2  C   UNL d   1     -41.700-122.608 -52.412  0.00  0.00     0.020 A 
ATOM      3  C   UNL d   1     -41.542-122.616 -51.607  0.00  0.00     0.094 A 
ATOM      4  C   UNL d   1     -41.581-121.183 -52.442  0.00  0.00     0.002 A 
ATOM      5  C   UNL d   1     -41.402-121.892 -51.217  0.00  0.00     0.020 A 
ATOM      6  C   UNL d   1     -41.840-123.321 -52.809  0.00  0.00     0.002 C 
ATOM      7  C   UNL d   1     -41.423-121.179 -51.640  0.00  0.00     0.002 A 
ENDROOT
BRANCH   3   8
ATOM      8  N   UNL d   1     -41.521-123.318 -51.192  0.00  0.00    -0.158 NA
BRANCH   8   9
ATOM      9  S   UNL d   1     -41.770-123.341 -50.407  0.00  0.00     0.285 S 
ATOM     10  O   UNL d   1     -41.124-122.863 -50.199  0.00  0.00    -0.198 OA
ATOM     11  O   UNL d   1     -42.413-123.817 -50.623  0.00  0.00    -0.198 OA
BRANCH   9  12
ATOM     12  C   UNL d   1     -42.016-123.361 -49.619  0.00  0.00     0.107 A 
ATOM     13  C   UNL d   1     -42.798-123.573 -49.442  0.00  0.00     0.040 A 
ATOM     14  C   UNL d   1     -43.031-123.589 -48.651  0.00  0.00     0.123 A 
ATOM     15  O   UNL d   1     -43.799-123.796 -48.463  0.00  0.00    -0.301 OA
ATOM     16  C   UNL d   1     -42.501-123.400 -48.047  0.00  0.00     0.123 A 
ATOM     17  C   UNL d   1     -44.048-123.817 -47.679  0.00  0.00     0.149 A 
ATOM     18  C   UNL d   1     -43.512-123.627 -47.081  0.00  0.00     0.149 A 
ATOM     19  O   UNL d   1     -42.744-123.420 -47.268  0.00  0.00    -0.301 OA
ATOM     20  C   UNL d   1     -41.730-123.193 -48.237  0.00  0.00     0.028 A 
ATOM     21  C   UNL d   1     -41.483-123.172 -49.024  0.00  0.00     0.015 A 
ENDBRANCH   9  12
ENDBRANCH   8   9
ENDBRANCH   3   8
BRANCH   1  22
ATOM     22  C   UNL d   1     -41.881-121.901 -53.649  0.00  0.00     0.112 A 
ATOM     23  S   UNL d   1     -41.370-121.651 -54.243  0.00  0.00    -0.047 SA
ATOM     24  C   UNL d   1     -41.751-121.752 -54.976  0.00  0.00     0.130 A 
ATOM     25  N   UNL d   1     -41.529-121.606 -55.749  0.00  0.00    -0.236 NA
ATOM     26  C   UNL d   1     -42.508-122.070 -54.815  0.00  0.00     0.106 A 
ATOM     27  C   UNL d   1     -42.044-121.769 -56.365  0.00  0.00     0.100 A 
ATOM     28  C   UNL d   1     -42.790-122.081 -56.213  0.00  0.00     0.022 A 
ATOM     29  C   UNL d   1     -43.023-122.232 -55.440  0.00  0.00     0.023 A 
ATOM     30  N   UNL d   1     -42.588-122.162 -53.993  0.00  0.00    -0.237 NA
ENDBRANCH   1  22
TORSDOF 4
ENDMDL
