MODEL 1
REMARK VINA RESULT:      -7.8      0.000      0.000
REMARK  5 active torsions:
REMARK  status: ('A' for Active; 'I' for Inactive)
REMARK       I    between atoms: C_2  and  N_1 
REMARK    1  A    between atoms: C_3  and  N_1 
REMARK    2  A    between atoms: C_4  and  C_2 
REMARK    3  A    between atoms: N_6  and  C_3 
REMARK    4  A    between atoms: C_11  and  N_6 
REMARK    5  A    between atoms: C_12  and  C_11 
ROOT
ATOM      1  N   UNL d   1      52.880  32.735  53.212  0.00  0.00    -0.179 NA
ATOM      2  C   UNL d   1      52.483  33.362  53.543  0.00  0.00     0.281 C 
ATOM      3  O   UNL d   1      52.751  33.677  54.262  0.00  0.00    -0.265 OA
ENDROOT
BRANCH   1   4
ATOM      4  C   UNL d   1      53.541  32.401  53.567  0.00  0.00     0.224 C 
ATOM      5  S   UNL d   1      54.259  32.810  53.582  0.00  0.00    -0.037 SA
BRANCH   4   6
ATOM      6  N   UNL d   1      53.481  31.662  53.903  0.00  0.00    -0.214 NA
BRANCH   6   7
ATOM      7  C   UNL d   1      53.692  30.992  53.466  0.00  0.00     0.126 C 
BRANCH   7   8
ATOM      8  C   UNL d   1      53.433  30.235  53.707  0.00  0.00     0.119 A 
ATOM      9  O   UNL d   1      53.625  29.873  54.423  0.00  0.00    -0.304 OA
ATOM     10  C   UNL d   1      53.259  29.133  54.445  0.00  0.00     0.123 A 
ATOM     11  C   UNL d   1      52.844  29.049  53.735  0.00  0.00     0.029 A 
ATOM     12  C   UNL d   1      52.954  29.726  53.290  0.00  0.00     0.028 A 
ENDBRANCH   7   8
ENDBRANCH   6   7
ENDBRANCH   4   6
ENDBRANCH   1   4
BRANCH   2  13
ATOM     13  C   UNL d   1      51.815  33.683  53.161  0.00  0.00     0.058 A 
ATOM     14  C   UNL d   1      51.082  33.540  53.485  0.00  0.00     0.005 A 
ATOM     15  C   UNL d   1      50.409  33.852  53.118  0.00  0.00     0.000 A 
ATOM     16  C   UNL d   1      50.471  34.302  52.434  0.00  0.00     0.000 A 
ATOM     17  C   UNL d   1      51.230  34.438  52.117  0.00  0.00     0.000 A 
ATOM     18  C   UNL d   1      49.780  34.608  52.077  0.00  0.00     0.000 C 
ATOM     19  C   UNL d   1      51.889  34.128  52.482  0.00  0.00     0.005 A 
ENDBRANCH   2  13
TORSDOF 5
ENDMDL
MODEL 2
REMARK VINA RESULT:      -7.5      1.364      4.563
REMARK  5 active torsions:
REMARK  status: ('A' for Active; 'I' for Inactive)
REMARK       I    between atoms: C_2  and  N_1 
REMARK    1  A    between atoms: C_3  and  N_1 
REMARK    2  A    between atoms: C_4  and  C_2 
REMARK    3  A    between atoms: N_6  and  C_3 
REMARK    4  A    between atoms: C_11  and  N_6 
REMARK    5  A    between atoms: C_12  and  C_11 
ROOT
ATOM      1  N   UNL d   1      52.228  32.936  53.322  0.00  0.00    -0.179 NA
ATOM      2  C   UNL d   1      52.864  32.539  53.012  0.00  0.00     0.281 C 
ATOM      3  O   UNL d   1      53.381  32.938  52.500  0.00  0.00    -0.265 OA
ENDROOT
BRANCH   1   4
ATOM      4  C   UNL d   1      52.076  33.724  53.147  0.00  0.00     0.224 C 
ATOM      5  S   UNL d   1      52.564  34.320  53.448  0.00  0.00    -0.037 SA
BRANCH   4   6
ATOM      6  N   UNL d   1      51.441  33.911  52.673  0.00  0.00    -0.214 NA
BRANCH   6   7
ATOM      7  C   UNL d   1      50.830  34.381  52.972  0.00  0.00     0.126 C 
BRANCH   7   8
ATOM      8  C   UNL d   1      50.139  34.509  52.517  0.00  0.00     0.119 A 
ATOM      9  O   UNL d   1      50.047  34.302  51.725  0.00  0.00    -0.304 OA
ATOM     10  C   UNL d   1      49.288  34.522  51.487  0.00  0.00     0.123 A 
ATOM     11  C   UNL d   1      48.920  34.866  52.142  0.00  0.00     0.029 A 
ATOM     12  C   UNL d   1      49.446  34.855  52.769  0.00  0.00     0.028 A 
ENDBRANCH   7   8
ENDBRANCH   6   7
ENDBRANCH   4   6
ENDBRANCH   1   4
BRANCH   2  13
ATOM     13  C   UNL d   1      52.995  31.739  53.207  0.00  0.00     0.058 A 
ATOM     14  C   UNL d   1      53.557  31.567  53.771  0.00  0.00     0.005 A 
ATOM     15  C   UNL d   1      53.698  30.778  53.975  0.00  0.00     0.000 A 
ATOM     16  C   UNL d   1      53.279  30.168  53.618  0.00  0.00     0.000 A 
ATOM     17  C   UNL d   1      52.708  30.362  53.044  0.00  0.00     0.000 A 
ATOM     18  C   UNL d   1      53.436  29.377  53.838  0.00  0.00     0.000 C 
ATOM     19  C   UNL d   1      52.573  31.142  52.846  0.00  0.00     0.005 A 
ENDBRANCH   2  13
TORSDOF 5
ENDMDL
MODEL 3
REMARK VINA RESULT:      -7.0      1.907      2.557
REMARK  5 active torsions:
REMARK  status: ('A' for Active; 'I' for Inactive)
REMARK       I    between atoms: C_2  and  N_1 
REMARK    1  A    between atoms: C_3  and  N_1 
REMARK    2  A    between atoms: C_4  and  C_2 
REMARK    3  A    between atoms: N_6  and  C_3 
REMARK    4  A    between atoms: C_11  and  N_6 
REMARK    5  A    between atoms: C_12  and  C_11 
ROOT
ATOM      1  N   UNL d   1      51.794  33.168  53.188  0.00  0.00    -0.179 NA
ATOM      2  C   UNL d   1      51.584  33.658  52.576  0.00  0.00     0.281 C 
ATOM      3  O   UNL d   1      52.098  33.742  51.930  0.00  0.00    -0.265 OA
ENDROOT
BRANCH   1   4
ATOM      4  C   UNL d   1      52.501  32.750  53.192  0.00  0.00     0.224 C 
ATOM      5  S   UNL d   1      52.550  32.008  52.829  0.00  0.00    -0.037 SA
BRANCH   4   6
ATOM      6  N   UNL d   1      53.153  33.073  53.556  0.00  0.00    -0.214 NA
BRANCH   6   7
ATOM      7  C   UNL d   1      53.600  32.617  54.081  0.00  0.00     0.126 C 
BRANCH   7   8
ATOM      8  C   UNL d   1      54.149  32.985  54.594  0.00  0.00     0.119 A 
ATOM      9  O   UNL d   1      54.104  32.983  55.417  0.00  0.00    -0.304 OA
ATOM     10  C   UNL d   1      54.749  33.406  55.711  0.00  0.00     0.123 A 
ATOM     11  C   UNL d   1      55.186  33.664  55.059  0.00  0.00     0.029 A 
ATOM     12  C   UNL d   1      54.813  33.403  54.380  0.00  0.00     0.028 A 
ENDBRANCH   7   8
ENDBRANCH   6   7
ENDBRANCH   4   6
ENDBRANCH   1   4
BRANCH   2  13
ATOM     13  C   UNL d   1      50.860  34.071  52.598  0.00  0.00     0.058 A 
ATOM     14  C   UNL d   1      50.401  34.078  51.926  0.00  0.00     0.005 A 
ATOM     15  C   UNL d   1      49.680  34.483  51.933  0.00  0.00     0.000 A 
ATOM     16  C   UNL d   1      49.423  34.877  52.607  0.00  0.00     0.000 A 
ATOM     17  C   UNL d   1      49.905  34.858  53.285  0.00  0.00     0.000 A 
ATOM     18  C   UNL d   1      48.691  35.281  52.594  0.00  0.00     0.000 C 
ATOM     19  C   UNL d   1      50.615  34.457  53.273  0.00  0.00     0.005 A 
ENDBRANCH   2  13
TORSDOF 5
ENDMDL
MODEL 4
REMARK VINA RESULT:      -7.0      2.523      5.056
REMARK  5 active torsions:
REMARK  status: ('A' for Active; 'I' for Inactive)
REMARK       I    between atoms: C_2  and  N_1 
REMARK    1  A    between atoms: C_3  and  N_1 
REMARK    2  A    between atoms: C_4  and  C_2 
REMARK    3  A    between atoms: N_6  and  C_3 
REMARK    4  A    between atoms: C_11  and  N_6 
REMARK    5  A    between atoms: C_12  and  C_11 
ROOT
ATOM      1  N   UNL d   1      51.459  34.002  53.219  0.00  0.00    -0.179 NA
ATOM      2  C   UNL d   1      52.227  34.263  53.192  0.00  0.00     0.281 C 
ATOM      3  O   UNL d   1      52.443  34.829  52.625  0.00  0.00    -0.265 OA
ENDROOT
BRANCH   1   4
ATOM      4  C   UNL d   1      50.884  34.280  52.703  0.00  0.00     0.224 C 
ATOM      5  S   UNL d   1      50.890  34.049  51.909  0.00  0.00    -0.037 SA
BRANCH   4   6
ATOM      6  N   UNL d   1      50.309  34.784  52.981  0.00  0.00    -0.214 NA
BRANCH   6   7
ATOM      7  C   UNL d   1      49.535  34.723  52.696  0.00  0.00     0.126 C 
BRANCH   7   8
ATOM      8  C   UNL d   1      48.958  35.283  52.928  0.00  0.00     0.119 A 
ATOM      9  O   UNL d   1      48.977  35.725  53.623  0.00  0.00    -0.304 OA
ATOM     10  C   UNL d   1      48.309  36.209  53.640  0.00  0.00     0.123 A 
ATOM     11  C   UNL d   1      47.883  36.056  52.949  0.00  0.00     0.029 A 
ATOM     12  C   UNL d   1      48.285  35.489  52.518  0.00  0.00     0.028 A 
ENDBRANCH   7   8
ENDBRANCH   6   7
ENDBRANCH   4   6
ENDBRANCH   1   4
BRANCH   2  13
ATOM     13  C   UNL d   1      52.791  33.965  53.729  0.00  0.00     0.058 A 
ATOM     14  C   UNL d   1      53.090  34.470  54.293  0.00  0.00     0.005 A 
ATOM     15  C   UNL d   1      53.650  34.188  54.833  0.00  0.00     0.000 A 
ATOM     16  C   UNL d   1      53.907  33.408  54.807  0.00  0.00     0.000 A 
ATOM     17  C   UNL d   1      53.591  32.906  54.222  0.00  0.00     0.000 A 
ATOM     18  C   UNL d   1      54.474  33.142  55.361  0.00  0.00     0.000 C 
ATOM     19  C   UNL d   1      53.039  33.189  53.693  0.00  0.00     0.005 A 
ENDBRANCH   2  13
TORSDOF 5
ENDMDL
MODEL 5
REMARK VINA RESULT:      -6.9      1.669      2.139
REMARK  5 active torsions:
REMARK  status: ('A' for Active; 'I' for Inactive)
REMARK       I    between atoms: C_2  and  N_1 
REMARK    1  A    between atoms: C_3  and  N_1 
REMARK    2  A    between atoms: C_4  and  C_2 
REMARK    3  A    between atoms: N_6  and  C_3 
REMARK    4  A    between atoms: C_11  and  N_6 
REMARK    5  A    between atoms: C_12  and  C_11 
ROOT
ATOM      1  N   UNL d   1      52.972  32.137  53.576  0.00  0.00    -0.179 NA
ATOM      2  C   UNL d   1      53.529  32.722  53.493  0.00  0.00     0.281 C 
ATOM      3  O   UNL d   1      54.236  32.554  53.094  0.00  0.00    -0.265 OA
ENDROOT
BRANCH   1   4
ATOM      4  C   UNL d   1      53.085  31.381  53.277  0.00  0.00     0.224 C 
ATOM      5  S   UNL d   1      52.957  31.225  52.475  0.00  0.00    -0.037 SA
BRANCH   4   6
ATOM      6  N   UNL d   1      53.323  30.786  53.779  0.00  0.00    -0.214 NA
BRANCH   6   7
ATOM      7  C   UNL d   1      53.031  30.019  53.677  0.00  0.00     0.126 C 
BRANCH   7   8
ATOM      8  C   UNL d   1      53.208  29.425  54.238  0.00  0.00     0.119 A 
ATOM      9  O   UNL d   1      52.891  29.377  54.997  0.00  0.00    -0.304 OA
ATOM     10  C   UNL d   1      53.209  28.712  55.369  0.00  0.00     0.123 A 
ATOM     11  C   UNL d   1      53.722  28.355  54.828  0.00  0.00     0.029 A 
ATOM     12  C   UNL d   1      53.716  28.796  54.139  0.00  0.00     0.028 A 
ENDBRANCH   7   8
ENDBRANCH   6   7
ENDBRANCH   4   6
ENDBRANCH   1   4
BRANCH   2  13
ATOM     13  C   UNL d   1      53.389  33.482  53.806  0.00  0.00     0.058 A 
ATOM     14  C   UNL d   1      52.986  34.020  53.345  0.00  0.00     0.005 A 
ATOM     15  C   UNL d   1      52.839  34.778  53.642  0.00  0.00     0.000 A 
ATOM     16  C   UNL d   1      53.094  34.994  54.393  0.00  0.00     0.000 A 
ATOM     17  C   UNL d   1      53.504  34.431  54.850  0.00  0.00     0.000 A 
ATOM     18  C   UNL d   1      52.936  35.765  54.675  0.00  0.00     0.000 C 
ATOM     19  C   UNL d   1      53.646  33.685  54.552  0.00  0.00     0.005 A 
ENDBRANCH   2  13
TORSDOF 5
ENDMDL
MODEL 6
REMARK VINA RESULT:      -6.9      1.621      4.518
REMARK  5 active torsions:
REMARK  status: ('A' for Active; 'I' for Inactive)
REMARK       I    between atoms: C_2  and  N_1 
REMARK    1  A    between atoms: C_3  and  N_1 
REMARK    2  A    between atoms: C_4  and  C_2 
REMARK    3  A    between atoms: N_6  and  C_3 
REMARK    4  A    between atoms: C_11  and  N_6 
REMARK    5  A    between atoms: C_12  and  C_11 
ROOT
ATOM      1  N   UNL d   1      52.371  32.095  53.443  0.00  0.00    -0.179 NA
ATOM      2  C   UNL d   1      52.723  31.513  53.001  0.00  0.00     0.281 C 
ATOM      3  O   UNL d   1      52.895  31.658  52.202  0.00  0.00    -0.265 OA
ENDROOT
BRANCH   1   4
ATOM      4  C   UNL d   1      52.178  32.828  53.127  0.00  0.00     0.224 C 
ATOM      5  S   UNL d   1      51.559  32.898  52.583  0.00  0.00    -0.037 SA
BRANCH   4   6
ATOM      6  N   UNL d   1      52.602  33.484  53.354  0.00  0.00    -0.214 NA
BRANCH   6   7
ATOM      7  C   UNL d   1      52.228  34.091  53.773  0.00  0.00     0.126 C 
BRANCH   7   8
ATOM      8  C   UNL d   1      52.683  34.667  54.175  0.00  0.00     0.119 A 
ATOM      9  O   UNL d   1      53.032  34.564  54.914  0.00  0.00    -0.304 OA
ATOM     10  C   UNL d   1      53.430  35.261  55.111  0.00  0.00     0.123 A 
ATOM     11  C   UNL d   1      53.320  35.787  54.483  0.00  0.00     0.029 A 
ATOM     12  C   UNL d   1      52.862  35.417  53.914  0.00  0.00     0.028 A 
ENDBRANCH   7   8
ENDBRANCH   6   7
ENDBRANCH   4   6
ENDBRANCH   1   4
BRANCH   2  13
ATOM     13  C   UNL d   1      52.909  30.777  53.347  0.00  0.00     0.058 A 
ATOM     14  C   UNL d   1      53.602  30.716  53.771  0.00  0.00     0.005 A 
ATOM     15  C   UNL d   1      53.800  29.993  54.121  0.00  0.00     0.000 A 
ATOM     16  C   UNL d   1      53.309  29.339  54.046  0.00  0.00     0.000 A 
ATOM     17  C   UNL d   1      52.604  29.420  53.609  0.00  0.00     0.000 A 
ATOM     18  C   UNL d   1      53.526  28.617  54.407  0.00  0.00     0.000 C 
ATOM     19  C   UNL d   1      52.414  30.135  53.267  0.00  0.00     0.005 A 
ENDBRANCH   2  13
TORSDOF 5
ENDMDL
MODEL 7
REMARK VINA RESULT:      -6.7      1.339      2.089
REMARK  5 active torsions:
REMARK  status: ('A' for Active; 'I' for Inactive)
REMARK       I    between atoms: C_2  and  N_1 
REMARK    1  A    between atoms: C_3  and  N_1 
REMARK    2  A    between atoms: C_4  and  C_2 
REMARK    3  A    between atoms: N_6  and  C_3 
REMARK    4  A    between atoms: C_11  and  N_6 
REMARK    5  A    between atoms: C_12  and  C_11 
ROOT
ATOM      1  N   UNL d   1      51.341  33.927  52.506  0.00  0.00    -0.179 NA
ATOM      2  C   UNL d   1      50.680  34.242  52.856  0.00  0.00     0.281 C 
ATOM      3  O   UNL d   1      50.674  34.359  53.677  0.00  0.00    -0.265 OA
ENDROOT
BRANCH   1   4
ATOM      4  C   UNL d   1      52.008  33.718  52.938  0.00  0.00     0.224 C 
ATOM      5  S   UNL d   1      52.536  34.300  53.198  0.00  0.00    -0.037 SA
BRANCH   4   6
ATOM      6  N   UNL d   1      52.143  32.934  53.108  0.00  0.00    -0.214 NA
BRANCH   6   7
ATOM      7  C   UNL d   1      52.889  32.605  52.970  0.00  0.00     0.126 C 
BRANCH   7   8
ATOM      8  C   UNL d   1      53.009  31.783  53.067  0.00  0.00     0.119 A 
ATOM      9  O   UNL d   1      52.649  31.194  52.616  0.00  0.00    -0.304 OA
ATOM     10  C   UNL d   1      52.916  30.462  52.888  0.00  0.00     0.123 A 
ATOM     11  C   UNL d   1      53.441  30.611  53.508  0.00  0.00     0.029 A 
ATOM     12  C   UNL d   1      53.493  31.421  53.612  0.00  0.00     0.028 A 
ENDBRANCH   7   8
ENDBRANCH   6   7
ENDBRANCH   4   6
ENDBRANCH   1   4
BRANCH   2  13
ATOM     13  C   UNL d   1      50.017  34.445  52.394  0.00  0.00     0.058 A 
ATOM     14  C   UNL d   1      49.430  34.893  52.738  0.00  0.00     0.005 A 
ATOM     15  C   UNL d   1      48.766  35.102  52.291  0.00  0.00     0.000 A 
ATOM     16  C   UNL d   1      48.691  34.864  51.508  0.00  0.00     0.000 A 
ATOM     17  C   UNL d   1      49.301  34.406  51.173  0.00  0.00     0.000 A 
ATOM     18  C   UNL d   1      48.012  35.085  51.074  0.00  0.00     0.000 C 
ATOM     19  C   UNL d   1      49.953  34.203  51.618  0.00  0.00     0.005 A 
ENDBRANCH   2  13
TORSDOF 5
ENDMDL
