MODEL 1
REMARK VINA RESULT:      47.5      0.000      0.000
REMARK  3 active torsions:
REMARK  status: ('A' for Active; 'I' for Inactive)
REMARK    1  A    between atoms: C_9  and  C_4 
REMARK       I    between atoms: C_6  and  N_8 
REMARK    2  A    between atoms: C_13  and  C_6 
REMARK    3  A    between atoms: N_8  and  C_16 
ROOT
ATOM      1  C   UNL d   1      14.073  14.382  -2.930  0.00  0.00     0.019 A 
ATOM      2  C   UNL d   1      14.547  14.948  -3.284  0.00  0.00     0.003 A 
ATOM      3  C   UNL d   1      13.900  14.421  -2.131  0.00  0.00     0.003 A 
ATOM      4  C   UNL d   1      14.681  15.607  -2.025  0.00  0.00     0.085 A 
ATOM      5  C   UNL d   1      14.207  15.038  -1.676  0.00  0.00     0.019 A 
ATOM      6  C   UNL d   1      14.852  15.562  -2.831  0.00  0.00     0.019 A 
ENDROOT
BRANCH   1   7
ATOM      7  C   UNL d   1      13.764  13.760  -3.386  0.00  0.00     0.101 A 
ATOM      8  N   UNL d   1      13.650  13.008  -3.099  0.00  0.00    -0.221 NA
ATOM      9  C   UNL d   1      13.337  12.543  -3.704  0.00  0.00     0.179 A 
ATOM     10  N   UNL d   1      13.255  13.007  -4.373  0.00  0.00    -0.282 N 
ATOM     11  S   UNL d   1      13.073  11.779  -3.888  0.00  0.00    -0.048 SA
ATOM     12  C   UNL d   1      13.522  13.769  -4.177  0.00  0.00     0.101 A 
ATOM     13  C   UNL d   1      12.941  12.542  -4.979  0.00  0.00     0.089 A 
ATOM     14  C   UNL d   1      12.831  11.781  -4.672  0.00  0.00     0.057 A 
ENDBRANCH   1   7
BRANCH   4  15
ATOM     15  N   UNL d   1      14.990  16.229  -1.569  0.00  0.00    -0.208 NA
ATOM     16  C   UNL d   1      15.275  16.087  -0.800  0.00  0.00     0.279 C 
ATOM     17  O   UNL d   1      15.579  16.693  -0.350  0.00  0.00    -0.265 OA
BRANCH  16  18
ATOM     18  C   UNL d   1      15.245  15.320  -0.498  0.00  0.00     0.058 A 
ATOM     19  C   UNL d   1      15.942  14.898  -0.358  0.00  0.00     0.005 A 
ATOM     20  C   UNL d   1      15.733  14.158  -0.061  0.00  0.00     0.000 A 
ATOM     21  C   UNL d   1      14.920  14.113  -0.014  0.00  0.00     0.000 A 
ATOM     22  C   UNL d   1      14.609  14.834  -0.285  0.00  0.00     0.005 A 
ENDBRANCH  16  18
ENDBRANCH   4  15
TORSDOF 3
ENDMDL
MODEL 2
REMARK VINA RESULT:      48.4      2.536      3.960
REMARK  3 active torsions:
REMARK  status: ('A' for Active; 'I' for Inactive)
REMARK    1  A    between atoms: C_9  and  C_4 
REMARK       I    between atoms: C_6  and  N_8 
REMARK    2  A    between atoms: C_13  and  C_6 
REMARK    3  A    between atoms: N_8  and  C_16 
ROOT
ATOM      1  C   UNL d   1      13.781  12.925  -2.914  0.00  0.00     0.019 A 
ATOM      2  C   UNL d   1      13.282  13.573  -2.925  0.00  0.00     0.003 A 
ATOM      3  C   UNL d   1      14.001  12.555  -3.610  0.00  0.00     0.003 A 
ATOM      4  C   UNL d   1      13.217  13.486  -4.348  0.00  0.00     0.085 A 
ATOM      5  C   UNL d   1      13.717  12.838  -4.331  0.00  0.00     0.019 A 
ATOM      6  C   UNL d   1      12.998  13.855  -3.643  0.00  0.00     0.019 A 
ENDROOT
BRANCH   1   7
ATOM      7  C   UNL d   1      14.068  12.638  -2.189  0.00  0.00     0.101 A 
ATOM      8  N   UNL d   1      14.856  12.648  -1.984  0.00  0.00    -0.221 NA
ATOM      9  C   UNL d   1      14.933  12.322  -1.231  0.00  0.00     0.179 A 
ATOM     10  N   UNL d   1      14.189  12.107  -0.963  0.00  0.00    -0.282 N 
ATOM     11  S   UNL d   1      15.482  12.130  -0.641  0.00  0.00    -0.048 SA
ATOM     12  C   UNL d   1      13.647  12.304  -1.561  0.00  0.00     0.101 A 
ATOM     13  C   UNL d   1      14.266  11.781  -0.208  0.00  0.00     0.089 A 
ATOM     14  C   UNL d   1      15.070  11.797  -0.014  0.00  0.00     0.057 A 
ENDBRANCH   1   7
BRANCH   4  15
ATOM     15  N   UNL d   1      12.929  13.772  -5.074  0.00  0.00    -0.208 NA
ATOM     16  C   UNL d   1      13.085  14.555  -5.309  0.00  0.00     0.279 C 
ATOM     17  O   UNL d   1      12.806  14.840  -6.018  0.00  0.00    -0.265 OA
BRANCH  16  18
ATOM     18  C   UNL d   1      13.529  15.041  -4.813  0.00  0.00     0.058 A 
ATOM     19  C   UNL d   1      14.263  15.332  -5.057  0.00  0.00     0.005 A 
ATOM     20  C   UNL d   1      14.567  15.795  -4.447  0.00  0.00     0.000 A 
ATOM     21  C   UNL d   1      14.037  15.796  -3.828  0.00  0.00     0.000 A 
ATOM     22  C   UNL d   1      13.386  15.327  -4.048  0.00  0.00     0.005 A 
ENDBRANCH  16  18
ENDBRANCH   4  15
TORSDOF 3
ENDMDL
MODEL 3
REMARK VINA RESULT:      49.9      1.928      2.676
REMARK  3 active torsions:
REMARK  status: ('A' for Active; 'I' for Inactive)
REMARK    1  A    between atoms: C_9  and  C_4 
REMARK       I    between atoms: C_6  and  N_8 
REMARK    2  A    between atoms: C_13  and  C_6 
REMARK    3  A    between atoms: N_8  and  C_16 
ROOT
ATOM      1  C   UNL d   1      13.829  13.553  -3.120  0.00  0.00     0.019 A 
ATOM      2  C   UNL d   1      14.231  13.841  -2.468  0.00  0.00     0.003 A 
ATOM      3  C   UNL d   1      13.649  12.757  -3.182  0.00  0.00     0.003 A 
ATOM      4  C   UNL d   1      14.276  12.521  -1.927  0.00  0.00     0.085 A 
ATOM      5  C   UNL d   1      13.874  12.238  -2.581  0.00  0.00     0.019 A 
ATOM      6  C   UNL d   1      14.456  13.325  -1.869  0.00  0.00     0.019 A 
ENDROOT
BRANCH   1   7
ATOM      7  C   UNL d   1      13.601  14.073  -3.726  0.00  0.00     0.101 A 
ATOM      8  N   UNL d   1      13.789  14.865  -3.731  0.00  0.00    -0.221 NA
ATOM      9  C   UNL d   1      13.473  15.203  -4.413  0.00  0.00     0.179 A 
ATOM     10  N   UNL d   1      13.085  14.620  -4.838  0.00  0.00    -0.282 N 
ATOM     11  S   UNL d   1      13.401  15.915  -4.831  0.00  0.00    -0.048 SA
ATOM     12  C   UNL d   1      13.165  13.912  -4.409  0.00  0.00     0.101 A 
ATOM     13  C   UNL d   1      12.769  14.959  -5.521  0.00  0.00     0.089 A 
ATOM     14  C   UNL d   1      12.967  15.762  -5.512  0.00  0.00     0.057 A 
ENDBRANCH   1   7
BRANCH   4  15
ATOM     15  N   UNL d   1      14.505  12.000  -1.320  0.00  0.00    -0.208 NA
ATOM     16  C   UNL d   1      14.835  12.293  -0.615  0.00  0.00     0.279 C 
ATOM     17  O   UNL d   1      15.060  11.788  -0.019  0.00  0.00    -0.265 OA
BRANCH  16  18
ATOM     18  C   UNL d   1      14.933  13.107  -0.528  0.00  0.00     0.058 A 
ATOM     19  C   UNL d   1      14.436  13.538  -0.026  0.00  0.00     0.005 A 
ATOM     20  C   UNL d   1      14.669  14.328  -0.057  0.00  0.00     0.000 A 
ATOM     21  C   UNL d   1      15.300  14.396  -0.568  0.00  0.00     0.000 A 
ATOM     22  C   UNL d   1      15.471  13.639  -0.866  0.00  0.00     0.005 A 
ENDBRANCH  16  18
ENDBRANCH   4  15
TORSDOF 3
ENDMDL
