MODEL 1
REMARK VINA RESULT:      59.6      0.000      0.000
REMARK  4 active torsions:
REMARK  status: ('A' for Active; 'I' for Inactive)
REMARK    1  A    between atoms: C_9  and  N_1 
REMARK    2  A    between atoms: S_10  and  C_6 
REMARK    3  A    between atoms: C_16  and  S_10 
REMARK    4  A    between atoms: C_15  and  C_16 
ROOT
ATOM      1  N   UNL d   1     -54.740-101.017 -40.097  0.00  0.00    -0.212 N 
ATOM      2  C   UNL d   1     -54.731-101.420 -40.813  0.00  0.00     0.169 A 
ATOM      3  N   UNL d   1     -54.743-100.220 -40.245  0.00  0.00    -0.162 NA
ATOM      4  C   UNL d   1     -54.729-100.857 -41.416  0.00  0.00     0.081 A 
ATOM      5  C   UNL d   1     -54.736-100.113 -41.066  0.00  0.00     0.126 A 
ATOM      6  C   UNL d   1     -54.720-101.096 -42.202  0.00  0.00     0.117 A 
ATOM      7  N   UNL d   1     -54.724-102.222 -40.996  0.00  0.00    -0.205 NA
ATOM      8  N   UNL d   1     -54.713-101.900 -42.389  0.00  0.00    -0.217 NA
ATOM      9  C   UNL d   1     -54.716-102.463 -41.785  0.00  0.00     0.201 A 
ENDROOT
BRANCH   6  10
ATOM     10  S   UNL d   1     -54.718-100.533 -42.805  0.00  0.00    -0.067 SA
BRANCH  10  11
ATOM     11  C   UNL d   1     -55.272 -99.935 -42.808  0.00  0.00     0.038 C 
BRANCH  11  12
ATOM     12  C   UNL d   1     -55.511 -99.596 -43.521  0.00  0.00     0.026 A 
ATOM     13  C   UNL d   1     -56.302 -99.636 -43.753  0.00  0.00     0.099 A 
ATOM     14  N   UNL d   1     -56.541 -99.297 -44.466  0.00  0.00    -0.242 NA
ATOM     15  C   UNL d   1     -55.990 -98.914 -44.955  0.00  0.00     0.099 A 
ATOM     16  C   UNL d   1     -55.197 -98.877 -44.716  0.00  0.00     0.021 A 
ATOM     17  C   UNL d   1     -54.958 -99.216 -44.002  0.00  0.00     0.004 A 
ENDBRANCH  11  12
ENDBRANCH  10  11
ENDBRANCH   6  10
BRANCH   1  18
ATOM     18  C   UNL d   1     -54.744-101.439 -39.382  0.00  0.00     0.085 A 
ATOM     19  C   UNL d   1     -54.780-102.260 -39.391  0.00  0.00     0.021 A 
ATOM     20  C   UNL d   1     -54.784-102.678 -38.688  0.00  0.00     0.031 A 
ATOM     21  C   UNL d   1     -54.752-102.280 -37.964  0.00  0.00     0.140 A 
ATOM     22  C   UNL d   1     -54.715-101.445 -37.967  0.00  0.00     0.031 A 
ATOM     23  F   UNL d   1     -54.756-102.701 -37.249  0.00  0.00    -0.204 F 
ATOM     24  C   UNL d   1     -54.711-101.036 -38.672  0.00  0.00     0.021 A 
ENDBRANCH   1  18
TORSDOF 4
ENDMDL
