MODEL 1
REMARK VINA RESULT:      -6.0      0.000      0.000
REMARK  7 active torsions:
REMARK  status: ('A' for Active; 'I' for Inactive)
REMARK    1  A    between atoms: O_8  and  C_1 
REMARK    2  A    between atoms: C_10  and  C_5 
REMARK    3  A    between atoms: C_12  and  O_8 
REMARK    4  A    between atoms: N_9  and  C_10 
REMARK    5  A    between atoms: C_25  and  N_14 
REMARK    6  A    between atoms: O_24  and  C_17 
REMARK    7  A    between atoms: C_29  and  C_25 
ROOT
ATOM      1  C   UNL d   1     -39.347  14.769  17.954  0.00  0.00     0.161 A 
ATOM      2  C   UNL d   1     -39.869  15.263  19.456  0.00  0.00     0.108 A 
ATOM      3  C   UNL d   1     -40.382  14.838  18.949  0.00  0.00     0.064 A 
ATOM      4  C   UNL d   1     -40.125  14.593  18.207  0.00  0.00     0.222 A 
ATOM      5  C   UNL d   1     -40.137  15.504  20.200  0.00  0.00     0.079 A 
ATOM      6  O   UNL d   1     -39.100  15.440  19.212  0.00  0.00    -0.305 OA
ATOM      7  C   UNL d   1     -38.837  15.193  18.458  0.00  0.00     0.126 A 
ATOM      8  C   UNL d   1     -41.157  14.663  19.204  0.00  0.00     0.009 A 
ATOM      9  C   UNL d   1     -40.899  15.333  20.451  0.00  0.00     0.199 A 
ATOM     10  O   UNL d   1     -40.627  14.173  17.704  0.00  0.00    -0.284 OA
ATOM     11  C   UNL d   1     -41.414  14.908  19.947  0.00  0.00     0.042 A 
ATOM     12  O   UNL d   1     -41.164  15.571  21.186  0.00  0.00    -0.286 OA
ATOM     13  C   UNL d   1     -38.071  15.368  18.213  0.00  0.00     0.029 C 
ENDROOT
BRANCH   5  14
ATOM     14  C   UNL d   1     -39.632  15.921  20.693  0.00  0.00     0.086 C 
BRANCH  14  15
ATOM     15  N   UNL d   1     -39.278  15.541  21.338  0.00  0.00    -0.300 N 
ATOM     16  C   UNL d   1     -39.480  15.767  22.106  0.00  0.00     0.100 A 
ATOM     17  C   UNL d   1     -39.129  15.391  22.748  0.00  0.00     0.100 A 
ATOM     18  N   UNL d   1     -38.577  14.788  22.623  0.00  0.00    -0.297 N 
ATOM     19  C   UNL d   1     -38.377  14.566  21.854  0.00  0.00     0.100 A 
ATOM     20  C   UNL d   1     -38.729  14.943  21.202  0.00  0.00     0.100 A 
BRANCH  18  21
ATOM     21  C   UNL d   1     -38.225  14.411  23.266  0.00  0.00     0.126 C 
BRANCH  21  22
ATOM     22  C   UNL d   1     -38.160  13.589  23.277  0.00  0.00     0.253 C 
ATOM     23  O   UNL d   1     -38.714  13.137  23.698  0.00  0.00    -0.281 OA
ENDBRANCH  21  22
ENDBRANCH  18  21
ENDBRANCH  14  15
ENDBRANCH   5  14
BRANCH   1  24
ATOM     24  O   UNL d   1     -39.089  14.525  17.211  0.00  0.00    -0.300 OA
BRANCH  24  25
ATOM     25  C   UNL d   1     -38.706  13.808  17.132  0.00  0.00     0.122 A 
ATOM     26  C   UNL d   1     -38.339  13.616  16.428  0.00  0.00     0.117 A 
ATOM     27  C   UNL d   1     -37.954  12.896  16.347  0.00  0.00     0.026 A 
ATOM     28  C   UNL d   1     -37.940  12.368  16.982  0.00  0.00     0.002 A 
ATOM     29  C   UNL d   1     -38.306  12.559  17.687  0.00  0.00     0.002 A 
ATOM     30  C   UNL d   1     -38.693  13.283  17.767  0.00  0.00     0.027 A 
BRANCH  26  31
ATOM     31  O   UNL d   1     -38.359  14.150  15.801  0.00  0.00    -0.326 OA
ATOM     32  C   UNL d   1     -38.069  13.931  15.061  0.00  0.00     0.181 C 
ENDBRANCH  26  31
ENDBRANCH  24  25
ENDBRANCH   1  24
TORSDOF 7
ENDMDL
MODEL 2
REMARK VINA RESULT:      -5.8      1.625      2.539
REMARK  7 active torsions:
REMARK  status: ('A' for Active; 'I' for Inactive)
REMARK    1  A    between atoms: O_8  and  C_1 
REMARK    2  A    between atoms: C_10  and  C_5 
REMARK    3  A    between atoms: C_12  and  O_8 
REMARK    4  A    between atoms: N_9  and  C_10 
REMARK    5  A    between atoms: C_25  and  N_14 
REMARK    6  A    between atoms: O_24  and  C_17 
REMARK    7  A    between atoms: C_29  and  C_25 
ROOT
ATOM      1  C   UNL d   1     -39.334  15.806  18.091  0.00  0.00     0.161 A 
ATOM      2  C   UNL d   1     -39.781  15.817  19.696  0.00  0.00     0.108 A 
ATOM      3  C   UNL d   1     -38.972  15.858  19.481  0.00  0.00     0.064 A 
ATOM      4  C   UNL d   1     -38.750  15.853  18.689  0.00  0.00     0.222 A 
ATOM      5  C   UNL d   1     -39.993  15.822  20.494  0.00  0.00     0.079 A 
ATOM      6  O   UNL d   1     -40.361  15.771  19.110  0.00  0.00    -0.305 OA
ATOM      7  C   UNL d   1     -40.138  15.766  18.304  0.00  0.00     0.126 A 
ATOM      8  C   UNL d   1     -38.393  15.904  20.080  0.00  0.00     0.009 A 
ATOM      9  C   UNL d   1     -39.424  15.868  21.083  0.00  0.00     0.199 A 
ATOM     10  O   UNL d   1     -37.955  15.893  18.473  0.00  0.00    -0.284 OA
ATOM     11  C   UNL d   1     -38.615  15.909  20.873  0.00  0.00     0.042 A 
ATOM     12  O   UNL d   1     -39.634  15.873  21.872  0.00  0.00    -0.286 OA
ATOM     13  C   UNL d   1     -40.715  15.720  17.718  0.00  0.00     0.029 C 
ENDROOT
BRANCH   5  14
ATOM     14  C   UNL d   1     -40.786  15.782  20.699  0.00  0.00     0.086 C 
BRANCH  14  15
ATOM     15  N   UNL d   1     -41.132  15.050  20.869  0.00  0.00    -0.300 N 
ATOM     16  C   UNL d   1     -41.944  14.949  20.767  0.00  0.00     0.100 A 
ATOM     17  C   UNL d   1     -42.290  14.222  20.936  0.00  0.00     0.100 A 
ATOM     18  N   UNL d   1     -41.823  13.594  21.206  0.00  0.00    -0.297 N 
ATOM     19  C   UNL d   1     -41.011  13.699  21.307  0.00  0.00     0.100 A 
ATOM     20  C   UNL d   1     -40.658  14.433  21.138  0.00  0.00     0.100 A 
BRANCH  18  21
ATOM     21  C   UNL d   1     -42.169  12.866  21.375  0.00  0.00     0.126 C 
BRANCH  21  22
ATOM     22  C   UNL d   1     -42.990  12.800  21.425  0.00  0.00     0.253 C 
ATOM     23  O   UNL d   1     -43.329  12.166  21.840  0.00  0.00    -0.281 OA
ENDBRANCH  21  22
ENDBRANCH  18  21
ENDBRANCH  14  15
ENDBRANCH   5  14
BRANCH   1  24
ATOM     24  O   UNL d   1     -39.113  15.801  17.298  0.00  0.00    -0.300 OA
BRANCH  24  25
ATOM     25  C   UNL d   1     -38.916  15.095  16.938  0.00  0.00     0.122 A 
ATOM     26  C   UNL d   1     -38.458  15.095  16.261  0.00  0.00     0.117 A 
ATOM     27  C   UNL d   1     -38.260  14.386  15.898  0.00  0.00     0.026 A 
ATOM     28  C   UNL d   1     -38.527  13.674  16.222  0.00  0.00     0.002 A 
ATOM     29  C   UNL d   1     -38.986  13.674  16.898  0.00  0.00     0.002 A 
ATOM     30  C   UNL d   1     -39.185  14.387  17.262  0.00  0.00     0.027 A 
BRANCH  26  31
ATOM     31  O   UNL d   1     -38.197  15.810  15.948  0.00  0.00    -0.326 OA
ATOM     32  C   UNL d   1     -38.063  15.883  15.138  0.00  0.00     0.181 C 
ENDBRANCH  26  31
ENDBRANCH  24  25
ENDBRANCH   1  24
TORSDOF 7
ENDMDL
MODEL 3
REMARK VINA RESULT:      -5.7      7.694     10.075
REMARK  7 active torsions:
REMARK  status: ('A' for Active; 'I' for Inactive)
REMARK    1  A    between atoms: O_8  and  C_1 
REMARK    2  A    between atoms: C_10  and  C_5 
REMARK    3  A    between atoms: C_12  and  O_8 
REMARK    4  A    between atoms: N_9  and  C_10 
REMARK    5  A    between atoms: C_25  and  N_14 
REMARK    6  A    between atoms: O_24  and  C_17 
REMARK    7  A    between atoms: C_29  and  C_25 
ROOT
ATOM      1  C   UNL d   1     -49.088  13.140  23.327  0.00  0.00     0.161 A 
ATOM      2  C   UNL d   1     -47.566  12.487  23.498  0.00  0.00     0.108 A 
ATOM      3  C   UNL d   1     -48.236  11.989  23.443  0.00  0.00     0.064 A 
ATOM      4  C   UNL d   1     -48.989  12.310  23.358  0.00  0.00     0.222 A 
ATOM      5  C   UNL d   1     -46.814  12.154  23.583  0.00  0.00     0.079 A 
ATOM      6  O   UNL d   1     -47.657  13.307  23.467  0.00  0.00    -0.305 OA
ATOM      7  C   UNL d   1     -48.421  13.637  23.381  0.00  0.00     0.126 A 
ATOM      8  C   UNL d   1     -48.134  11.161  23.475  0.00  0.00     0.009 A 
ATOM      9  C   UNL d   1     -46.713  11.341  23.614  0.00  0.00     0.199 A 
ATOM     10  O   UNL d   1     -49.652  11.823  23.304  0.00  0.00    -0.284 OA
ATOM     11  C   UNL d   1     -47.380  10.839  23.560  0.00  0.00     0.042 A 
ATOM     12  O   UNL d   1     -45.970  11.012  23.698  0.00  0.00    -0.286 OA
ATOM     13  C   UNL d   1     -48.516  14.454  23.351  0.00  0.00     0.029 C 
ENDROOT
BRANCH   5  14
ATOM     14  C   UNL d   1     -46.160  12.646  23.636  0.00  0.00     0.086 C 
BRANCH  14  15
ATOM     15  N   UNL d   1     -45.620  12.685  23.011  0.00  0.00    -0.300 N 
ATOM     16  C   UNL d   1     -45.699  13.274  22.439  0.00  0.00     0.100 A 
ATOM     17  C   UNL d   1     -45.163  13.313  21.816  0.00  0.00     0.100 A 
ATOM     18  N   UNL d   1     -44.547  12.764  21.764  0.00  0.00    -0.297 N 
ATOM     19  C   UNL d   1     -44.471  12.176  22.338  0.00  0.00     0.100 A 
ATOM     20  C   UNL d   1     -45.011  12.132  22.970  0.00  0.00     0.100 A 
BRANCH  18  21
ATOM     21  C   UNL d   1     -44.010  12.803  21.141  0.00  0.00     0.126 C 
BRANCH  21  22
ATOM     22  C   UNL d   1     -43.199  12.776  21.293  0.00  0.00     0.253 C 
ATOM     23  O   UNL d   1     -42.659  12.883  20.672  0.00  0.00    -0.281 OA
ENDBRANCH  21  22
ENDBRANCH  18  21
ENDBRANCH  14  15
ENDBRANCH   5  14
BRANCH   1  24
ATOM     24  O   UNL d   1     -49.841  13.463  23.242  0.00  0.00    -0.300 OA
BRANCH  24  25
ATOM     25  C   UNL d   1     -50.133  13.616  22.495  0.00  0.00     0.122 A 
ATOM     26  C   UNL d   1     -50.653  14.236  22.378  0.00  0.00     0.117 A 
ATOM     27  C   UNL d   1     -50.948  14.390  21.628  0.00  0.00     0.026 A 
ATOM     28  C   UNL d   1     -50.715  13.915  20.993  0.00  0.00     0.002 A 
ATOM     29  C   UNL d   1     -50.196  13.295  21.109  0.00  0.00     0.002 A 
ATOM     30  C   UNL d   1     -49.900  13.141  21.864  0.00  0.00     0.027 A 
BRANCH  26  31
ATOM     31  O   UNL d   1     -50.878  14.702  23.018  0.00  0.00    -0.326 OA
ATOM     32  C   UNL d   1     -51.064  15.498  22.905  0.00  0.00     0.181 C 
ENDBRANCH  26  31
ENDBRANCH  24  25
ENDBRANCH   1  24
TORSDOF 7
ENDMDL
