MODEL 1
REMARK VINA RESULT:      -8.1      0.000      0.000
REMARK  2 active torsions:
REMARK  status: ('A' for Active; 'I' for Inactive)
REMARK    1  A    between atoms: N_9  and  C_3 
REMARK    2  A    between atoms: C_11  and  C_4 
ROOT
ATOM      1  N   UNL d   1      53.034  33.954  53.860  0.00  0.00    -0.196 N 
ATOM      2  C   UNL d   1      52.366  33.851  53.344  0.00  0.00     0.167 A 
ATOM      3  C   UNL d   1      53.504  33.317  54.018  0.00  0.00     0.153 A 
ATOM      4  C   UNL d   1      51.882  34.480  53.173  0.00  0.00     0.057 A 
ATOM      5  N   UNL d   1      52.692  35.328  54.006  0.00  0.00    -0.161 NA
ATOM      6  N   UNL d   1      52.211  33.117  53.020  0.00  0.00    -0.227 NA
ATOM      7  C   UNL d   1      53.357  32.573  53.697  0.00  0.00     0.057 A 
ATOM      8  C   UNL d   1      52.044  35.227  53.506  0.00  0.00     0.124 A 
ATOM      9  C   UNL d   1      52.699  32.471  53.189  0.00  0.00     0.086 A 
ATOM     10  C   UNL d   1      52.537  31.698  52.849  0.00  0.00     0.021 C 
ENDROOT
BRANCH   4  11
ATOM     11  C   UNL d   1      51.234  34.379  52.673  0.00  0.00     0.005 A 
ATOM     12  C   UNL d   1      51.341  34.381  51.865  0.00  0.00     0.001 A 
ATOM     13  C   UNL d   1      50.693  34.280  51.365  0.00  0.00     0.011 A 
ATOM     14  C   UNL d   1      49.948  34.180  51.681  0.00  0.00     0.058 A 
ATOM     15  C   UNL d   1      49.852  34.180  52.497  0.00  0.00     0.011 A 
ATOM     16 CL   UNL d   1      49.269  34.075  51.156  0.00  0.00    -0.082 Cl
ATOM     17  C   UNL d   1      50.490  34.279  52.989  0.00  0.00     0.001 A 
ENDBRANCH   4  11
BRANCH   3  18
ATOM     18  N   UNL d   1      54.181  33.418  54.539  0.00  0.00    -0.285 N 
ATOM     19  C   UNL d   1      54.093  33.292  55.384  0.00  0.00     0.108 A 
ATOM     20  C   UNL d   1      54.765  33.392  55.896  0.00  0.00     0.142 A 
ATOM     21  O   UNL d   1      55.539  33.622  55.575  0.00  0.00    -0.300 OA
ATOM     22  C   UNL d   1      55.606  33.744  54.725  0.00  0.00     0.142 A 
ATOM     23  C   UNL d   1      54.934  33.643  54.212  0.00  0.00     0.108 A 
ENDBRANCH   3  18
TORSDOF 2
ENDMDL
MODEL 2
REMARK VINA RESULT:      -7.2      2.088      3.471
REMARK  2 active torsions:
REMARK  status: ('A' for Active; 'I' for Inactive)
REMARK    1  A    between atoms: N_9  and  C_3 
REMARK    2  A    between atoms: C_11  and  C_4 
ROOT
ATOM      1  N   UNL d   1      53.252  33.367  53.932  0.00  0.00    -0.196 N 
ATOM      2  C   UNL d   1      53.028  32.572  53.727  0.00  0.00     0.167 A 
ATOM      3  C   UNL d   1      52.695  33.950  53.889  0.00  0.00     0.153 A 
ATOM      4  C   UNL d   1      53.575  31.973  53.764  0.00  0.00     0.057 A 
ATOM      5  N   UNL d   1      54.573  32.913  54.201  0.00  0.00    -0.161 NA
ATOM      6  N   UNL d   1      52.262  32.412  53.494  0.00  0.00    -0.227 NA
ATOM      7  C   UNL d   1      51.919  33.800  53.655  0.00  0.00     0.057 A 
ATOM      8  C   UNL d   1      54.356  32.142  54.003  0.00  0.00     0.124 A 
ATOM      9  C   UNL d   1      51.699  33.016  53.454  0.00  0.00     0.086 A 
ATOM     10  C   UNL d   1      50.892  32.849  53.208  0.00  0.00     0.021 C 
ENDROOT
BRANCH   4  11
ATOM     11  C   UNL d   1      53.358  31.203  53.566  0.00  0.00     0.005 A 
ATOM     12  C   UNL d   1      53.296  30.988  52.782  0.00  0.00     0.001 A 
ATOM     13  C   UNL d   1      53.079  30.217  52.584  0.00  0.00     0.011 A 
ATOM     14  C   UNL d   1      52.928  29.674  53.173  0.00  0.00     0.058 A 
ATOM     15  C   UNL d   1      52.994  29.901  53.960  0.00  0.00     0.011 A 
ATOM     16 CL   UNL d   1      52.701  28.865  52.965  0.00  0.00    -0.082 Cl
ATOM     17  C   UNL d   1      53.207  30.660  54.155  0.00  0.00     0.001 A 
ENDBRANCH   4  11
BRANCH   3  18
ATOM     18  N   UNL d   1      52.917  34.755  54.095  0.00  0.00    -0.285 N 
ATOM     19  C   UNL d   1      52.781  35.046  54.891  0.00  0.00     0.108 A 
ATOM     20  C   UNL d   1      53.002  35.843  55.091  0.00  0.00     0.142 A 
ATOM     21  O   UNL d   1      53.365  36.366  54.499  0.00  0.00    -0.300 OA
ATOM     22  C   UNL d   1      53.493  36.054  53.706  0.00  0.00     0.142 A 
ATOM     23  C   UNL d   1      53.272  35.257  53.506  0.00  0.00     0.108 A 
ENDBRANCH   3  18
TORSDOF 2
ENDMDL
MODEL 3
REMARK VINA RESULT:      -7.1      2.299      3.467
REMARK  2 active torsions:
REMARK  status: ('A' for Active; 'I' for Inactive)
REMARK    1  A    between atoms: N_9  and  C_3 
REMARK    2  A    between atoms: C_11  and  C_4 
ROOT
ATOM      1  N   UNL d   1      52.818  32.152  53.606  0.00  0.00    -0.196 N 
ATOM      2  C   UNL d   1      53.032  32.959  53.774  0.00  0.00     0.167 A 
ATOM      3  C   UNL d   1      53.401  31.596  53.569  0.00  0.00     0.153 A 
ATOM      4  C   UNL d   1      52.459  33.532  53.815  0.00  0.00     0.057 A 
ATOM      5  N   UNL d   1      51.452  32.545  53.528  0.00  0.00    -0.161 NA
ATOM      6  N   UNL d   1      53.815  33.155  53.895  0.00  0.00    -0.227 NA
ATOM      7  C   UNL d   1      54.195  31.783  53.689  0.00  0.00     0.057 A 
ATOM      8  C   UNL d   1      51.660  33.327  53.691  0.00  0.00     0.124 A 
ATOM      9  C   UNL d   1      54.406  32.577  53.855  0.00  0.00     0.086 A 
ATOM     10  C   UNL d   1      55.231  32.783  53.981  0.00  0.00     0.021 C 
ENDROOT
BRANCH   4  11
ATOM     11  C   UNL d   1      52.666  34.313  53.978  0.00  0.00     0.005 A 
ATOM     12  C   UNL d   1      52.727  34.563  54.752  0.00  0.00     0.001 A 
ATOM     13  C   UNL d   1      52.935  35.345  54.915  0.00  0.00     0.011 A 
ATOM     14  C   UNL d   1      53.078  35.863  54.302  0.00  0.00     0.058 A 
ATOM     15  C   UNL d   1      53.013  35.600  53.526  0.00  0.00     0.011 A 
ATOM     16 CL   UNL d   1      53.296  36.683  54.473  0.00  0.00    -0.082 Cl
ATOM     17  C   UNL d   1      52.809  34.831  53.366  0.00  0.00     0.001 A 
ENDBRANCH   4  11
BRANCH   3  18
ATOM     18  N   UNL d   1      53.189  30.780  53.399  0.00  0.00    -0.285 N 
ATOM     19  C   UNL d   1      52.981  30.550  52.598  0.00  0.00     0.108 A 
ATOM     20  C   UNL d   1      52.772  29.742  52.434  0.00  0.00     0.142 A 
ATOM     21  O   UNL d   1      52.765  29.146  53.067  0.00  0.00    -0.300 OA
ATOM     22  C   UNL d   1      52.976  29.398  53.863  0.00  0.00     0.142 A 
ATOM     23  C   UNL d   1      53.186  30.206  54.028  0.00  0.00     0.108 A 
ENDBRANCH   3  18
TORSDOF 2
ENDMDL
MODEL 4
REMARK VINA RESULT:      -6.6      2.410      4.292
REMARK  2 active torsions:
REMARK  status: ('A' for Active; 'I' for Inactive)
REMARK    1  A    between atoms: N_9  and  C_3 
REMARK    2  A    between atoms: C_11  and  C_4 
ROOT
ATOM      1  N   UNL d   1      51.829  34.306  53.256  0.00  0.00    -0.196 N 
ATOM      2  C   UNL d   1      52.535  34.021  53.637  0.00  0.00     0.167 A 
ATOM      3  C   UNL d   1      51.396  33.793  52.809  0.00  0.00     0.153 A 
ATOM      4  C   UNL d   1      52.984  34.523  54.091  0.00  0.00     0.057 A 
ATOM      5  N   UNL d   1      52.065  35.595  53.812  0.00  0.00    -0.161 NA
ATOM      6  N   UNL d   1      52.761  33.242  53.546  0.00  0.00    -0.227 NA
ATOM      7  C   UNL d   1      51.614  33.004  52.710  0.00  0.00     0.057 A 
ATOM      8  C   UNL d   1      52.749  35.319  54.181  0.00  0.00     0.124 A 
ATOM      9  C   UNL d   1      52.309  32.724  53.085  0.00  0.00     0.086 A 
ATOM     10  C   UNL d   1      52.546  31.903  52.989  0.00  0.00     0.021 C 
ENDROOT
BRANCH   4  11
ATOM     11  C   UNL d   1      53.668  34.247  54.460  0.00  0.00     0.005 A 
ATOM     12  C   UNL d   1      54.381  34.278  54.067  0.00  0.00     0.001 A 
ATOM     13  C   UNL d   1      55.065  34.002  54.436  0.00  0.00     0.011 A 
ATOM     14  C   UNL d   1      55.025  33.699  55.192  0.00  0.00     0.058 A 
ATOM     15  C   UNL d   1      54.300  33.673  55.579  0.00  0.00     0.011 A 
ATOM     16 CL   UNL d   1      55.742  33.410  55.579  0.00  0.00    -0.082 Cl
ATOM     17  C   UNL d   1      53.627  33.945  55.215  0.00  0.00     0.001 A 
ENDBRANCH   4  11
BRANCH   3  18
ATOM     18  N   UNL d   1      50.682  34.077  52.423  0.00  0.00    -0.285 N 
ATOM     19  C   UNL d   1      49.994  34.281  52.893  0.00  0.00     0.108 A 
ATOM     20  C   UNL d   1      49.289  34.562  52.507  0.00  0.00     0.142 A 
ATOM     21  O   UNL d   1      49.258  34.645  51.643  0.00  0.00    -0.300 OA
ATOM     22  C   UNL d   1      49.960  34.434  51.189  0.00  0.00     0.142 A 
ATOM     23  C   UNL d   1      50.664  34.153  51.575  0.00  0.00     0.108 A 
ENDBRANCH   3  18
TORSDOF 2
ENDMDL
MODEL 5
REMARK VINA RESULT:      -6.4      2.184      3.564
REMARK  2 active torsions:
REMARK  status: ('A' for Active; 'I' for Inactive)
REMARK    1  A    between atoms: N_9  and  C_3 
REMARK    2  A    between atoms: C_11  and  C_4 
ROOT
ATOM      1  N   UNL d   1      53.171  32.163  53.795  0.00  0.00    -0.196 N 
ATOM      2  C   UNL d   1      53.018  32.991  53.921  0.00  0.00     0.167 A 
ATOM      3  C   UNL d   1      52.590  31.707  53.468  0.00  0.00     0.153 A 
ATOM      4  C   UNL d   1      53.589  33.464  54.249  0.00  0.00     0.057 A 
ATOM      5  N   UNL d   1      54.474  32.334  54.340  0.00  0.00    -0.161 NA
ATOM      6  N   UNL d   1      52.295  33.308  53.712  0.00  0.00    -0.227 NA
ATOM      7  C   UNL d   1      51.858  32.017  53.252  0.00  0.00     0.057 A 
ATOM      8  C   UNL d   1      54.326  33.136  54.462  0.00  0.00     0.124 A 
ATOM      9  C   UNL d   1      51.707  32.832  53.377  0.00  0.00     0.086 A 
ATOM     10  C   UNL d   1      50.946  33.165  53.156  0.00  0.00     0.021 C 
ENDROOT
BRANCH   4  11
ATOM     11  C   UNL d   1      53.441  34.267  54.372  0.00  0.00     0.005 A 
ATOM     12  C   UNL d   1      53.192  34.526  55.103  0.00  0.00     0.001 A 
ATOM     13  C   UNL d   1      53.044  35.328  55.225  0.00  0.00     0.011 A 
ATOM     14  C   UNL d   1      53.148  35.858  54.614  0.00  0.00     0.058 A 
ATOM     15  C   UNL d   1      53.400  35.585  53.881  0.00  0.00     0.011 A 
ATOM     16 CL   UNL d   1      52.993  36.699  54.742  0.00  0.00    -0.082 Cl
ATOM     17  C   UNL d   1      53.545  34.796  53.761  0.00  0.00     0.001 A 
ENDBRANCH   4  11
BRANCH   3  18
ATOM     18  N   UNL d   1      52.741  30.870  53.339  0.00  0.00    -0.285 N 
ATOM     19  C   UNL d   1      52.751  30.330  54.005  0.00  0.00     0.108 A 
ATOM     20  C   UNL d   1      52.900  29.503  53.874  0.00  0.00     0.142 A 
ATOM     21  O   UNL d   1      53.043  29.198  53.073  0.00  0.00    -0.300 OA
ATOM     22  C   UNL d   1      53.028  29.757  52.417  0.00  0.00     0.142 A 
ATOM     23  C   UNL d   1      52.879  30.585  52.549  0.00  0.00     0.108 A 
ENDBRANCH   3  18
TORSDOF 2
ENDMDL
MODEL 6
REMARK VINA RESULT:      -6.4      2.188      3.402
REMARK  2 active torsions:
REMARK  status: ('A' for Active; 'I' for Inactive)
REMARK    1  A    between atoms: N_9  and  C_3 
REMARK    2  A    between atoms: C_11  and  C_4 
ROOT
ATOM      1  N   UNL d   1      52.909  33.608  53.822  0.00  0.00    -0.196 N 
ATOM      2  C   UNL d   1      52.988  32.761  53.784  0.00  0.00     0.167 A 
ATOM      3  C   UNL d   1      53.303  34.008  54.402  0.00  0.00     0.153 A 
ATOM      4  C   UNL d   1      52.600  32.342  53.208  0.00  0.00     0.057 A 
ATOM      5  N   UNL d   1      52.047  33.566  52.691  0.00  0.00    -0.161 NA
ATOM      6  N   UNL d   1      53.456  32.371  54.328  0.00  0.00    -0.227 NA
ATOM      7  C   UNL d   1      53.778  33.624  54.956  0.00  0.00     0.057 A 
ATOM      8  C   UNL d   1      52.123  32.745  52.654  0.00  0.00     0.124 A 
ATOM      9  C   UNL d   1      53.855  32.790  54.918  0.00  0.00     0.086 A 
ATOM     10  C   UNL d   1      54.348  32.380  55.491  0.00  0.00     0.021 C 
ENDROOT
BRANCH   4  11
ATOM     11  C   UNL d   1      52.676  31.521  53.170  0.00  0.00     0.005 A 
ATOM     12  C   UNL d   1      52.107  31.046  53.506  0.00  0.00     0.001 A 
ATOM     13  C   UNL d   1      52.183  30.225  53.469  0.00  0.00     0.011 A 
ATOM     14  C   UNL d   1      52.828  29.894  53.096  0.00  0.00     0.058 A 
ATOM     15  C   UNL d   1      53.397  30.384  52.760  0.00  0.00     0.011 A 
ATOM     16 CL   UNL d   1      52.909  29.034  53.057  0.00  0.00    -0.082 Cl
ATOM     17  C   UNL d   1      53.321  31.191  52.797  0.00  0.00     0.001 A 
ENDBRANCH   4  11
BRANCH   3  18
ATOM     18  N   UNL d   1      53.226  34.863  54.445  0.00  0.00    -0.285 N 
ATOM     19  C   UNL d   1      53.760  35.364  53.997  0.00  0.00     0.108 A 
ATOM     20  C   UNL d   1      53.680  36.210  54.041  0.00  0.00     0.142 A 
ATOM     21  O   UNL d   1      53.065  36.574  54.534  0.00  0.00    -0.300 OA
ATOM     22  C   UNL d   1      52.539  36.053  54.976  0.00  0.00     0.142 A 
ATOM     23  C   UNL d   1      52.618  35.207  54.932  0.00  0.00     0.108 A 
ENDBRANCH   3  18
TORSDOF 2
ENDMDL
MODEL 7
REMARK VINA RESULT:      -6.3      2.360      4.639
REMARK  2 active torsions:
REMARK  status: ('A' for Active; 'I' for Inactive)
REMARK    1  A    between atoms: N_9  and  C_3 
REMARK    2  A    between atoms: C_11  and  C_4 
ROOT
ATOM      1  N   UNL d   1      52.023  33.764  53.054  0.00  0.00    -0.196 N 
ATOM      2  C   UNL d   1      52.693  33.832  53.573  0.00  0.00     0.167 A 
ATOM      3  C   UNL d   1      51.517  34.390  52.990  0.00  0.00     0.153 A 
ATOM      4  C   UNL d   1      53.212  33.213  53.651  0.00  0.00     0.057 A 
ATOM      5  N   UNL d   1      52.435  32.445  52.716  0.00  0.00    -0.161 NA
ATOM      6  N   UNL d   1      52.814  34.521  53.994  0.00  0.00    -0.227 NA
ATOM      7  C   UNL d   1      51.629  35.090  53.410  0.00  0.00     0.057 A 
ATOM      8  C   UNL d   1      53.085  32.511  53.219  0.00  0.00     0.124 A 
ATOM      9  C   UNL d   1      52.290  35.157  53.921  0.00  0.00     0.086 A 
ATOM     10  C   UNL d   1      52.416  35.883  54.364  0.00  0.00     0.021 C 
ENDROOT
BRANCH   4  11
ATOM     11  C   UNL d   1      53.863  33.279  54.154  0.00  0.00     0.005 A 
ATOM     12  C   UNL d   1      53.788  33.079  54.941  0.00  0.00     0.001 A 
ATOM     13  C   UNL d   1      54.438  33.145  55.444  0.00  0.00     0.011 A 
ATOM     14  C   UNL d   1      55.152  33.410  55.153  0.00  0.00     0.058 A 
ATOM     15  C   UNL d   1      55.216  33.608  54.358  0.00  0.00     0.011 A 
ATOM     16 CL   UNL d   1      55.834  33.479  55.681  0.00  0.00    -0.082 Cl
ATOM     17  C   UNL d   1      54.576  33.543  53.862  0.00  0.00     0.001 A 
ENDBRANCH   4  11
BRANCH   3  18
ATOM     18  N   UNL d   1      50.838  34.325  52.466  0.00  0.00    -0.285 N 
ATOM     19  C   UNL d   1      50.953  34.311  51.616  0.00  0.00     0.108 A 
ATOM     20  C   UNL d   1      50.279  34.246  51.100  0.00  0.00     0.142 A 
ATOM     21  O   UNL d   1      49.475  34.195  51.424  0.00  0.00    -0.300 OA
ATOM     22  C   UNL d   1      49.381  34.210  52.281  0.00  0.00     0.142 A 
ATOM     23  C   UNL d   1      50.055  34.275  52.796  0.00  0.00     0.108 A 
ENDBRANCH   3  18
TORSDOF 2
ENDMDL
MODEL 8
REMARK VINA RESULT:      -6.2      2.570      4.330
REMARK  2 active torsions:
REMARK  status: ('A' for Active; 'I' for Inactive)
REMARK    1  A    between atoms: N_9  and  C_3 
REMARK    2  A    between atoms: C_11  and  C_4 
ROOT
ATOM      1  N   UNL d   1      52.889  32.440  53.497  0.00  0.00    -0.196 N 
ATOM      2  C   UNL d   1      53.146  31.699  53.827  0.00  0.00     0.167 A 
ATOM      3  C   UNL d   1      53.089  33.124  53.876  0.00  0.00     0.153 A 
ATOM      4  C   UNL d   1      52.953  31.001  53.459  0.00  0.00     0.057 A 
ATOM      5  N   UNL d   1      52.254  31.734  52.437  0.00  0.00    -0.161 NA
ATOM      6  N   UNL d   1      53.586  31.690  54.514  0.00  0.00    -0.227 NA
ATOM      7  C   UNL d   1      53.534  33.126  54.570  0.00  0.00     0.057 A 
ATOM      8  C   UNL d   1      52.503  31.015  52.757  0.00  0.00     0.124 A 
ATOM      9  C   UNL d   1      53.786  32.397  54.895  0.00  0.00     0.086 A 
ATOM     10  C   UNL d   1      54.250  32.388  55.619  0.00  0.00     0.021 C 
ENDROOT
BRANCH   4  11
ATOM     11  C   UNL d   1      53.202  30.283  53.779  0.00  0.00     0.005 A 
ATOM     12  C   UNL d   1      52.743  29.907  54.337  0.00  0.00     0.001 A 
ATOM     13  C   UNL d   1      52.992  29.189  54.657  0.00  0.00     0.011 A 
ATOM     14  C   UNL d   1      53.696  28.858  54.413  0.00  0.00     0.058 A 
ATOM     15  C   UNL d   1      54.151  29.246  53.850  0.00  0.00     0.011 A 
ATOM     16 CL   UNL d   1      53.957  28.105  54.748  0.00  0.00    -0.082 Cl
ATOM     17  C   UNL d   1      53.906  29.953  53.535  0.00  0.00     0.001 A 
ENDBRANCH   4  11
BRANCH   3  18
ATOM     18  N   UNL d   1      52.832  33.875  53.546  0.00  0.00    -0.285 N 
ATOM     19  C   UNL d   1      52.011  34.114  53.618  0.00  0.00     0.108 A 
ATOM     20  C   UNL d   1      51.759  34.858  53.289  0.00  0.00     0.142 A 
ATOM     21  O   UNL d   1      52.323  35.378  52.883  0.00  0.00    -0.300 OA
ATOM     22  C   UNL d   1      53.143  35.119  52.822  0.00  0.00     0.142 A 
ATOM     23  C   UNL d   1      53.394  34.376  53.150  0.00  0.00     0.108 A 
ENDBRANCH   3  18
TORSDOF 2
ENDMDL
MODEL 9
REMARK VINA RESULT:      -5.9      0.672      1.824
REMARK  2 active torsions:
REMARK  status: ('A' for Active; 'I' for Inactive)
REMARK    1  A    between atoms: N_9  and  C_3 
REMARK    2  A    between atoms: C_11  and  C_4 
ROOT
ATOM      1  N   UNL d   1      53.049  33.773  53.890  0.00  0.00    -0.196 N 
ATOM      2  C   UNL d   1      52.338  34.059  53.519  0.00  0.00     0.167 A 
ATOM      3  C   UNL d   1      53.446  34.261  54.396  0.00  0.00     0.153 A 
ATOM      4  C   UNL d   1      51.926  33.583  53.008  0.00  0.00     0.057 A 
ATOM      5  N   UNL d   1      52.892  32.535  53.206  0.00  0.00    -0.161 NA
ATOM      6  N   UNL d   1      52.071  34.814  53.680  0.00  0.00    -0.227 NA
ATOM      7  C   UNL d   1      53.185  35.024  54.565  0.00  0.00     0.057 A 
ATOM      8  C   UNL d   1      52.203  32.813  52.847  0.00  0.00     0.124 A 
ATOM      9  C   UNL d   1      52.485  35.306  54.200  0.00  0.00     0.086 A 
ATOM     10  C   UNL d   1      52.204  36.101  54.369  0.00  0.00     0.021 C 
ENDROOT
BRANCH   4  11
ATOM     11  C   UNL d   1      51.237  33.860  52.649  0.00  0.00     0.005 A 
ATOM     12  C   UNL d   1      50.532  33.841  53.057  0.00  0.00     0.001 A 
ATOM     13  C   UNL d   1      49.843  34.119  52.697  0.00  0.00     0.011 A 
ATOM     14  C   UNL d   1      49.871  34.410  51.937  0.00  0.00     0.058 A 
ATOM     15  C   UNL d   1      50.587  34.425  51.535  0.00  0.00     0.011 A 
ATOM     16 CL   UNL d   1      49.148  34.701  51.560  0.00  0.00    -0.082 Cl
ATOM     17  C   UNL d   1      51.266  34.152  51.888  0.00  0.00     0.001 A 
ENDBRANCH   4  11
BRANCH   3  18
ATOM     18  N   UNL d   1      54.165  33.976  54.772  0.00  0.00    -0.285 N 
ATOM     19  C   UNL d   1      54.923  34.088  54.387  0.00  0.00     0.108 A 
ATOM     20  C   UNL d   1      55.632  33.805  54.762  0.00  0.00     0.142 A 
ATOM     21  O   UNL d   1      55.598  33.402  55.531  0.00  0.00    -0.300 OA
ATOM     22  C   UNL d   1      54.827  33.299  55.901  0.00  0.00     0.142 A 
ATOM     23  C   UNL d   1      54.118  33.583  55.526  0.00  0.00     0.108 A 
ENDBRANCH   3  18
TORSDOF 2
ENDMDL
