MODEL 1
REMARK VINA RESULT:      -8.3      0.000      0.000
REMARK  3 active torsions:
REMARK  status: ('A' for Active; 'I' for Inactive)
REMARK    1  A    between atoms: N_6  and  C_1 
REMARK       I    between atoms: C_8  and  N_6 
REMARK       I    between atoms: C_11  and  N_7 
REMARK    2  A    between atoms: C_14  and  C_8 
REMARK    3  A    between atoms: O_20  and  C_19 
ROOT
ATOM      1  C   UNL d   1     -47.358  12.249  23.272  0.00  0.00     0.124 A 
ATOM      2  C   UNL d   1     -46.684  12.690  23.061  0.00  0.00     0.093 A 
ATOM      3  C   UNL d   1     -46.278  11.452  23.370  0.00  0.00     0.049 A 
ATOM      4  C   UNL d   1     -46.020  12.194  23.123  0.00  0.00     0.021 A 
ATOM      5  S   UNL d   1     -47.099  11.475  23.464  0.00  0.00    -0.066 SA
ATOM      6  N   UNL d   1     -44.929  10.969  23.343  0.00  0.00    -0.272 N 
ATOM      7  C   UNL d   1     -45.725  10.832  23.481  0.00  0.00     0.089 A 
ATOM      8  C   UNL d   1     -46.686  13.484  22.831  0.00  0.00     0.103 C 
ATOM      9  C   UNL d   1     -44.373  10.360  23.451  0.00  0.00     0.265 C 
ATOM     10  N   UNL d   1     -46.687  14.264  22.605  0.00  0.00    -0.191 NA
ATOM     11  C   UNL d   1     -45.211  12.340  22.981  0.00  0.00     0.020 A 
ATOM     12  C   UNL d   1     -44.671  11.723  23.093  0.00  0.00     0.083 A 
ATOM     13  O   UNL d   1     -44.626   9.617  23.698  0.00  0.00    -0.267 OA
ATOM     14  C   UNL d   1     -43.576  10.498  23.313  0.00  0.00     0.066 C 
ENDROOT
BRANCH   1  15
ATOM     15  N   UNL d   1     -48.138  12.521  23.289  0.00  0.00    -0.201 NA
ATOM     16  C   UNL d   1     -48.739  12.069  22.950  0.00  0.00     0.280 C 
ATOM     17  O   UNL d   1     -48.572  11.346  22.592  0.00  0.00    -0.265 OA
BRANCH  16  18
ATOM     18  C   UNL d   1     -49.504  12.335  22.967  0.00  0.00     0.060 A 
ATOM     19  C   UNL d   1     -49.849  12.661  22.293  0.00  0.00     0.029 A 
ATOM     20  C   UNL d   1     -50.626  12.932  22.310  0.00  0.00     0.094 A 
ATOM     21  C   UNL d   1     -51.064  12.879  23.001  0.00  0.00     0.024 A 
ATOM     22  C   UNL d   1     -50.727  12.555  23.680  0.00  0.00     0.002 A 
ATOM     23  C   UNL d   1     -49.939  12.280  23.663  0.00  0.00     0.005 A 
BRANCH  20  24
ATOM     24  O   UNL d   1     -50.986  13.267  21.624  0.00  0.00    -0.328 OA
ATOM     25  C   UNL d   1     -51.027  14.082  21.521  0.00  0.00     0.181 C 
ENDBRANCH  20  24
ENDBRANCH  16  18
ENDBRANCH   1  15
TORSDOF 3
ENDMDL
MODEL 2
REMARK VINA RESULT:      -7.3      1.221      4.970
REMARK  3 active torsions:
REMARK  status: ('A' for Active; 'I' for Inactive)
REMARK    1  A    between atoms: N_6  and  C_1 
REMARK       I    between atoms: C_8  and  N_6 
REMARK       I    between atoms: C_11  and  N_7 
REMARK    2  A    between atoms: C_14  and  C_8 
REMARK    3  A    between atoms: O_20  and  C_19 
ROOT
ATOM      1  C   UNL d   1     -46.855  12.349  23.363  0.00  0.00     0.124 A 
ATOM      2  C   UNL d   1     -47.107  13.130  23.228  0.00  0.00     0.093 A 
ATOM      3  C   UNL d   1     -48.198  12.385  23.446  0.00  0.00     0.049 A 
ATOM      4  C   UNL d   1     -47.937  13.148  23.280  0.00  0.00     0.021 A 
ATOM      5  S   UNL d   1     -47.541  11.885  23.498  0.00  0.00    -0.066 SA
ATOM      6  N   UNL d   1     -49.555  12.845  23.447  0.00  0.00    -0.272 N 
ATOM      7  C   UNL d   1     -49.017  12.232  23.530  0.00  0.00     0.089 A 
ATOM      8  C   UNL d   1     -46.610  13.772  23.071  0.00  0.00     0.103 C 
ATOM      9  C   UNL d   1     -50.370  12.703  23.530  0.00  0.00     0.265 C 
ATOM     10  N   UNL d   1     -46.122  14.402  22.916  0.00  0.00    -0.191 NA
ATOM     11  C   UNL d   1     -48.479  13.776  23.195  0.00  0.00     0.020 A 
ATOM     12  C   UNL d   1     -49.286  13.618  23.280  0.00  0.00     0.083 A 
ATOM     13  O   UNL d   1     -50.636  11.942  23.695  0.00  0.00    -0.267 OA
ATOM     14  C   UNL d   1     -50.908  13.317  23.447  0.00  0.00     0.066 C 
ENDROOT
BRANCH   1  15
ATOM     15  N   UNL d   1     -46.075  12.077  23.363  0.00  0.00    -0.201 NA
ATOM     16  C   UNL d   1     -45.921  11.268  23.313  0.00  0.00     0.280 C 
ATOM     17  O   UNL d   1     -46.537  10.724  23.262  0.00  0.00    -0.265 OA
BRANCH  16  18
ATOM     18  C   UNL d   1     -45.156  11.001  23.313  0.00  0.00     0.060 A 
ATOM     19  C   UNL d   1     -44.563  11.429  22.932  0.00  0.00     0.029 A 
ATOM     20  C   UNL d   1     -43.786  11.158  22.933  0.00  0.00     0.094 A 
ATOM     21  C   UNL d   1     -43.595  10.457  23.314  0.00  0.00     0.024 A 
ATOM     22  C   UNL d   1     -44.182  10.023  23.698  0.00  0.00     0.002 A 
ATOM     23  C   UNL d   1     -44.970  10.298  23.698  0.00  0.00     0.005 A 
BRANCH  20  24
ATOM     24  O   UNL d   1     -43.173  11.590  22.545  0.00  0.00    -0.328 OA
ATOM     25  C   UNL d   1     -43.340  12.088  21.913  0.00  0.00     0.181 C 
ENDBRANCH  20  24
ENDBRANCH  16  18
ENDBRANCH   1  15
TORSDOF 3
ENDMDL
