MODEL 1
REMARK VINA RESULT:      -1.9      0.000      0.000
REMARK  5 active torsions:
REMARK  status: ('A' for Active; 'I' for Inactive)
REMARK    1  A    between atoms: C_8  and  C_1 
REMARK    2  A    between atoms: C_7  and  C_4 
REMARK    3  A    between atoms: O_10  and  C_8 
REMARK    4  A    between atoms: C_16  and  O_10 
REMARK    5  A    between atoms: C_19  and  C_16 
ROOT
ATOM      1  C   UNL d   1      59.127  -1.679  29.045  0.00  0.00     0.098 A 
ATOM      2  C   UNL d   1      58.787  -2.444  28.973  0.00  0.00     0.075 A 
ATOM      3  C   UNL d   1      60.072  -2.987  28.666  0.00  0.00     0.354 A 
ATOM      4  C   UNL d   1      59.931  -1.581  28.928  0.00  0.00     0.093 A 
ATOM      5  N   UNL d   1      59.259  -3.089  28.785  0.00  0.00    -0.256 N 
ATOM      6  N   UNL d   1      60.408  -2.233  28.738  0.00  0.00    -0.192 NA
ATOM      7  O   UNL d   1      60.549  -3.634  28.477  0.00  0.00    -0.244 OA
ATOM      8  C   UNL d   1      57.984  -2.550  29.089  0.00  0.00     0.019 C 
ATOM      9  C   UNL d   1      58.925  -3.840  28.713  0.00  0.00     0.104 C 
ENDROOT
BRANCH   1  10
ATOM     10  C   UNL d   1      58.664  -1.022  29.233  0.00  0.00     0.303 C 
ATOM     11  O   UNL d   1      58.461  -0.483  28.648  0.00  0.00    -0.259 OA
BRANCH  10  12
ATOM     12  O   UNL d   1      58.411  -0.913  30.004  0.00  0.00    -0.271 OA
BRANCH  12  13
ATOM     13  C   UNL d   1      57.832  -0.350  30.163  0.00  0.00     0.126 C 
BRANCH  13  14
ATOM     14  C   UNL d   1      57.611  -0.191  30.942  0.00  0.00     0.025 C 
ATOM     15  C   UNL d   1      57.739   0.545  31.260  0.00  0.00     0.002 C 
ATOM     16  C   UNL d   1      57.262  -0.767  31.408  0.00  0.00     0.002 C 
ENDBRANCH  13  14
ENDBRANCH  12  13
ENDBRANCH  10  12
ENDBRANCH   1  10
BRANCH   4  17
ATOM     17  C   UNL d   1      60.264  -0.834  28.998  0.00  0.00     0.029 A 
ATOM     18  C   UNL d   1      60.793  -0.670  29.616  0.00  0.00     0.059 A 
ATOM     19 CL   UNL d   1      60.984  -1.265  30.160  0.00  0.00    -0.082 Cl
ATOM     20  C   UNL d   1      61.133   0.094  29.689  0.00  0.00     0.011 A 
ATOM     21  C   UNL d   1      60.938   0.682  29.142  0.00  0.00     0.001 A 
ATOM     22  C   UNL d   1      60.415   0.523  28.530  0.00  0.00     0.000 A 
ATOM     23  C   UNL d   1      60.062  -0.271  28.455  0.00  0.00     0.002 A 
ENDBRANCH   4  17
TORSDOF 5
ENDMDL
MODEL 2
REMARK VINA RESULT:      -1.1      1.490      2.989
REMARK  5 active torsions:
REMARK  status: ('A' for Active; 'I' for Inactive)
REMARK    1  A    between atoms: C_8  and  C_1 
REMARK    2  A    between atoms: C_7  and  C_4 
REMARK    3  A    between atoms: O_10  and  C_8 
REMARK    4  A    between atoms: C_16  and  O_10 
REMARK    5  A    between atoms: C_19  and  C_16 
ROOT
ATOM      1  C   UNL d   1      58.464  -0.654  30.028  0.00  0.00     0.098 A 
ATOM      2  C   UNL d   1      57.821  -0.881  30.519  0.00  0.00     0.075 A 
ATOM      3  C   UNL d   1      58.080   0.235  31.373  0.00  0.00     0.354 A 
ATOM      4  C   UNL d   1      58.902   0.011  30.216  0.00  0.00     0.093 A 
ATOM      5  N   UNL d   1      57.635  -0.437  31.185  0.00  0.00    -0.256 N 
ATOM      6  N   UNL d   1      58.714   0.459  30.888  0.00  0.00    -0.192 NA
ATOM      7  O   UNL d   1      57.894   0.682  32.041  0.00  0.00    -0.244 OA
ATOM      8  C   UNL d   1      57.378  -1.544  30.337  0.00  0.00     0.019 C 
ATOM      9  C   UNL d   1      57.003  -0.660  31.667  0.00  0.00     0.104 C 
ENDROOT
BRANCH   1  10
ATOM     10  C   UNL d   1      58.662  -1.091  29.355  0.00  0.00     0.303 C 
ATOM     11  O   UNL d   1      58.498  -0.790  28.609  0.00  0.00    -0.259 OA
BRANCH  10  12
ATOM     12  O   UNL d   1      59.021  -1.821  29.439  0.00  0.00    -0.271 OA
BRANCH  12  13
ATOM     13  C   UNL d   1      58.978  -2.366  28.823  0.00  0.00     0.126 C 
BRANCH  13  14
ATOM     14  C   UNL d   1      59.438  -3.051  28.842  0.00  0.00     0.025 C 
ATOM     15  C   UNL d   1      60.205  -3.019  29.103  0.00  0.00     0.002 C 
ATOM     16  C   UNL d   1      59.131  -3.771  28.601  0.00  0.00     0.002 C 
ENDBRANCH  13  14
ENDBRANCH  12  13
ENDBRANCH  10  12
ENDBRANCH   1  10
BRANCH   4  17
ATOM     17  C   UNL d   1      59.530   0.232  29.736  0.00  0.00     0.029 A 
ATOM     18  C   UNL d   1      60.301   0.261  30.044  0.00  0.00     0.059 A 
ATOM     19 CL   UNL d   1      60.431   0.065  30.838  0.00  0.00    -0.082 Cl
ATOM     20  C   UNL d   1      60.943   0.487  29.554  0.00  0.00     0.011 A 
ATOM     21  C   UNL d   1      60.804   0.682  28.763  0.00  0.00     0.001 A 
ATOM     22  C   UNL d   1      60.044   0.655  28.455  0.00  0.00     0.000 A 
ATOM     23  C   UNL d   1      59.376   0.419  28.965  0.00  0.00     0.002 A 
ENDBRANCH   4  17
TORSDOF 5
ENDMDL
