MODEL 1
REMARK VINA RESULT:      -2.4      0.000      0.000
REMARK  5 active torsions:
REMARK  status: ('A' for Active; 'I' for Inactive)
REMARK    1  A    between atoms: C_6  and  C_1 
REMARK    2  A    between atoms: C_7  and  C_2 
REMARK    3  A    between atoms: O_12  and  C_6 
REMARK    4  A    between atoms: O_14  and  C_11 
REMARK    5  A    between atoms: C_17  and  O_12 
ROOT
ATOM      1  C   UNL d   1      31.005  17.076 -24.071  0.00  0.00     0.088 A 
ATOM      2  C   UNL d   1      31.107  17.875 -24.252  0.00  0.00     0.105 A 
ATOM      3  C   UNL d   1      30.204  16.895 -24.097  0.00  0.00     0.032 A 
ATOM      4  O   UNL d   1      30.349  18.189 -24.393  0.00  0.00    -0.307 OA
ATOM      5  C   UNL d   1      29.798  17.583 -24.297  0.00  0.00     0.100 A 
ATOM      6  C   UNL d   1      29.795  16.200 -23.967  0.00  0.00     0.026 A 
ATOM      7  C   UNL d   1      28.972  17.568 -24.365  0.00  0.00     0.027 A 
ATOM      8  C   UNL d   1      28.969  16.186 -24.036  0.00  0.00     0.094 A 
ATOM      9  C   UNL d   1      28.564  16.874 -24.235  0.00  0.00     0.026 A 
ENDROOT
BRANCH   2  10
ATOM     10  C   UNL d   1      31.812  18.296 -24.291  0.00  0.00     0.023 A 
ATOM     11  C   UNL d   1      32.137  18.511 -25.033  0.00  0.00     0.002 A 
ATOM     12  C   UNL d   1      32.855  18.939 -25.059  0.00  0.00     0.000 A 
ATOM     13  C   UNL d   1      33.241  19.147 -24.342  0.00  0.00     0.000 A 
ATOM     14  C   UNL d   1      32.911  18.930 -23.626  0.00  0.00     0.000 A 
ATOM     15  C   UNL d   1      32.206  18.509 -23.601  0.00  0.00     0.002 A 
ENDBRANCH   2  10
BRANCH   1  16
ATOM     16  C   UNL d   1      31.802  16.878 -23.954  0.00  0.00     0.302 C 
ATOM     17  O   UNL d   1      32.181  17.086 -23.257  0.00  0.00    -0.259 OA
BRANCH  16  18
ATOM     18  O   UNL d   1      32.226  16.469 -24.537  0.00  0.00    -0.271 OA
BRANCH  18  19
ATOM     19  C   UNL d   1      32.491  15.689 -24.406  0.00  0.00     0.126 C 
ATOM     20  C   UNL d   1      33.240  15.453 -24.683  0.00  0.00     0.029 C 
ENDBRANCH  18  19
ENDBRANCH  16  18
ENDBRANCH   1  16
BRANCH   8  21
ATOM     21  O   UNL d   1      28.560  15.475 -23.902  0.00  0.00    -0.328 OA
ATOM     22  C   UNL d   1      27.739  15.490 -23.716  0.00  0.00     0.181 C 
ENDBRANCH   8  21
TORSDOF 5
ENDMDL
MODEL 2
REMARK VINA RESULT:      -1.2      1.764      4.074
REMARK  5 active torsions:
REMARK  status: ('A' for Active; 'I' for Inactive)
REMARK    1  A    between atoms: C_6  and  C_1 
REMARK    2  A    between atoms: C_7  and  C_2 
REMARK    3  A    between atoms: O_12  and  C_6 
REMARK    4  A    between atoms: O_14  and  C_11 
REMARK    5  A    between atoms: C_17  and  O_12 
ROOT
ATOM      1  C   UNL d   1      32.364  18.382 -23.605  0.00  0.00     0.088 A 
ATOM      2  C   UNL d   1      32.667  17.660 -23.344  0.00  0.00     0.105 A 
ATOM      3  C   UNL d   1      32.552  18.966 -23.057  0.00  0.00     0.032 A 
ATOM      4  O   UNL d   1      33.050  17.807 -22.619  0.00  0.00    -0.307 OA
ATOM      5  C   UNL d   1      32.975  18.610 -22.448  0.00  0.00     0.100 A 
ATOM      6  C   UNL d   1      32.393  19.766 -23.035  0.00  0.00     0.026 A 
ATOM      7  C   UNL d   1      33.241  19.068 -21.810  0.00  0.00     0.027 A 
ATOM      8  C   UNL d   1      32.659  20.224 -22.397  0.00  0.00     0.094 A 
ATOM      9  C   UNL d   1      33.083  19.868 -21.788  0.00  0.00     0.026 A 
ENDROOT
BRANCH   2  10
ATOM     10  C   UNL d   1      32.613  16.929 -23.715  0.00  0.00     0.023 A 
ATOM     11  C   UNL d   1      32.038  16.370 -23.469  0.00  0.00     0.002 A 
ATOM     12  C   UNL d   1      31.993  15.630 -23.855  0.00  0.00     0.000 A 
ATOM     13  C   UNL d   1      32.523  15.455 -24.482  0.00  0.00     0.000 A 
ATOM     14  C   UNL d   1      33.079  16.010 -24.711  0.00  0.00     0.000 A 
ATOM     15  C   UNL d   1      33.123  16.738 -24.332  0.00  0.00     0.002 A 
ENDBRANCH   2  10
BRANCH   1  16
ATOM     16  C   UNL d   1      32.018  18.118 -24.311  0.00  0.00     0.302 C 
ATOM     17  O   UNL d   1      32.487  17.949 -24.962  0.00  0.00    -0.259 OA
BRANCH  16  18
ATOM     18  O   UNL d   1      31.197  18.022 -24.369  0.00  0.00    -0.271 OA
BRANCH  18  19
ATOM     19  C   UNL d   1      30.795  18.194 -25.079  0.00  0.00     0.126 C 
ATOM     20  C   UNL d   1      30.021  18.502 -25.054  0.00  0.00     0.029 C 
ENDBRANCH  18  19
ENDBRANCH  16  18
ENDBRANCH   1  16
BRANCH   8  21
ATOM     21  O   UNL d   1      32.494  21.038 -22.380  0.00  0.00    -0.328 OA
ATOM     22  C   UNL d   1      33.077  21.581 -22.107  0.00  0.00     0.181 C 
ENDBRANCH   8  21
TORSDOF 5
ENDMDL
MODEL 3
REMARK VINA RESULT:      -1.0      1.053      4.101
REMARK  5 active torsions:
REMARK  status: ('A' for Active; 'I' for Inactive)
REMARK    1  A    between atoms: C_6  and  C_1 
REMARK    2  A    between atoms: C_7  and  C_2 
REMARK    3  A    between atoms: O_12  and  C_6 
REMARK    4  A    between atoms: O_14  and  C_11 
REMARK    5  A    between atoms: C_17  and  O_12 
ROOT
ATOM      1  C   UNL d   1      30.421  16.780 -24.240  0.00  0.00     0.088 A 
ATOM      2  C   UNL d   1      30.073  16.192 -23.778  0.00  0.00     0.105 A 
ATOM      3  C   UNL d   1      31.237  16.746 -24.151  0.00  0.00     0.032 A 
ATOM      4  O   UNL d   1      30.693  15.788 -23.395  0.00  0.00    -0.307 OA
ATOM      5  C   UNL d   1      31.405  16.133 -23.628  0.00  0.00     0.100 A 
ATOM      6  C   UNL d   1      31.842  17.189 -24.473  0.00  0.00     0.026 A 
ATOM      7  C   UNL d   1      32.193  15.966 -23.430  0.00  0.00     0.027 A 
ATOM      8  C   UNL d   1      32.629  17.022 -24.275  0.00  0.00     0.094 A 
ATOM      9  C   UNL d   1      32.797  16.409 -23.753  0.00  0.00     0.026 A 
ENDROOT
BRANCH   2  10
ATOM     10  C   UNL d   1      29.273  16.022 -23.697  0.00  0.00     0.023 A 
ATOM     11  C   UNL d   1      28.857  15.634 -24.313  0.00  0.00     0.002 A 
ATOM     12  C   UNL d   1      28.043  15.468 -24.218  0.00  0.00     0.000 A 
ATOM     13  C   UNL d   1      27.653  15.690 -23.508  0.00  0.00     0.000 A 
ATOM     14  C   UNL d   1      28.072  16.068 -22.916  0.00  0.00     0.000 A 
ATOM     15  C   UNL d   1      28.872  16.232 -23.009  0.00  0.00     0.002 A 
ENDBRANCH   2  10
BRANCH   1  16
ATOM     16  C   UNL d   1      29.727  17.104 -24.562  0.00  0.00     0.302 C 
ATOM     17  O   UNL d   1      29.221  16.635 -25.007  0.00  0.00    -0.259 OA
BRANCH  16  18
ATOM     18  O   UNL d   1      29.536  17.900 -24.438  0.00  0.00    -0.271 OA
BRANCH  18  19
ATOM     19  C   UNL d   1      29.377  18.407 -25.081  0.00  0.00     0.126 C 
ATOM     20  C   UNL d   1      28.717  18.915 -25.056  0.00  0.00     0.029 C 
ENDBRANCH  18  19
ENDBRANCH  16  18
ENDBRANCH   1  16
BRANCH   8  21
ATOM     21  O   UNL d   1      33.240  17.477 -24.607  0.00  0.00    -0.328 OA
ATOM     22  C   UNL d   1      33.125  18.299 -24.747  0.00  0.00     0.181 C 
ENDBRANCH   8  21
TORSDOF 5
ENDMDL
MODEL 4
REMARK VINA RESULT:      -0.5      1.009      2.428
REMARK  5 active torsions:
REMARK  status: ('A' for Active; 'I' for Inactive)
REMARK    1  A    between atoms: C_6  and  C_1 
REMARK    2  A    between atoms: C_7  and  C_2 
REMARK    3  A    between atoms: O_12  and  C_6 
REMARK    4  A    between atoms: O_14  and  C_11 
REMARK    5  A    between atoms: C_17  and  O_12 
ROOT
ATOM      1  C   UNL d   1      30.816  17.053 -24.322  0.00  0.00     0.088 A 
ATOM      2  C   UNL d   1      31.002  16.313 -24.006  0.00  0.00     0.105 A 
ATOM      3  C   UNL d   1      30.005  17.097 -24.443  0.00  0.00     0.032 A 
ATOM      4  O   UNL d   1      30.286  15.896 -23.932  0.00  0.00    -0.307 OA
ATOM      5  C   UNL d   1      29.677  16.382 -24.202  0.00  0.00     0.100 A 
ATOM      6  C   UNL d   1      29.527  17.690 -24.738  0.00  0.00     0.026 A 
ATOM      7  C   UNL d   1      28.858  16.265 -24.259  0.00  0.00     0.027 A 
ATOM      8  C   UNL d   1      28.709  17.573 -24.796  0.00  0.00     0.094 A 
ATOM      9  C   UNL d   1      28.381  16.857 -24.554  0.00  0.00     0.026 A 
ENDROOT
BRANCH   2  10
ATOM     10  C   UNL d   1      31.745  16.027 -23.799  0.00  0.00     0.023 A 
ATOM     11  C   UNL d   1      32.275  15.755 -24.388  0.00  0.00     0.002 A 
ATOM     12  C   UNL d   1      33.026  15.467 -24.164  0.00  0.00     0.000 A 
ATOM     13  C   UNL d   1      33.241  15.453 -23.351  0.00  0.00     0.000 A 
ATOM     14  C   UNL d   1      32.713  15.721 -22.788  0.00  0.00     0.000 A 
ATOM     15  C   UNL d   1      31.974  16.005 -23.009  0.00  0.00     0.002 A 
ENDBRANCH   2  10
BRANCH   1  16
ATOM     16  C   UNL d   1      31.584  17.367 -24.349  0.00  0.00     0.302 C 
ATOM     17  O   UNL d   1      32.095  17.157 -24.956  0.00  0.00    -0.259 OA
BRANCH  16  18
ATOM     18  O   UNL d   1      31.846  17.895 -23.766  0.00  0.00    -0.271 OA
BRANCH  18  19
ATOM     19  C   UNL d   1      32.326  18.547 -23.964  0.00  0.00     0.126 C 
ATOM     20  C   UNL d   1      32.394  19.188 -23.436  0.00  0.00     0.029 C 
ENDBRANCH  18  19
ENDBRANCH  16  18
ENDBRANCH   1  16
BRANCH   8  21
ATOM     21  O   UNL d   1      28.228  18.180 -25.097  0.00  0.00    -0.328 OA
ATOM     22  C   UNL d   1      28.458  18.985 -25.002  0.00  0.00     0.181 C 
ENDBRANCH   8  21
TORSDOF 5
ENDMDL
MODEL 5
REMARK VINA RESULT:      -0.4      1.021      2.366
REMARK  5 active torsions:
REMARK  status: ('A' for Active; 'I' for Inactive)
REMARK    1  A    between atoms: C_6  and  C_1 
REMARK    2  A    between atoms: C_7  and  C_2 
REMARK    3  A    between atoms: O_12  and  C_6 
REMARK    4  A    between atoms: O_14  and  C_11 
REMARK    5  A    between atoms: C_17  and  O_12 
ROOT
ATOM      1  C   UNL d   1      30.460  16.738 -24.044  0.00  0.00     0.088 A 
ATOM      2  C   UNL d   1      30.848  16.012 -23.992  0.00  0.00     0.105 A 
ATOM      3  C   UNL d   1      29.672  16.638 -23.831  0.00  0.00     0.032 A 
ATOM      4  O   UNL d   1      30.283  15.454 -23.741  0.00  0.00    -0.307 OA
ATOM      5  C   UNL d   1      29.563  15.844 -23.643  0.00  0.00     0.100 A 
ATOM      6  C   UNL d   1      29.048  17.161 -23.784  0.00  0.00     0.026 A 
ATOM      7  C   UNL d   1      28.815  15.577 -23.406  0.00  0.00     0.027 A 
ATOM      8  C   UNL d   1      28.300  16.894 -23.546  0.00  0.00     0.094 A 
ATOM      9  C   UNL d   1      28.191  16.100 -23.359  0.00  0.00     0.026 A 
ENDROOT
BRANCH   2  10
ATOM     10  C   UNL d   1      31.638  15.851 -24.153  0.00  0.00     0.023 A 
ATOM     11  C   UNL d   1      31.935  15.923 -24.933  0.00  0.00     0.002 A 
ATOM     12  C   UNL d   1      32.741  15.756 -25.083  0.00  0.00     0.000 A 
ATOM     13  C   UNL d   1      33.241  15.519 -24.451  0.00  0.00     0.000 A 
ATOM     14  C   UNL d   1      32.936  15.453 -23.695  0.00  0.00     0.000 A 
ATOM     15  C   UNL d   1      32.144  15.617 -23.548  0.00  0.00     0.002 A 
ENDBRANCH   2  10
BRANCH   1  16
ATOM     16  C   UNL d   1      31.103  17.199 -24.295  0.00  0.00     0.302 C 
ATOM     17  O   UNL d   1      31.331  17.194 -25.083  0.00  0.00    -0.259 OA
BRANCH  16  18
ATOM     18  O   UNL d   1      31.523  17.668 -23.756  0.00  0.00    -0.271 OA
BRANCH  18  19
ATOM     19  C   UNL d   1      31.664  18.475 -23.910  0.00  0.00     0.126 C 
ATOM     20  C   UNL d   1      32.246  18.885 -23.479  0.00  0.00     0.029 C 
ENDBRANCH  18  19
ENDBRANCH  16  18
ENDBRANCH   1  16
BRANCH   8  21
ATOM     21  O   UNL d   1      27.668  17.432 -23.501  0.00  0.00    -0.328 OA
ATOM     22  C   UNL d   1      27.538  17.869 -22.793  0.00  0.00     0.181 C 
ENDBRANCH   8  21
TORSDOF 5
ENDMDL
