MODEL 1
REMARK VINA RESULT:      87.0      0.000      0.000
REMARK  4 active torsions:
REMARK  status: ('A' for Active; 'I' for Inactive)
REMARK    1  A    between atoms: N_10  and  C_3 
REMARK    2  A    between atoms: C_11  and  C_5 
REMARK    3  A    between atoms: C_13  and  N_10 
REMARK    4  A    between atoms: C_15  and  C_13 
ROOT
ATOM      1  N   UNL d   1      59.252  49.535  51.172  0.00  0.00    -0.195 N 
ATOM      2  C   UNL d   1      58.656  49.472  50.585  0.00  0.00     0.167 A 
ATOM      3  C   UNL d   1      60.044  49.616  50.944  0.00  0.00     0.167 A 
ATOM      4  N   UNL d   1      58.264  49.436  52.185  0.00  0.00    -0.163 NA
ATOM      5  C   UNL d   1      57.884  49.394  50.805  0.00  0.00     0.055 A 
ATOM      6  N   UNL d   1      58.873  49.493  49.791  0.00  0.00    -0.227 NA
ATOM      7  C   UNL d   1      60.241  49.634  50.158  0.00  0.00     0.054 A 
ATOM      8  C   UNL d   1      57.677  49.374  51.607  0.00  0.00     0.104 A 
ATOM      9  C   UNL d   1      59.651  49.572  49.564  0.00  0.00     0.086 A 
ATOM     10  C   UNL d   1      60.952  49.706  49.773  0.00  0.00     0.005 A 
ATOM     11  C   UNL d   1      56.892  49.294  51.823  0.00  0.00     0.023 C 
ATOM     12  C   UNL d   1      60.013  49.608  48.830  0.00  0.00     0.019 A 
ATOM     13  C   UNL d   1      60.829  49.692  48.965  0.00  0.00     0.002 A 
ENDROOT
BRANCH   3  14
ATOM     14  N   UNL d   1      60.648  49.679  51.534  0.00  0.00    -0.224 NA
BRANCH  14  15
ATOM     15  C   UNL d   1      61.434  49.419  51.707  0.00  0.00     0.120 C 
BRANCH  15  16
ATOM     16  C   UNL d   1      61.629  49.167  52.479  0.00  0.00     0.101 A 
ATOM     17  N   UNL d   1      61.492  48.362  52.706  0.00  0.00    -0.242 NA
ATOM     18  C   UNL d   1      61.688  48.104  53.484  0.00  0.00     0.099 A 
ATOM     19  C   UNL d   1      62.022  48.651  54.035  0.00  0.00     0.021 A 
ATOM     20  C   UNL d   1      62.159  49.455  53.807  0.00  0.00     0.003 A 
ATOM     21  C   UNL d   1      61.960  49.707  53.024  0.00  0.00     0.021 A 
ENDBRANCH  15  16
ENDBRANCH  14  15
ENDBRANCH   3  14
BRANCH   5  22
ATOM     22  C   UNL d   1      57.301  49.332  50.231  0.00  0.00     0.004 A 
ATOM     23  C   UNL d   1      56.624  48.898  50.374  0.00  0.00     0.000 A 
ATOM     24  C   UNL d   1      56.034  48.836  49.793  0.00  0.00     0.000 A 
ATOM     25  C   UNL d   1      56.133  49.209  49.080  0.00  0.00     0.000 A 
ATOM     26  C   UNL d   1      56.815  49.649  48.931  0.00  0.00     0.000 A 
ATOM     27  C   UNL d   1      57.394  49.708  49.506  0.00  0.00     0.000 A 
ENDBRANCH   5  22
TORSDOF 4
ENDMDL
