MODEL 1
REMARK VINA RESULT:      15.5      0.000      0.000
REMARK  2 active torsions:
REMARK  status: ('A' for Active; 'I' for Inactive)
REMARK       I    between atoms: N_2  and  C_1 
REMARK       I    between atoms: N_4  and  C_1 
REMARK    1  A    between atoms: C_3  and  N_2 
REMARK    2  A    between atoms: C_7  and  N_4 
ROOT
ATOM      1  C   UNL d   1      58.678  49.675  50.824  0.00  0.00     0.370 C 
ATOM      2  N   UNL d   1      57.860  49.695  50.957  0.00  0.00    -0.172 NA
ATOM      3  N   UNL d   1      59.190  49.688  51.486  0.00  0.00    -0.191 NA
ATOM      4  O   UNL d   1      58.990  49.644  50.089  0.00  0.00    -0.242 OA
ENDROOT
BRANCH   2   5
ATOM      5  C   UNL d   1      57.353  49.683  50.306  0.00  0.00     0.167 A 
ATOM      6  N   UNL d   1      57.653  49.695  49.517  0.00  0.00    -0.225 NA
ATOM      7  C   UNL d   1      57.139  49.682  48.879  0.00  0.00     0.101 A 
ATOM      8  C   UNL d   1      56.322  49.657  49.017  0.00  0.00     0.021 A 
ATOM      9  C   UNL d   1      56.033  49.645  49.791  0.00  0.00     0.005 A 
ATOM     10  C   UNL d   1      56.542  49.658  50.419  0.00  0.00     0.039 A 
ENDBRANCH   2   5
BRANCH   3  11
ATOM     11  C   UNL d   1      60.003  49.668  51.369  0.00  0.00     0.086 A 
ATOM     12  C   UNL d   1      60.304  49.632  50.617  0.00  0.00     0.019 A 
ATOM     13  C   UNL d   1      61.127  49.612  50.505  0.00  0.00     0.002 A 
ATOM     14  C   UNL d   1      61.641  49.630  51.169  0.00  0.00     0.000 A 
ATOM     15  C   UNL d   1      61.331  49.666  51.914  0.00  0.00     0.002 A 
ATOM     16  C   UNL d   1      60.521  49.686  52.035  0.00  0.00     0.019 A 
ENDBRANCH   3  11
TORSDOF 2
ENDMDL
MODEL 2
REMARK VINA RESULT:      15.7      0.763      3.995
REMARK  2 active torsions:
REMARK  status: ('A' for Active; 'I' for Inactive)
REMARK       I    between atoms: N_2  and  C_1 
REMARK       I    between atoms: N_4  and  C_1 
REMARK    1  A    between atoms: C_3  and  N_2 
REMARK    2  A    between atoms: C_7  and  N_4 
ROOT
ATOM      1  C   UNL d   1      58.981  49.691  50.399  0.00  0.00     0.370 C 
ATOM      2  N   UNL d   1      59.809  49.682  50.342  0.00  0.00    -0.172 NA
ATOM      3  N   UNL d   1      58.533  49.683  49.691  0.00  0.00    -0.191 NA
ATOM      4  O   UNL d   1      58.602  49.706  51.102  0.00  0.00    -0.242 OA
ENDROOT
BRANCH   2   5
ATOM      5  C   UNL d   1      60.253  49.691  51.037  0.00  0.00     0.167 A 
ATOM      6  N   UNL d   1      61.097  49.699  51.017  0.00  0.00    -0.225 NA
ATOM      7  C   UNL d   1      61.527  49.707  51.715  0.00  0.00     0.101 A 
ATOM      8  C   UNL d   1      61.124  49.707  52.439  0.00  0.00     0.021 A 
ATOM      9  C   UNL d   1      60.298  49.699  52.453  0.00  0.00     0.005 A 
ATOM     10  C   UNL d   1      59.876  49.691  51.764  0.00  0.00     0.039 A 
ENDBRANCH   2   5
BRANCH   3  11
ATOM     11  C   UNL d   1      57.713  49.691  49.734  0.00  0.00     0.086 A 
ATOM     12  C   UNL d   1      57.343  49.697  50.455  0.00  0.00     0.019 A 
ATOM     13  C   UNL d   1      56.513  49.705  50.491  0.00  0.00     0.002 A 
ATOM     14  C   UNL d   1      56.063  49.707  49.781  0.00  0.00     0.000 A 
ATOM     15  C   UNL d   1      56.441  49.700  49.068  0.00  0.00     0.002 A 
ATOM     16  C   UNL d   1      57.259  49.692  49.022  0.00  0.00     0.019 A 
ENDBRANCH   3  11
TORSDOF 2
ENDMDL
