MODEL 1
REMARK VINA RESULT:      17.5      0.000      0.000
REMARK  1 active torsions:
REMARK  status: ('A' for Active; 'I' for Inactive)
REMARK    1  A    between atoms: C_11  and  C_9 
ROOT
ATOM      1  N   UNL d   1      46.243 -18.330  43.600  0.00  0.00    -0.253 N 
ATOM      2  C   UNL d   1      46.149 -17.669  43.123  0.00  0.00     0.182 A 
ATOM      3  C   UNL d   1      46.182 -18.239  44.436  0.00  0.00     0.267 A 
ATOM      4  N   UNL d   1      46.231 -17.896  42.354  0.00  0.00    -0.221 NA
ATOM      5  S   UNL d   1      45.999 -16.928  43.437  0.00  0.00    -0.050 SA
ATOM      6  C   UNL d   1      46.033 -17.510  44.769  0.00  0.00     0.068 A 
ATOM      7  C   UNL d   1      46.382 -18.962  43.113  0.00  0.00     0.086 A 
ATOM      8  C   UNL d   1      46.380 -18.717  42.330  0.00  0.00     0.100 A 
ATOM      9  C   UNL d   1      45.939 -16.834  44.252  0.00  0.00     0.037 A 
ATOM     10  O   UNL d   1      46.276 -18.912  44.954  0.00  0.00    -0.267 OA
ATOM     11  C   UNL d   1      46.520 -19.780  43.291  0.00  0.00     0.019 A 
ATOM     12  C   UNL d   1      46.507 -19.241  41.724  0.00  0.00     0.021 A 
ATOM     13  C   UNL d   1      46.646 -20.298  42.670  0.00  0.00     0.002 A 
ATOM     14  C   UNL d   1      46.642 -20.049  41.905  0.00  0.00     0.002 A 
ENDROOT
BRANCH   9  15
ATOM     15  C   UNL d   1      45.784 -16.042  44.486  0.00  0.00     0.006 A 
ATOM     16  C   UNL d   1      46.388 -15.481  44.481  0.00  0.00     0.001 A 
ATOM     17  C   UNL d   1      46.237 -14.688  44.715  0.00  0.00     0.000 A 
ATOM     18  C   UNL d   1      45.482 -14.475  44.947  0.00  0.00     0.000 A 
ATOM     19  C   UNL d   1      44.860 -15.041  44.955  0.00  0.00     0.000 A 
ATOM     20  C   UNL d   1      45.009 -15.820  44.726  0.00  0.00     0.001 A 
ENDBRANCH   9  15
TORSDOF 1
ENDMDL
