MODEL 1
REMARK VINA RESULT:       6.2      0.000      0.000
REMARK  1 active torsions:
REMARK  status: ('A' for Active; 'I' for Inactive)
REMARK    1  A    between atoms: C_2  and  N_1 
ROOT
ATOM      1  C   UNL d   1      46.168 -17.994  43.796  0.00  0.00     0.127 A 
ATOM      2  C   UNL d   1      46.284 -18.084  42.981  0.00  0.00     0.025 A 
ATOM      3  C   UNL d   1      46.401 -18.830  42.659  0.00  0.00     0.021 A 
ATOM      4  N   UNL d   1      46.634 -19.663  41.525  0.00  0.00    -0.242 NA
ATOM      5  C   UNL d   1      46.404 -19.493  43.147  0.00  0.00     0.003 A 
ATOM      6  C   UNL d   1      46.172 -18.667  44.279  0.00  0.00     0.024 A 
ATOM      7  C   UNL d   1      46.290 -19.412  43.959  0.00  0.00     0.002 A 
ATOM      8  C   UNL d   1      46.517 -18.917  41.847  0.00  0.00     0.099 A 
ATOM      9  C   UNL d   1      46.637 -20.326  42.013  0.00  0.00     0.099 A 
ATOM     10  C   UNL d   1      46.522 -20.252  42.830  0.00  0.00     0.021 A 
ENDROOT
BRANCH   1  11
ATOM     11  N   UNL d   1      46.050 -17.246  44.121  0.00  0.00    -0.114 N 
ATOM     12  O   UNL d   1      46.062 -16.581  43.635  0.00  0.00    -0.532 OA
ATOM     13  O   UNL d   1      45.919 -17.158  44.934  0.00  0.00    -0.532 OA
ENDBRANCH   1  11
TORSDOF 1
ENDMDL
MODEL 2
REMARK VINA RESULT:       7.3      7.398      7.668
REMARK  1 active torsions:
REMARK  status: ('A' for Active; 'I' for Inactive)
REMARK    1  A    between atoms: C_2  and  N_1 
ROOT
ATOM      1  C   UNL d   1      45.411 -14.724  36.808  0.00  0.00     0.127 A 
ATOM      2  C   UNL d   1      44.583 -14.698  36.795  0.00  0.00     0.025 A 
ATOM      3  C   UNL d   1      44.150 -15.386  36.678  0.00  0.00     0.021 A 
ATOM      4  N   UNL d   1      42.892 -16.046  36.549  0.00  0.00    -0.242 NA
ATOM      5  C   UNL d   1      44.538 -16.104  36.572  0.00  0.00     0.003 A 
ATOM      6  C   UNL d   1      45.793 -15.451  36.700  0.00  0.00     0.024 A 
ATOM      7  C   UNL d   1      45.361 -16.138  36.583  0.00  0.00     0.002 A 
ATOM      8  C   UNL d   1      43.326 -15.358  36.666  0.00  0.00     0.099 A 
ATOM      9  C   UNL d   1      43.280 -16.764  36.443  0.00  0.00     0.099 A 
ATOM     10  C   UNL d   1      44.107 -16.805  36.453  0.00  0.00     0.021 A 
ENDROOT
BRANCH   1  11
ATOM     11  N   UNL d   1      45.848 -14.035  36.925  0.00  0.00    -0.114 N 
ATOM     12  O   UNL d   1      45.540 -13.428  37.387  0.00  0.00    -0.532 OA
ATOM     13  O   UNL d   1      46.596 -13.950  36.580  0.00  0.00    -0.532 OA
ENDBRANCH   1  11
TORSDOF 1
ENDMDL
