MODEL 1
REMARK VINA RESULT:      95.1      0.000      0.000
REMARK  5 active torsions:
REMARK  status: ('A' for Active; 'I' for Inactive)
REMARK    1  A    between atoms: C_15  and  C_4 
REMARK    2  A    between atoms: S_10  and  C_5 
REMARK    3  A    between atoms: C_17  and  S_10 
REMARK    4  A    between atoms: C_11  and  C_14 
REMARK    5  A    between atoms: C_14  and  C_17 
ROOT
ATOM      1  N   UNL d   1     -48.624  29.080  34.546  0.00  0.00    -0.206 N 
ATOM      2  C   UNL d   1     -48.100  29.333  35.132  0.00  0.00     0.166 A 
ATOM      3  N   UNL d   1     -48.824  30.415  34.155  0.00  0.00    -0.163 NA
ATOM      4  C   UNL d   1     -47.939  30.121  35.229  0.00  0.00     0.055 A 
ATOM      5  C   UNL d   1     -48.770  28.291  34.466  0.00  0.00     0.116 A 
ATOM      6  C   UNL d   1     -48.309  30.664  34.731  0.00  0.00     0.104 A 
ATOM      7  N   UNL d   1     -47.737  28.790  35.622  0.00  0.00    -0.227 NA
ATOM      8  C   UNL d   1     -48.416  27.736  34.948  0.00  0.00     0.045 A 
ATOM      9  C   UNL d   1     -47.895  27.988  35.530  0.00  0.00     0.085 A 
ATOM     10  C   UNL d   1     -48.147  31.448  34.830  0.00  0.00     0.023 C 
ATOM     11  C   UNL d   1     -47.516  27.421  36.042  0.00  0.00     0.021 C 
ENDROOT
BRANCH   5  12
ATOM     12  S   UNL d   1     -49.310  28.030  33.862  0.00  0.00    -0.064 SA
BRANCH  12  13
ATOM     13  C   UNL d   1     -49.711  27.540  33.306  0.00  0.00     0.079 C 
BRANCH  13  14
ATOM     14  C   UNL d   1     -50.560  27.502  33.316  0.00  0.00     0.202 C 
ATOM     15  O   UNL d   1     -51.010  28.217  33.329  0.00  0.00    -0.286 OA
BRANCH  14  16
ATOM     16  C   UNL d   1     -50.949  26.757  33.314  0.00  0.00     0.043 A 
ATOM     17  C   UNL d   1     -51.794  26.715  33.312  0.00  0.00     0.049 A 
ATOM     18  C   UNL d   1     -52.184  25.958  33.309  0.00  0.00     0.234 A 
ATOM     19  O   UNL d   1     -53.035  25.917  33.307  0.00  0.00    -0.283 OA
ATOM     20  C   UNL d   1     -51.728  25.249  33.309  0.00  0.00     0.234 A 
ATOM     21  C   UNL d   1     -50.885  25.282  33.312  0.00  0.00     0.045 A 
ATOM     22  O   UNL d   1     -52.107  24.496  33.307  0.00  0.00    -0.283 OA
ATOM     23  C   UNL d   1     -50.496  26.039  33.314  0.00  0.00     0.007 A 
ENDBRANCH  14  16
ENDBRANCH  13  14
ENDBRANCH  12  13
ENDBRANCH   5  12
BRANCH   4  24
ATOM     24  C   UNL d   1     -47.423  30.370  35.806  0.00  0.00     0.004 A 
ATOM     25  C   UNL d   1     -47.676  30.452  36.565  0.00  0.00     0.000 A 
ATOM     26  C   UNL d   1     -47.160  30.701  37.142  0.00  0.00     0.000 A 
ATOM     27  C   UNL d   1     -46.393  30.868  36.959  0.00  0.00     0.000 A 
ATOM     28  C   UNL d   1     -46.141  30.782  36.178  0.00  0.00     0.000 A 
ATOM     29  C   UNL d   1     -46.657  30.536  35.619  0.00  0.00     0.000 A 
ENDBRANCH   4  24
TORSDOF 5
ENDMDL
