MODEL 1
REMARK VINA RESULT:      23.5      0.000      0.000
REMARK  5 active torsions:
REMARK  status: ('A' for Active; 'I' for Inactive)
REMARK    1  A    between atoms: S_2  and  C_1 
REMARK    2  A    between atoms: N_11  and  S_2 
REMARK    3  A    between atoms: C_14  and  N_11 
REMARK    4  A    between atoms: C_16  and  C_14 
REMARK    5  A    between atoms: C_15  and  C_16 
ROOT
ATOM      1  S   UNL d   1      14.069  12.068  -2.098  0.00  0.00     0.287 S 
ATOM      2  O   UNL d   1      13.397  11.802  -1.636  0.00  0.00    -0.198 OA
ATOM      3  O   UNL d   1      14.711  12.319  -2.556  0.00  0.00    -0.198 OA
ENDROOT
BRANCH   1   4
ATOM      4  C   UNL d   1      14.434  12.349  -1.405  0.00  0.00     0.125 A 
ATOM      5  C   UNL d   1      14.647  13.158  -1.337  0.00  0.00     0.121 A 
ATOM      6  N   UNL d   1      14.565  13.804  -1.861  0.00  0.00    -0.190 NA
ATOM      7  C   UNL d   1      15.009  13.420  -0.643  0.00  0.00     0.110 A 
ATOM      8  S   UNL d   1      14.884  14.455  -1.468  0.00  0.00     0.117 SA
ATOM      9  N   UNL d   1      15.156  14.221  -0.721  0.00  0.00    -0.190 NA
ATOM     10  C   UNL d   1      15.159  12.875  -0.016  0.00  0.00     0.021 A 
ATOM     11  C   UNL d   1      14.944  12.084  -0.099  0.00  0.00     0.002 A 
ATOM     12  C   UNL d   1      14.583  11.812  -0.786  0.00  0.00     0.015 A 
ENDBRANCH   1   4
BRANCH   1  13
ATOM     13  N   UNL d   1      13.691  11.781  -2.791  0.00  0.00    -0.157 NA
BRANCH  13  14
ATOM     14  C   UNL d   1      13.379  12.308  -3.362  0.00  0.00     0.112 C 
BRANCH  14  15
ATOM     15  C   UNL d   1      12.945  12.024  -4.006  0.00  0.00     0.021 C 
BRANCH  15  16
ATOM     16  C   UNL d   1      13.160  12.280  -4.781  0.00  0.00     0.002 A 
ATOM     17  C   UNL d   1      13.000  11.791  -5.432  0.00  0.00     0.000 A 
ATOM     18  C   UNL d   1      13.210  12.043  -6.178  0.00  0.00     0.000 A 
ATOM     19  C   UNL d   1      13.573  12.769  -6.278  0.00  0.00     0.000 A 
ATOM     20  C   UNL d   1      13.730  13.246  -5.646  0.00  0.00     0.000 A 
ATOM     21  C   UNL d   1      13.521  12.999  -4.893  0.00  0.00     0.000 A 
ENDBRANCH  15  16
ENDBRANCH  14  15
ENDBRANCH  13  14
ENDBRANCH   1  13
TORSDOF 5
ENDMDL
MODEL 2
REMARK VINA RESULT:      24.1      1.554      4.354
REMARK  5 active torsions:
REMARK  status: ('A' for Active; 'I' for Inactive)
REMARK    1  A    between atoms: S_2  and  C_1 
REMARK    2  A    between atoms: N_11  and  S_2 
REMARK    3  A    between atoms: C_14  and  N_11 
REMARK    4  A    between atoms: C_16  and  C_14 
REMARK    5  A    between atoms: C_15  and  C_16 
ROOT
ATOM      1  S   UNL d   1      13.424  12.308  -3.296  0.00  0.00     0.287 S 
ATOM      2  O   UNL d   1      13.062  12.842  -2.732  0.00  0.00    -0.198 OA
ATOM      3  O   UNL d   1      13.777  11.782  -3.829  0.00  0.00    -0.198 OA
ENDROOT
BRANCH   1   4
ATOM      4  C   UNL d   1      13.240  12.834  -3.913  0.00  0.00     0.125 A 
ATOM      5  C   UNL d   1      13.133  12.548  -4.695  0.00  0.00     0.121 A 
ATOM      6  N   UNL d   1      13.174  11.779  -5.020  0.00  0.00    -0.190 NA
ATOM      7  C   UNL d   1      12.951  13.084  -5.295  0.00  0.00     0.110 A 
ATOM      8  S   UNL d   1      13.013  11.865  -5.824  0.00  0.00     0.117 SA
ATOM      9  N   UNL d   1      12.876  12.665  -5.995  0.00  0.00    -0.190 NA
ATOM     10  C   UNL d   1      12.876  13.905  -5.118  0.00  0.00     0.021 A 
ATOM     11  C   UNL d   1      12.985  14.169  -4.345  0.00  0.00     0.002 A 
ATOM     12  C   UNL d   1      13.166  13.645  -3.738  0.00  0.00     0.015 A 
ENDBRANCH   1   4
BRANCH   1  13
ATOM     13  N   UNL d   1      13.605  11.783  -2.665  0.00  0.00    -0.157 NA
BRANCH  13  14
ATOM     14  C   UNL d   1      14.309  11.869  -2.221  0.00  0.00     0.112 C 
BRANCH  14  15
ATOM     15  C   UNL d   1      14.303  11.782  -1.398  0.00  0.00     0.021 C 
BRANCH  15  16
ATOM     16  C   UNL d   1      14.617  12.408  -0.925  0.00  0.00     0.002 A 
ATOM     17  C   UNL d   1      15.437  12.533  -0.906  0.00  0.00     0.000 A 
ATOM     18  C   UNL d   1      15.735  13.138  -0.448  0.00  0.00     0.000 A 
ATOM     19  C   UNL d   1      15.228  13.611  -0.015  0.00  0.00     0.000 A 
ATOM     20  C   UNL d   1      14.430  13.491  -0.032  0.00  0.00     0.000 A 
ATOM     21  C   UNL d   1      14.123  12.884  -0.491  0.00  0.00     0.000 A 
ENDBRANCH  15  16
ENDBRANCH  14  15
ENDBRANCH  13  14
ENDBRANCH   1  13
TORSDOF 5
ENDMDL
