MODEL 1
REMARK VINA RESULT:      52.5      0.000      0.000
REMARK  4 active torsions:
REMARK  status: ('A' for Active; 'I' for Inactive)
REMARK    1  A    between atoms: N_7  and  C_1 
REMARK    2  A    between atoms: C_8  and  C_4 
REMARK    3  A    between atoms: C_10  and  N_7 
REMARK    4  A    between atoms: C_12  and  C_8 
ROOT
ATOM      1  C   UNL d   1     -54.840-101.424 -42.765  0.00  0.00     0.184 A 
ATOM      2  N   UNL d   1     -54.894-100.701 -42.358  0.00  0.00    -0.129 NA
ATOM      3  N   UNL d   1     -55.010-100.000 -42.779  0.00  0.00    -0.147 NA
ATOM      4  C   UNL d   1     -55.073-100.011 -43.593  0.00  0.00     0.103 A 
ATOM      5  C   UNL d   1     -54.905-101.427 -43.584  0.00  0.00     0.039 A 
ATOM      6  C   UNL d   1     -55.021-100.725 -44.005  0.00  0.00     0.022 A 
ATOM      7  C   UNL d   1     -54.850-102.158 -43.985  0.00  0.00     0.003 A 
ATOM      8  C   UNL d   1     -55.084-100.745 -44.833  0.00  0.00     0.002 A 
ATOM      9  C   UNL d   1     -55.031-101.458 -45.225  0.00  0.00     0.000 A 
ATOM     10  C   UNL d   1     -54.914-102.161 -44.804  0.00  0.00     0.000 A 
ENDROOT
BRANCH   1  11
ATOM     11  N   UNL d   1     -54.725-102.117 -42.348  0.00  0.00    -0.225 NA
BRANCH  11  12
ATOM     12  C   UNL d   1     -54.854-102.141 -41.542  0.00  0.00     0.083 A 
ATOM     13  C   UNL d   1     -55.122-102.831 -41.184  0.00  0.00     0.020 A 
ATOM     14  C   UNL d   1     -55.250-102.851 -40.381  0.00  0.00     0.013 A 
ATOM     15  C   UNL d   1     -55.115-102.192 -39.912  0.00  0.00     0.058 A 
ATOM     16  C   UNL d   1     -54.845-101.498 -40.271  0.00  0.00     0.013 A 
ATOM     17 CL   UNL d   1     -55.238-102.199 -39.115  0.00  0.00    -0.082 Cl
ATOM     18  C   UNL d   1     -54.713-101.468 -41.087  0.00  0.00     0.020 A 
ENDBRANCH  11  12
ENDBRANCH   1  11
BRANCH   4  19
ATOM     19  C   UNL d   1     -55.190 -99.309 -44.015  0.00  0.00     0.021 C 
BRANCH  19  20
ATOM     20  C   UNL d   1     -55.943 -99.126 -44.312  0.00  0.00     0.005 A 
ATOM     21  C   UNL d   1     -56.033 -98.942 -45.102  0.00  0.00     0.021 A 
ATOM     22  C   UNL d   1     -56.780 -98.762 -45.391  0.00  0.00     0.099 A 
ATOM     23  N   UNL d   1     -57.431 -98.767 -44.889  0.00  0.00    -0.242 NA
ATOM     24  C   UNL d   1     -57.337 -98.952 -44.094  0.00  0.00     0.099 A 
ATOM     25  C   UNL d   1     -56.580 -99.134 -43.808  0.00  0.00     0.021 A 
ENDBRANCH  19  20
ENDBRANCH   4  19
TORSDOF 4
ENDMDL
