MODEL 1
REMARK VINA RESULT:      19.8      0.000      0.000
REMARK  1 active torsions:
REMARK  status: ('A' for Active; 'I' for Inactive)
REMARK    1  A    between atoms: C_14  and  C_6 
ROOT
ATOM      1  C   UNL d   1      14.472  13.082  -2.040  0.00  0.00     0.174 A 
ATOM      2  N   UNL d   1      14.420  12.768  -1.279  0.00  0.00    -0.250 N 
ATOM      3  C   UNL d   1      14.045  12.756  -2.672  0.00  0.00     0.061 A 
ATOM      4  C   UNL d   1      13.558  12.105  -2.536  0.00  0.00     0.115 A 
ATOM      5  N   UNL d   1      13.516  11.803  -1.772  0.00  0.00    -0.221 NA
ATOM      6  C   UNL d   1      13.933  12.116  -1.142  0.00  0.00     0.151 A 
ATOM      7  N   UNL d   1      15.026  13.759  -2.001  0.00  0.00    -0.128 NA
ATOM      8  C   UNL d   1      14.932  13.227  -0.732  0.00  0.00     0.228 A 
ATOM      9  S   UNL d   1      13.143  11.792  -3.160  0.00  0.00    -0.068 SA
ATOM     10  C   UNL d   1      13.677  12.745  -4.038  0.00  0.00     0.011 A 
ATOM     11  C   UNL d   1      13.190  12.093  -3.902  0.00  0.00     0.031 A 
ATOM     12  N   UNL d   1      15.293  13.834  -1.214  0.00  0.00    -0.117 NA
ATOM     13  S   UNL d   1      14.977  13.048  -0.014  0.00  0.00    -0.036 SA
ATOM     14  C   UNL d   1      13.725  13.059  -4.815  0.00  0.00     0.001 A 
ATOM     15  C   UNL d   1      12.769  11.780  -4.547  0.00  0.00     0.006 A 
ATOM     16  C   UNL d   1      13.302  12.734  -5.432  0.00  0.00     0.000 A 
ATOM     17  C   UNL d   1      12.815  12.082  -5.295  0.00  0.00     0.001 A 
ENDROOT
BRANCH   6  18
ATOM     18  C   UNL d   1      13.867  11.838  -0.543  0.00  0.00     0.037 C 
ATOM     19  C   UNL d   1      13.372  11.817  -0.107  0.00  0.00     0.003 C 
ENDBRANCH   6  18
TORSDOF 1
ENDMDL
