MODEL 1
REMARK VINA RESULT:      48.8      0.000      0.000
REMARK  9 active torsions:
REMARK  status: ('A' for Active; 'I' for Inactive)
REMARK       I    between atoms: C_2  and  N_1 
REMARK    1  A    between atoms: C_3  and  C_2 
REMARK    2  A    between atoms: C_15  and  C_4 
REMARK       I    between atoms: C_5  and  N_9 
REMARK    3  A    between atoms: C_6  and  C_5 
REMARK       I    between atoms: N_21  and  C_6 
REMARK    4  A    between atoms: N_9  and  C_15 
REMARK    5  A    between atoms: C_25  and  N_21 
REMARK    6  A    between atoms: N_23  and  C_26 
REMARK    7  A    between atoms: C_27  and  N_23 
REMARK    8  A    between atoms: C_28  and  N_23 
REMARK    9  A    between atoms: C_26  and  C_25 
ROOT
ATOM      1  N   UNL d   1      14.215  15.988  -4.113  0.00  0.00    -0.250 N 
ATOM      2  C   UNL d   1      14.059  16.198  -4.898  0.00  0.00     0.266 C 
ATOM      3  C   UNL d   1      14.055  15.262  -3.749  0.00  0.00     0.190 A 
ATOM      4  O   UNL d   1      13.704  15.648  -5.405  0.00  0.00    -0.267 OA
ATOM      5  O   UNL d   1      14.301  15.295  -2.967  0.00  0.00    -0.285 OA
ATOM      6  C   UNL d   1      14.565  16.468  -3.537  0.00  0.00     0.112 A 
ATOM      7  C   UNL d   1      14.617  16.042  -2.835  0.00  0.00     0.144 A 
ENDROOT
BRANCH   3   8
ATOM      8  C   UNL d   1      13.701  14.609  -4.126  0.00  0.00     0.146 C 
BRANCH   8   9
ATOM      9  N   UNL d   1      13.726  13.868  -3.766  0.00  0.00    -0.199 NA
ATOM     10  C   UNL d   1      13.303  13.244  -4.088  0.00  0.00     0.337 C 
ATOM     11  O   UNL d   1      12.849  13.349  -4.772  0.00  0.00    -0.260 OA
BRANCH  10  12
ATOM     12  C   UNL d   1      13.328  12.503  -3.728  0.00  0.00     0.337 C 
ATOM     13  O   UNL d   1      12.982  11.854  -4.096  0.00  0.00    -0.260 OA
ATOM     14  N   UNL d   1      13.699  12.415  -3.003  0.00  0.00    -0.201 NA
BRANCH  14  15
ATOM     15  C   UNL d   1      13.838  11.781  -2.479  0.00  0.00     0.121 C 
BRANCH  15  16
ATOM     16  C   UNL d   1      13.560  11.779  -1.705  0.00  0.00     0.101 C 
BRANCH  16  17
ATOM     17  N   UNL d   1      14.061  11.987  -1.089  0.00  0.00    -0.301 N 
BRANCH  17  18
ATOM     18  C   UNL d   1      14.817  12.259  -1.227  0.00  0.00     0.080 C 
ATOM     19  C   UNL d   1      15.202  12.763  -0.686  0.00  0.00     0.021 C 
ENDBRANCH  17  18
BRANCH  17  20
ATOM     20  C   UNL d   1      13.786  11.916  -0.295  0.00  0.00     0.080 C 
ATOM     21  C   UNL d   1      12.974  11.783  -0.150  0.00  0.00     0.021 C 
ENDBRANCH  17  20
ENDBRANCH  16  17
ENDBRANCH  15  16
ENDBRANCH  14  15
ENDBRANCH  10  12
ENDBRANCH   8   9
ENDBRANCH   3   8
BRANCH   2  22
ATOM     22  C   UNL d   1      14.260  16.954  -5.160  0.00  0.00     0.059 A 
ATOM     23  C   UNL d   1      13.724  17.426  -5.553  0.00  0.00     0.031 A 
ATOM     24  C   UNL d   1      13.925  18.182  -5.815  0.00  0.00     0.119 A 
ATOM     25  O   UNL d   1      13.510  18.768  -6.216  0.00  0.00    -0.300 OA
ATOM     26  C   UNL d   1      14.700  18.464  -5.671  0.00  0.00     0.119 A 
ATOM     27  C   UNL d   1      14.027  19.412  -6.320  0.00  0.00     0.304 A 
ATOM     28  O   UNL d   1      14.750  19.225  -5.988  0.00  0.00    -0.300 OA
ATOM     29  C   UNL d   1      15.250  17.994  -5.274  0.00  0.00     0.026 A 
ATOM     30  C   UNL d   1      15.034  17.240  -5.019  0.00  0.00     0.007 A 
ENDBRANCH   2  22
TORSDOF 9
ENDMDL
MODEL 2
REMARK VINA RESULT:      50.5      0.522      1.013
REMARK  9 active torsions:
REMARK  status: ('A' for Active; 'I' for Inactive)
REMARK       I    between atoms: C_2  and  N_1 
REMARK    1  A    between atoms: C_3  and  C_2 
REMARK    2  A    between atoms: C_15  and  C_4 
REMARK       I    between atoms: C_5  and  N_9 
REMARK    3  A    between atoms: C_6  and  C_5 
REMARK       I    between atoms: N_21  and  C_6 
REMARK    4  A    between atoms: N_9  and  C_15 
REMARK    5  A    between atoms: C_25  and  N_21 
REMARK    6  A    between atoms: N_23  and  C_26 
REMARK    7  A    between atoms: C_27  and  N_23 
REMARK    8  A    between atoms: C_28  and  N_23 
REMARK    9  A    between atoms: C_26  and  C_25 
ROOT
ATOM      1  N   UNL d   1      14.078  16.012  -4.423  0.00  0.00    -0.250 N 
ATOM      2  C   UNL d   1      13.826  16.163  -5.197  0.00  0.00     0.266 C 
ATOM      3  C   UNL d   1      14.088  15.281  -4.035  0.00  0.00     0.190 A 
ATOM      4  O   UNL d   1      13.546  15.539  -5.664  0.00  0.00    -0.267 OA
ATOM      5  O   UNL d   1      14.381  15.385  -3.276  0.00  0.00    -0.285 OA
ATOM      6  C   UNL d   1      14.371  16.567  -3.885  0.00  0.00     0.112 A 
ATOM      7  C   UNL d   1      14.557  16.183  -3.182  0.00  0.00     0.144 A 
ENDROOT
BRANCH   3   8
ATOM      8  C   UNL d   1      13.839  14.561  -4.371  0.00  0.00     0.146 C 
BRANCH   8   9
ATOM      9  N   UNL d   1      13.661  13.923  -3.881  0.00  0.00    -0.199 NA
ATOM     10  C   UNL d   1      13.568  13.174  -4.203  0.00  0.00     0.337 C 
ATOM     11  O   UNL d   1      13.652  13.052  -5.017  0.00  0.00    -0.260 OA
BRANCH  10  12
ATOM     12  C   UNL d   1      13.390  12.536  -3.713  0.00  0.00     0.337 C 
ATOM     13  O   UNL d   1      12.770  12.031  -3.903  0.00  0.00    -0.260 OA
ATOM     14  N   UNL d   1      13.833  12.407  -3.036  0.00  0.00    -0.201 NA
BRANCH  14  15
ATOM     15  C   UNL d   1      13.827  11.844  -2.420  0.00  0.00     0.121 C 
BRANCH  15  16
ATOM     16  C   UNL d   1      14.436  11.785  -1.870  0.00  0.00     0.101 C 
BRANCH  16  17
ATOM     17  N   UNL d   1      14.308  12.010  -1.091  0.00  0.00    -0.301 N 
BRANCH  17  18
ATOM     18  C   UNL d   1      13.562  12.184  -0.814  0.00  0.00     0.080 C 
ATOM     19  C   UNL d   1      13.350  12.047  -0.019  0.00  0.00     0.021 C 
ENDBRANCH  17  18
BRANCH  17  20
ATOM     20  C   UNL d   1      14.966  12.062  -0.566  0.00  0.00     0.080 C 
ATOM     21  C   UNL d   1      15.057  12.740  -0.086  0.00  0.00     0.021 C 
ENDBRANCH  17  20
ENDBRANCH  16  17
ENDBRANCH  15  16
ENDBRANCH  14  15
ENDBRANCH  10  12
ENDBRANCH   8   9
ENDBRANCH   3   8
BRANCH   2  22
ATOM     22  C   UNL d   1      13.859  16.934  -5.487  0.00  0.00     0.059 A 
ATOM     23  C   UNL d   1      14.405  17.472  -5.209  0.00  0.00     0.031 A 
ATOM     24  C   UNL d   1      14.437  18.243  -5.499  0.00  0.00     0.119 A 
ATOM     25  O   UNL d   1      14.916  18.890  -5.327  0.00  0.00    -0.300 OA
ATOM     26  C   UNL d   1      13.894  18.472  -6.093  0.00  0.00     0.119 A 
ATOM     27  C   UNL d   1      14.669  19.518  -5.814  0.00  0.00     0.304 A 
ATOM     28  O   UNL d   1      14.049  19.263  -6.279  0.00  0.00    -0.300 OA
ATOM     29  C   UNL d   1      13.338  17.936  -6.382  0.00  0.00     0.026 A 
ATOM     30  C   UNL d   1      13.318  17.168  -6.082  0.00  0.00     0.007 A 
ENDBRANCH   2  22
TORSDOF 9
ENDMDL
