MODEL 1
REMARK VINA RESULT:      -3.8      0.000      0.000
REMARK  5 active torsions:
REMARK  status: ('A' for Active; 'I' for Inactive)
REMARK    1  A    between atoms: C_8  and  N_1 
REMARK    2  A    between atoms: C_6  and  C_2 
REMARK    3  A    between atoms: C_9  and  C_6 
REMARK    4  A    between atoms: C_7  and  C_9 
REMARK    5  A    between atoms: C_14  and  C_8 
ROOT
ATOM      1  N   UNL d   1      58.521  -1.160  29.500  0.00  0.00    -0.289 N 
ATOM      2  C   UNL d   1      58.129  -0.818  30.135  0.00  0.00     0.148 A 
ATOM      3  N   UNL d   1      58.476  -0.054  30.267  0.00  0.00    -0.227 NA
ATOM      4  C   UNL d   1      59.111  -0.643  29.216  0.00  0.00     0.083 A 
ATOM      5  C   UNL d   1      59.059   0.048  29.719  0.00  0.00     0.099 A 
ATOM      6  C   UNL d   1      59.660  -0.697  28.604  0.00  0.00     0.019 A 
ATOM      7  C   UNL d   1      59.603   0.682  29.560  0.00  0.00     0.021 A 
ATOM      8  C   UNL d   1      60.159  -0.086  28.476  0.00  0.00     0.002 A 
ATOM      9  C   UNL d   1      60.131   0.592  28.947  0.00  0.00     0.002 A 
ENDROOT
BRANCH   1  10
ATOM     10  C   UNL d   1      58.235  -1.892  29.325  0.00  0.00     0.082 C 
BRANCH  10  11
ATOM     11  C   UNL d   1      58.763  -2.506  29.218  0.00  0.00     0.018 A 
ATOM     12  C   UNL d   1      59.390  -2.612  29.743  0.00  0.00     0.002 A 
ATOM     13  C   UNL d   1      59.930  -3.257  29.616  0.00  0.00     0.000 A 
ATOM     14  C   UNL d   1      59.833  -3.772  28.979  0.00  0.00     0.000 A 
ATOM     15  C   UNL d   1      59.206  -3.667  28.455  0.00  0.00     0.000 A 
ATOM     16  C   UNL d   1      60.357  -4.374  28.881  0.00  0.00     0.000 C 
ATOM     17  C   UNL d   1      58.675  -3.046  28.566  0.00  0.00     0.002 A 
ENDBRANCH  10  11
ENDBRANCH   1  10
BRANCH   2  18
ATOM     18  C   UNL d   1      57.526  -0.953  30.682  0.00  0.00     0.039 C 
BRANCH  18  19
ATOM     19  C   UNL d   1      57.447  -0.459  31.328  0.00  0.00     0.028 C 
BRANCH  19  20
ATOM     20  C   UNL d   1      56.876  -0.622  31.904  0.00  0.00     0.100 A 
ATOM     21  O   UNL d   1      56.590  -1.365  32.121  0.00  0.00    -0.305 OA
ATOM     22  C   UNL d   1      56.028  -1.254  32.717  0.00  0.00     0.123 A 
ATOM     23  C   UNL d   1      55.959  -0.448  32.877  0.00  0.00     0.029 A 
ATOM     24  C   UNL d   1      56.495  -0.060  32.362  0.00  0.00     0.027 A 
ENDBRANCH  19  20
ENDBRANCH  18  19
ENDBRANCH   2  18
TORSDOF 5
ENDMDL
MODEL 2
REMARK VINA RESULT:      -3.4      1.293      1.999
REMARK  5 active torsions:
REMARK  status: ('A' for Active; 'I' for Inactive)
REMARK    1  A    between atoms: C_8  and  N_1 
REMARK    2  A    between atoms: C_6  and  C_2 
REMARK    3  A    between atoms: C_9  and  C_6 
REMARK    4  A    between atoms: C_7  and  C_9 
REMARK    5  A    between atoms: C_14  and  C_8 
ROOT
ATOM      1  N   UNL d   1      58.812   0.292  30.771  0.00  0.00    -0.289 N 
ATOM      2  C   UNL d   1      58.361   0.385  31.450  0.00  0.00     0.148 A 
ATOM      3  N   UNL d   1      58.894   0.550  32.089  0.00  0.00    -0.227 NA
ATOM      4  C   UNL d   1      59.621   0.391  30.949  0.00  0.00     0.083 A 
ATOM      5  C   UNL d   1      59.644   0.552  31.789  0.00  0.00     0.099 A 
ATOM      6  C   UNL d   1      60.306   0.359  30.492  0.00  0.00     0.019 A 
ATOM      7  C   UNL d   1      60.409   0.680  32.137  0.00  0.00     0.021 A 
ATOM      8  C   UNL d   1      61.013   0.483  30.844  0.00  0.00     0.002 A 
ATOM      9  C   UNL d   1      61.064   0.640  31.653  0.00  0.00     0.002 A 
ENDROOT
BRANCH   1  10
ATOM     10  C   UNL d   1      58.359   0.133  30.124  0.00  0.00     0.082 C 
BRANCH  10  11
ATOM     11  C   UNL d   1      58.481  -0.567  29.720  0.00  0.00     0.018 A 
ATOM     12  C   UNL d   1      58.188  -1.277  30.018  0.00  0.00     0.002 A 
ATOM     13  C   UNL d   1      58.325  -1.995  29.583  0.00  0.00     0.000 A 
ATOM     14  C   UNL d   1      58.746  -1.988  28.874  0.00  0.00     0.000 A 
ATOM     15  C   UNL d   1      59.039  -1.278  28.576  0.00  0.00     0.000 A 
ATOM     16  C   UNL d   1      58.862  -2.680  28.482  0.00  0.00     0.000 C 
ATOM     17  C   UNL d   1      58.913  -0.574  28.987  0.00  0.00     0.002 A 
ENDBRANCH  10  11
ENDBRANCH   1  10
BRANCH   2  18
ATOM     18  C   UNL d   1      57.583   0.375  31.726  0.00  0.00     0.039 C 
BRANCH  18  19
ATOM     19  C   UNL d   1      57.439   0.303  32.527  0.00  0.00     0.028 C 
BRANCH  19  20
ATOM     20  C   UNL d   1      56.676   0.128  32.794  0.00  0.00     0.100 A 
ATOM     21  O   UNL d   1      56.322  -0.617  32.827  0.00  0.00    -0.305 OA
ATOM     22  C   UNL d   1      55.560  -0.521  33.131  0.00  0.00     0.123 A 
ATOM     23  C   UNL d   1      55.432   0.278  33.290  0.00  0.00     0.029 A 
ATOM     24  C   UNL d   1      56.137   0.676  33.075  0.00  0.00     0.027 A 
ENDBRANCH  19  20
ENDBRANCH  18  19
ENDBRANCH   2  18
TORSDOF 5
ENDMDL
