MODEL 1
REMARK VINA RESULT:      -7.7      0.000      0.000
REMARK  3 active torsions:
REMARK  status: ('A' for Active; 'I' for Inactive)
REMARK    1  A    between atoms: C_6  and  C_16 
REMARK    2  A    between atoms: S_14  and  C_8 
REMARK    3  A    between atoms: C_16  and  S_14 
ROOT
ATOM      1  C   UNL d   1     -48.365  13.040  23.180  0.00  0.00     0.141 A 
ATOM      2  O   UNL d   1     -47.997  13.759  23.010  0.00  0.00    -0.303 OA
ATOM      3  C   UNL d   1     -49.181  13.158  23.149  0.00  0.00     0.110 A 
ATOM      4  C   UNL d   1     -49.317  13.950  22.959  0.00  0.00     0.043 A 
ATOM      5  C   UNL d   1     -48.063  12.292  23.359  0.00  0.00     0.137 A 
ATOM      6  C   UNL d   1     -48.586  14.320  22.874  0.00  0.00     0.102 A 
ATOM      7  N   UNL d   1     -48.578  11.664  23.507  0.00  0.00    -0.215 NA
ATOM      8  N   UNL d   1     -49.696  12.530  23.297  0.00  0.00    -0.222 NA
ATOM      9  C   UNL d   1     -49.393  11.782  23.476  0.00  0.00     0.200 A 
ATOM     10  C   UNL d   1     -50.013  14.380  22.854  0.00  0.00     0.004 A 
ATOM     11  C   UNL d   1     -48.549  15.123  22.682  0.00  0.00     0.025 A 
ATOM     12  C   UNL d   1     -49.977  15.183  22.663  0.00  0.00     0.000 A 
ATOM     13  C   UNL d   1     -49.245  15.554  22.577  0.00  0.00     0.002 A 
ENDROOT
BRANCH   5  14
ATOM     14  S   UNL d   1     -47.246  12.174  23.390  0.00  0.00    -0.062 SA
BRANCH  14  15
ATOM     15  C   UNL d   1     -46.944  11.448  23.640  0.00  0.00     0.076 C 
BRANCH  15  16
ATOM     16  C   UNL d   1     -46.148  11.271  23.519  0.00  0.00     0.169 A 
ATOM     17  N   UNL d   1     -45.580  11.777  23.200  0.00  0.00    -0.225 NA
ATOM     18  C   UNL d   1     -44.861  11.376  23.180  0.00  0.00     0.101 A 
ATOM     19  C   UNL d   1     -44.109  11.599  22.922  0.00  0.00     0.021 A 
ATOM     20  C   UNL d   1     -44.983  10.619  23.487  0.00  0.00     0.101 A 
ATOM     21  C   UNL d   1     -43.481  11.066  22.972  0.00  0.00     0.002 A 
ATOM     22  C   UNL d   1     -43.603  10.311  23.278  0.00  0.00     0.002 A 
ATOM     23  C   UNL d   1     -44.354  10.088  23.536  0.00  0.00     0.021 A 
ATOM     24  N   UNL d   1     -45.778  10.555  23.696  0.00  0.00    -0.225 NA
ENDBRANCH  15  16
ENDBRANCH  14  15
ENDBRANCH   5  14
TORSDOF 3
ENDMDL
MODEL 2
REMARK VINA RESULT:      -7.3      1.439      5.269
REMARK  3 active torsions:
REMARK  status: ('A' for Active; 'I' for Inactive)
REMARK    1  A    between atoms: C_6  and  C_16 
REMARK    2  A    between atoms: S_14  and  C_8 
REMARK    3  A    between atoms: C_16  and  S_14 
ROOT
ATOM      1  C   UNL d   1     -45.806  12.189  22.949  0.00  0.00     0.141 A 
ATOM      2  O   UNL d   1     -45.995  11.483  23.333  0.00  0.00    -0.303 OA
ATOM      3  C   UNL d   1     -45.004  12.170  22.759  0.00  0.00     0.110 A 
ATOM      4  C   UNL d   1     -44.697  11.452  23.024  0.00  0.00     0.043 A 
ATOM      5  C   UNL d   1     -46.262  12.849  22.749  0.00  0.00     0.137 A 
ATOM      6  C   UNL d   1     -45.309  11.028  23.378  0.00  0.00     0.102 A 
ATOM      7  N   UNL d   1     -45.914  13.487  22.358  0.00  0.00    -0.215 NA
ATOM      8  N   UNL d   1     -44.656  12.808  22.368  0.00  0.00    -0.222 NA
ATOM      9  C   UNL d   1     -45.112  13.467  22.168  0.00  0.00     0.200 A 
ATOM     10  C   UNL d   1     -43.938  11.130  22.989  0.00  0.00     0.004 A 
ATOM     11  C   UNL d   1     -45.162  10.281  23.698  0.00  0.00     0.025 A 
ATOM     12  C   UNL d   1     -43.791  10.382  23.308  0.00  0.00     0.000 A 
ATOM     13  C   UNL d   1     -44.404   9.958  23.663  0.00  0.00     0.002 A 
ENDROOT
BRANCH   5  14
ATOM     14  S   UNL d   1     -47.065  12.868  22.939  0.00  0.00    -0.062 SA
BRANCH  14  15
ATOM     15  C   UNL d   1     -47.555  13.438  22.599  0.00  0.00     0.076 C 
BRANCH  15  16
ATOM     16  C   UNL d   1     -48.374  13.344  22.625  0.00  0.00     0.169 A 
ATOM     17  N   UNL d   1     -48.873  13.241  21.975  0.00  0.00    -0.225 NA
ATOM     18  C   UNL d   1     -49.645  13.169  22.253  0.00  0.00     0.101 A 
ATOM     19  C   UNL d   1     -50.365  13.059  21.866  0.00  0.00     0.021 A 
ATOM     20  C   UNL d   1     -49.626  13.227  23.077  0.00  0.00     0.101 A 
ATOM     21  C   UNL d   1     -51.064  13.005  22.300  0.00  0.00     0.002 A 
ATOM     22  C   UNL d   1     -51.045  13.063  23.121  0.00  0.00     0.002 A 
ATOM     23  C   UNL d   1     -50.325  13.173  23.510  0.00  0.00     0.021 A 
ATOM     24  N   UNL d   1     -48.841  13.334  23.306  0.00  0.00    -0.225 NA
ENDBRANCH  15  16
ENDBRANCH  14  15
ENDBRANCH   5  14
TORSDOF 3
ENDMDL
MODEL 3
REMARK VINA RESULT:      -7.1      1.085      1.386
REMARK  3 active torsions:
REMARK  status: ('A' for Active; 'I' for Inactive)
REMARK    1  A    between atoms: C_6  and  C_16 
REMARK    2  A    between atoms: S_14  and  C_8 
REMARK    3  A    between atoms: C_16  and  S_14 
ROOT
ATOM      1  C   UNL d   1     -48.529  13.466  23.126  0.00  0.00     0.141 A 
ATOM      2  O   UNL d   1     -48.480  14.259  22.900  0.00  0.00    -0.303 OA
ATOM      3  C   UNL d   1     -49.296  13.324  23.392  0.00  0.00     0.110 A 
ATOM      4  C   UNL d   1     -49.722  14.028  23.331  0.00  0.00     0.043 A 
ATOM      5  C   UNL d   1     -47.973  12.855  23.123  0.00  0.00     0.137 A 
ATOM      6  C   UNL d   1     -49.218  14.605  23.028  0.00  0.00     0.102 A 
ATOM      7  N   UNL d   1     -48.187  12.103  23.387  0.00  0.00    -0.215 NA
ATOM      8  N   UNL d   1     -49.510  12.572  23.656  0.00  0.00    -0.222 NA
ATOM      9  C   UNL d   1     -48.954  11.960  23.653  0.00  0.00     0.200 A 
ATOM     10  C   UNL d   1     -50.505  14.217  23.514  0.00  0.00     0.004 A 
ATOM     11  C   UNL d   1     -49.495  15.373  22.906  0.00  0.00     0.025 A 
ATOM     12  C   UNL d   1     -50.782  14.986  23.392  0.00  0.00     0.000 A 
ATOM     13  C   UNL d   1     -50.277  15.564  23.088  0.00  0.00     0.002 A 
ENDROOT
BRANCH   5  14
ATOM     14  S   UNL d   1     -47.205  12.997  22.857  0.00  0.00    -0.062 SA
BRANCH  14  15
ATOM     15  C   UNL d   1     -46.565  12.636  23.232  0.00  0.00     0.076 C 
BRANCH  15  16
ATOM     16  C   UNL d   1     -45.829  12.616  22.860  0.00  0.00     0.169 A 
ATOM     17  N   UNL d   1     -45.563  13.137  22.278  0.00  0.00    -0.225 NA
ATOM     18  C   UNL d   1     -44.799  12.914  22.064  0.00  0.00     0.101 A 
ATOM     19  C   UNL d   1     -44.265  13.226  21.519  0.00  0.00     0.021 A 
ATOM     20  C   UNL d   1     -44.591  12.254  22.513  0.00  0.00     0.101 A 
ATOM     21  C   UNL d   1     -43.523  12.877  21.422  0.00  0.00     0.002 A 
ATOM     22  C   UNL d   1     -43.315  12.219  21.870  0.00  0.00     0.002 A 
ATOM     23  C   UNL d   1     -43.850  11.906  22.416  0.00  0.00     0.021 A 
ATOM     24  N   UNL d   1     -45.227  12.070  23.005  0.00  0.00    -0.225 NA
ENDBRANCH  15  16
ENDBRANCH  14  15
ENDBRANCH   5  14
TORSDOF 3
ENDMDL
MODEL 4
REMARK VINA RESULT:      -6.8      1.290      5.098
REMARK  3 active torsions:
REMARK  status: ('A' for Active; 'I' for Inactive)
REMARK    1  A    between atoms: C_6  and  C_16 
REMARK    2  A    between atoms: S_14  and  C_8 
REMARK    3  A    between atoms: C_16  and  S_14 
ROOT
ATOM      1  C   UNL d   1     -45.750  12.563  22.691  0.00  0.00     0.141 A 
ATOM      2  O   UNL d   1     -45.478  13.140  22.168  0.00  0.00    -0.303 OA
ATOM      3  C   UNL d   1     -45.142  12.018  22.808  0.00  0.00     0.110 A 
ATOM      4  C   UNL d   1     -44.494  12.258  22.357  0.00  0.00     0.043 A 
ATOM      5  C   UNL d   1     -46.473  12.463  23.077  0.00  0.00     0.137 A 
ATOM      6  C   UNL d   1     -44.702  12.951  21.962  0.00  0.00     0.102 A 
ATOM      7  N   UNL d   1     -46.587  11.818  23.579  0.00  0.00    -0.215 NA
ATOM      8  N   UNL d   1     -45.255  11.373  23.310  0.00  0.00    -0.222 NA
ATOM      9  C   UNL d   1     -45.979  11.273  23.696  0.00  0.00     0.200 A 
ATOM     10  C   UNL d   1     -43.741  11.935  22.256  0.00  0.00     0.004 A 
ATOM     11  C   UNL d   1     -44.157  13.322  21.464  0.00  0.00     0.025 A 
ATOM     12  C   UNL d   1     -43.196  12.306  21.758  0.00  0.00     0.000 A 
ATOM     13  C   UNL d   1     -43.404  13.000  21.362  0.00  0.00     0.002 A 
ENDROOT
BRANCH   5  14
ATOM     14  S   UNL d   1     -47.082  13.008  22.960  0.00  0.00    -0.062 SA
BRANCH  14  15
ATOM     15  C   UNL d   1     -47.842  12.843  23.235  0.00  0.00     0.076 C 
BRANCH  15  16
ATOM     16  C   UNL d   1     -48.460  13.364  23.073  0.00  0.00     0.169 A 
ATOM     17  N   UNL d   1     -48.542  14.130  23.370  0.00  0.00    -0.225 NA
ATOM     18  C   UNL d   1     -49.238  14.450  23.066  0.00  0.00     0.101 A 
ATOM     19  C   UNL d   1     -49.599  15.184  23.167  0.00  0.00     0.021 A 
ATOM     20  C   UNL d   1     -49.588  13.883  22.579  0.00  0.00     0.101 A 
ATOM     21  C   UNL d   1     -50.310  15.351  22.783  0.00  0.00     0.002 A 
ATOM     22  C   UNL d   1     -50.659  14.785  22.297  0.00  0.00     0.002 A 
ATOM     23  C   UNL d   1     -50.298  14.050  22.195  0.00  0.00     0.021 A 
ATOM     24  N   UNL d   1     -49.107  13.212  22.584  0.00  0.00    -0.225 NA
ENDBRANCH  15  16
ENDBRANCH  14  15
ENDBRANCH   5  14
TORSDOF 3
ENDMDL
MODEL 5
REMARK VINA RESULT:      -6.4      7.929     10.049
REMARK  3 active torsions:
REMARK  status: ('A' for Active; 'I' for Inactive)
REMARK    1  A    between atoms: C_6  and  C_16 
REMARK    2  A    between atoms: S_14  and  C_8 
REMARK    3  A    between atoms: C_16  and  S_14 
ROOT
ATOM      1  C   UNL d   1     -39.337  14.187  20.462  0.00  0.00     0.141 A 
ATOM      2  O   UNL d   1     -38.598  13.845  20.596  0.00  0.00    -0.303 OA
ATOM      3  C   UNL d   1     -39.738  14.218  21.182  0.00  0.00     0.110 A 
ATOM      4  C   UNL d   1     -39.247  13.896  21.762  0.00  0.00     0.043 A 
ATOM      5  C   UNL d   1     -39.698  14.474  19.776  0.00  0.00     0.137 A 
ATOM      6  C   UNL d   1     -38.543  13.666  21.400  0.00  0.00     0.102 A 
ATOM      7  N   UNL d   1     -40.459  14.791  19.813  0.00  0.00    -0.215 NA
ATOM      8  N   UNL d   1     -40.499  14.536  21.219  0.00  0.00    -0.222 NA
ATOM      9  C   UNL d   1     -40.859  14.822  20.533  0.00  0.00     0.200 A 
ATOM     10  C   UNL d   1     -39.351  13.783  22.573  0.00  0.00     0.004 A 
ATOM     11  C   UNL d   1     -37.941  13.322  21.849  0.00  0.00     0.025 A 
ATOM     12  C   UNL d   1     -38.749  13.439  23.022  0.00  0.00     0.000 A 
ATOM     13  C   UNL d   1     -38.043  13.209  22.659  0.00  0.00     0.002 A 
ENDROOT
BRANCH   5  14
ATOM     14  S   UNL d   1     -39.296  14.442  19.056  0.00  0.00    -0.062 SA
BRANCH  14  15
ATOM     15  C   UNL d   1     -39.698  14.602  18.353  0.00  0.00     0.076 C 
BRANCH  15  16
ATOM     16  C   UNL d   1     -39.291  14.595  17.636  0.00  0.00     0.169 A 
ATOM     17  N   UNL d   1     -39.080  13.925  17.203  0.00  0.00    -0.225 NA
ATOM     18  C   UNL d   1     -38.682  14.172  16.525  0.00  0.00     0.101 A 
ATOM     19  C   UNL d   1     -38.347  13.755  15.897  0.00  0.00     0.021 A 
ATOM     20  C   UNL d   1     -38.645  14.997  16.538  0.00  0.00     0.101 A 
ATOM     21  C   UNL d   1     -37.976  14.162  15.282  0.00  0.00     0.002 A 
ATOM     22  C   UNL d   1     -37.940  14.984  15.295  0.00  0.00     0.002 A 
ATOM     23  C   UNL d   1     -38.274  15.402  15.924  0.00  0.00     0.021 A 
ATOM     24  N   UNL d   1     -39.021  15.257  17.224  0.00  0.00    -0.225 NA
ENDBRANCH  15  16
ENDBRANCH  14  15
ENDBRANCH   5  14
TORSDOF 3
ENDMDL
MODEL 6
REMARK VINA RESULT:      -6.3      8.564      9.774
REMARK  3 active torsions:
REMARK  status: ('A' for Active; 'I' for Inactive)
REMARK    1  A    between atoms: C_6  and  C_16 
REMARK    2  A    between atoms: S_14  and  C_8 
REMARK    3  A    between atoms: C_16  and  S_14 
ROOT
ATOM      1  C   UNL d   1     -39.358  14.386  18.342  0.00  0.00     0.141 A 
ATOM      2  O   UNL d   1     -38.722  13.868  18.254  0.00  0.00    -0.303 OA
ATOM      3  C   UNL d   1     -39.581  14.647  17.592  0.00  0.00     0.110 A 
ATOM      4  C   UNL d   1     -39.082  14.290  17.040  0.00  0.00     0.043 A 
ATOM      5  C   UNL d   1     -39.765  14.654  19.010  0.00  0.00     0.137 A 
ATOM      6  C   UNL d   1     -38.552  13.809  17.449  0.00  0.00     0.102 A 
ATOM      7  N   UNL d   1     -40.392  15.183  18.925  0.00  0.00    -0.215 NA
ATOM      8  N   UNL d   1     -40.209  15.176  17.508  0.00  0.00    -0.222 NA
ATOM      9  C   UNL d   1     -40.615  15.444  18.176  0.00  0.00     0.200 A 
ATOM     10  C   UNL d   1     -39.043  14.342  16.217  0.00  0.00     0.004 A 
ATOM     11  C   UNL d   1     -37.981  13.379  17.035  0.00  0.00     0.025 A 
ATOM     12  C   UNL d   1     -38.472  13.912  15.803  0.00  0.00     0.000 A 
ATOM     13  C   UNL d   1     -37.941  13.430  16.213  0.00  0.00     0.002 A 
ENDROOT
BRANCH   5  14
ATOM     14  S   UNL d   1     -39.542  14.392  19.761  0.00  0.00    -0.062 SA
BRANCH  14  15
ATOM     15  C   UNL d   1     -39.871  14.740  20.432  0.00  0.00     0.076 C 
BRANCH  15  16
ATOM     16  C   UNL d   1     -39.557  14.574  21.177  0.00  0.00     0.169 A 
ATOM     17  N   UNL d   1     -39.482  13.827  21.518  0.00  0.00    -0.225 NA
ATOM     18  C   UNL d   1     -39.142  13.918  22.263  0.00  0.00     0.101 A 
ATOM     19  C   UNL d   1     -38.938  13.373  22.848  0.00  0.00     0.021 A 
ATOM     20  C   UNL d   1     -39.004  14.723  22.384  0.00  0.00     0.101 A 
ATOM     21  C   UNL d   1     -38.597  13.633  23.553  0.00  0.00     0.002 A 
ATOM     22  C   UNL d   1     -38.460  14.436  23.674  0.00  0.00     0.002 A 
ATOM     23  C   UNL d   1     -38.664  14.982  23.089  0.00  0.00     0.021 A 
ATOM     24  N   UNL d   1     -39.261  15.128  21.713  0.00  0.00    -0.225 NA
ENDBRANCH  15  16
ENDBRANCH  14  15
ENDBRANCH   5  14
TORSDOF 3
ENDMDL
MODEL 7
REMARK VINA RESULT:      -6.1      8.641      9.373
REMARK  3 active torsions:
REMARK  status: ('A' for Active; 'I' for Inactive)
REMARK    1  A    between atoms: C_6  and  C_16 
REMARK    2  A    between atoms: S_14  and  C_8 
REMARK    3  A    between atoms: C_16  and  S_14 
ROOT
ATOM      1  C   UNL d   1     -39.608  14.598  18.436  0.00  0.00     0.141 A 
ATOM      2  O   UNL d   1     -40.225  15.104  18.649  0.00  0.00    -0.303 OA
ATOM      3  C   UNL d   1     -39.628  14.502  17.618  0.00  0.00     0.110 A 
ATOM      4  C   UNL d   1     -40.258  14.948  17.324  0.00  0.00     0.043 A 
ATOM      5  C   UNL d   1     -39.030  14.213  18.883  0.00  0.00     0.137 A 
ATOM      6  C   UNL d   1     -40.626  15.319  17.961  0.00  0.00     0.102 A 
ATOM      7  N   UNL d   1     -38.473  13.733  18.509  0.00  0.00    -0.215 NA
ATOM      8  N   UNL d   1     -39.071  14.022  17.244  0.00  0.00    -0.222 NA
ATOM      9  C   UNL d   1     -38.493  13.636  17.691  0.00  0.00     0.200 A 
ATOM     10  C   UNL d   1     -40.542  15.063  16.558  0.00  0.00     0.004 A 
ATOM     11  C   UNL d   1     -41.280  15.806  17.833  0.00  0.00     0.025 A 
ATOM     12  C   UNL d   1     -41.197  15.550  16.430  0.00  0.00     0.000 A 
ATOM     13  C   UNL d   1     -41.566  15.922  17.068  0.00  0.00     0.002 A 
ENDROOT
BRANCH   5  14
ATOM     14  S   UNL d   1     -39.010  14.309  19.703  0.00  0.00    -0.062 SA
BRANCH  14  15
ATOM     15  C   UNL d   1     -38.470  13.880  20.155  0.00  0.00     0.076 C 
BRANCH  15  16
ATOM     16  C   UNL d   1     -38.477  13.947  20.977  0.00  0.00     0.169 A 
ATOM     17  N   UNL d   1     -38.282  14.620  21.413  0.00  0.00    -0.225 NA
ATOM     18  C   UNL d   1     -38.366  14.440  22.213  0.00  0.00     0.101 A 
ATOM     19  C   UNL d   1     -38.249  14.889  22.895  0.00  0.00     0.021 A 
ATOM     20  C   UNL d   1     -38.613  13.655  22.274  0.00  0.00     0.101 A 
ATOM     21  C   UNL d   1     -38.380  14.553  23.638  0.00  0.00     0.002 A 
ATOM     22  C   UNL d   1     -38.627  13.770  23.698  0.00  0.00     0.002 A 
ATOM     23  C   UNL d   1     -38.744  13.320  23.015  0.00  0.00     0.021 A 
ATOM     24  N   UNL d   1     -38.682  13.351  21.510  0.00  0.00    -0.225 NA
ENDBRANCH  15  16
ENDBRANCH  14  15
ENDBRANCH   5  14
TORSDOF 3
ENDMDL
MODEL 8
REMARK VINA RESULT:      -6.1      1.278      4.874
REMARK  3 active torsions:
REMARK  status: ('A' for Active; 'I' for Inactive)
REMARK    1  A    between atoms: C_6  and  C_16 
REMARK    2  A    between atoms: S_14  and  C_8 
REMARK    3  A    between atoms: C_16  and  S_14 
ROOT
ATOM      1  C   UNL d   1     -45.369  11.998  22.793  0.00  0.00     0.141 A 
ATOM      2  O   UNL d   1     -45.374  12.659  22.298  0.00  0.00    -0.303 OA
ATOM      3  C   UNL d   1     -44.608  11.682  22.788  0.00  0.00     0.110 A 
ATOM      4  C   UNL d   1     -44.142  12.146  22.290  0.00  0.00     0.043 A 
ATOM      5  C   UNL d   1     -45.961  11.644  23.249  0.00  0.00     0.137 A 
ATOM      6  C   UNL d   1     -44.615  12.749  21.988  0.00  0.00     0.102 A 
ATOM      7  N   UNL d   1     -45.789  10.974  23.698  0.00  0.00    -0.215 NA
ATOM      8  N   UNL d   1     -44.436  11.011  23.238  0.00  0.00    -0.222 NA
ATOM      9  C   UNL d   1     -45.028  10.657  23.693  0.00  0.00     0.200 A 
ATOM     10  C   UNL d   1     -43.347  12.096  22.074  0.00  0.00     0.004 A 
ATOM     11  C   UNL d   1     -44.294  13.304  21.467  0.00  0.00     0.025 A 
ATOM     12  C   UNL d   1     -43.026  12.652  21.553  0.00  0.00     0.000 A 
ATOM     13  C   UNL d   1     -43.500  13.256  21.250  0.00  0.00     0.002 A 
ENDROOT
BRANCH   5  14
ATOM     14  S   UNL d   1     -46.723  11.961  23.253  0.00  0.00    -0.062 SA
BRANCH  14  15
ATOM     15  C   UNL d   1     -47.367  11.484  23.449  0.00  0.00     0.076 C 
BRANCH  15  16
ATOM     16  C   UNL d   1     -48.131  11.790  23.412  0.00  0.00     0.169 A 
ATOM     17  N   UNL d   1     -48.337  12.565  23.218  0.00  0.00    -0.225 NA
ATOM     18  C   UNL d   1     -49.158  12.629  23.249  0.00  0.00     0.101 A 
ATOM     19  C   UNL d   1     -49.669  13.261  23.111  0.00  0.00     0.021 A 
ATOM     20  C   UNL d   1     -49.463  11.892  23.463  0.00  0.00     0.101 A 
ATOM     21  C   UNL d   1     -50.485  13.157  23.186  0.00  0.00     0.002 A 
ATOM     22  C   UNL d   1     -50.788  12.422  23.400  0.00  0.00     0.002 A 
ATOM     23  C   UNL d   1     -50.277  11.789  23.538  0.00  0.00     0.021 A 
ATOM     24  N   UNL d   1     -48.828  11.374  23.564  0.00  0.00    -0.225 NA
ENDBRANCH  15  16
ENDBRANCH  14  15
ENDBRANCH   5  14
TORSDOF 3
ENDMDL
MODEL 9
REMARK VINA RESULT:      -5.1      3.636      4.983
REMARK  3 active torsions:
REMARK  status: ('A' for Active; 'I' for Inactive)
REMARK    1  A    between atoms: C_6  and  C_16 
REMARK    2  A    between atoms: S_14  and  C_8 
REMARK    3  A    between atoms: C_16  and  S_14 
ROOT
ATOM      1  C   UNL d   1     -44.478  12.861  22.116  0.00  0.00     0.141 A 
ATOM      2  O   UNL d   1     -44.923  13.530  21.927  0.00  0.00    -0.303 OA
ATOM      3  C   UNL d   1     -44.929  12.391  22.622  0.00  0.00     0.110 A 
ATOM      4  C   UNL d   1     -45.652  12.768  22.746  0.00  0.00     0.043 A 
ATOM      5  C   UNL d   1     -43.720  12.619  21.893  0.00  0.00     0.137 A 
ATOM      6  C   UNL d   1     -45.648  13.472  22.316  0.00  0.00     0.102 A 
ATOM      7  N   UNL d   1     -43.415  11.907  22.177  0.00  0.00    -0.215 NA
ATOM      8  N   UNL d   1     -44.624  11.678  22.906  0.00  0.00    -0.222 NA
ATOM      9  C   UNL d   1     -43.866  11.436  22.683  0.00  0.00     0.200 A 
ATOM     10  C   UNL d   1     -46.313  12.562  23.194  0.00  0.00     0.004 A 
ATOM     11  C   UNL d   1     -46.306  13.971  22.334  0.00  0.00     0.025 A 
ATOM     12  C   UNL d   1     -46.971  13.060  23.212  0.00  0.00     0.000 A 
ATOM     13  C   UNL d   1     -46.967  13.765  22.782  0.00  0.00     0.002 A 
ENDROOT
BRANCH   5  14
ATOM     14  S   UNL d   1     -43.270  13.090  21.387  0.00  0.00    -0.062 SA
BRANCH  14  15
ATOM     15  C   UNL d   1     -42.458  12.960  21.317  0.00  0.00     0.076 C 
BRANCH  15  16
ATOM     16  C   UNL d   1     -41.980  13.529  20.960  0.00  0.00     0.169 A 
ATOM     17  N   UNL d   1     -41.707  14.225  21.310  0.00  0.00    -0.225 NA
ATOM     18  C   UNL d   1     -41.250  14.628  20.756  0.00  0.00     0.101 A 
ATOM     19  C   UNL d   1     -40.841  15.344  20.791  0.00  0.00     0.021 A 
ATOM     20  C   UNL d   1     -41.238  14.182  20.061  0.00  0.00     0.101 A 
ATOM     21  C   UNL d   1     -40.421  15.613  20.134  0.00  0.00     0.002 A 
ATOM     22  C   UNL d   1     -40.409  15.168  19.441  0.00  0.00     0.002 A 
ATOM     23  C   UNL d   1     -40.818  14.451  19.405  0.00  0.00     0.021 A 
ATOM     24  N   UNL d   1     -41.689  13.503  20.188  0.00  0.00    -0.225 NA
ENDBRANCH  15  16
ENDBRANCH  14  15
ENDBRANCH   5  14
TORSDOF 3
ENDMDL
