MODEL 1
REMARK VINA RESULT:      -5.2      0.000      0.000
REMARK  5 active torsions:
REMARK  status: ('A' for Active; 'I' for Inactive)
REMARK    1  A    between atoms: N_5  and  C_1 
REMARK    2  A    between atoms: C_8  and  C_2 
REMARK       I    between atoms: C_7  and  N_5 
REMARK    3  A    between atoms: C_10  and  C_7 
REMARK    4  A    between atoms: O_12  and  C_8 
REMARK    5  A    between atoms: C_16  and  O_12 
ROOT
ATOM      1  C   UNL d   1     -41.330-122.935 -51.678  0.00  0.00     0.114 A 
ATOM      2  C   UNL d   1     -41.519-122.539 -52.933  0.00  0.00     0.094 A 
ATOM      3  S   UNL d   1     -41.560-122.310 -52.161  0.00  0.00    -0.062 SA
ATOM      4  C   UNL d   1     -41.252-123.337 -52.918  0.00  0.00     0.013 A 
ATOM      5  C   UNL d   1     -41.144-123.558 -52.174  0.00  0.00     0.027 A 
ATOM      6  C   UNL d   1     -41.123-123.817 -53.580  0.00  0.00     0.001 C 
ENDROOT
BRANCH   1   7
ATOM      7  N   UNL d   1     -41.287-122.944 -50.821  0.00  0.00    -0.201 NA
ATOM      8  C   UNL d   1     -41.927-123.217 -50.388  0.00  0.00     0.280 C 
ATOM      9  O   UNL d   1     -42.606-123.481 -50.762  0.00  0.00    -0.265 OA
BRANCH   8  10
ATOM     10  C   UNL d   1     -41.887-123.226 -49.572  0.00  0.00     0.058 A 
ATOM     11  C   UNL d   1     -41.184-123.075 -49.180  0.00  0.00     0.005 A 
ATOM     12  C   UNL d   1     -41.131-123.081 -48.356  0.00  0.00     0.000 A 
ATOM     13  C   UNL d   1     -41.817-123.246 -47.924  0.00  0.00     0.000 A 
ATOM     14  C   UNL d   1     -42.532-123.399 -48.304  0.00  0.00     0.000 A 
ATOM     15  C   UNL d   1     -42.573-123.390 -49.128  0.00  0.00     0.005 A 
ENDBRANCH   8  10
ENDBRANCH   1   7
BRANCH   2  16
ATOM     16  C   UNL d   1     -41.702-122.085 -53.608  0.00  0.00     0.306 C 
ATOM     17  O   UNL d   1     -41.234-121.437 -53.776  0.00  0.00    -0.258 OA
BRANCH  16  18
ATOM     18  O   UNL d   1     -42.330-122.274 -54.097  0.00  0.00    -0.271 OA
BRANCH  18  19
ATOM     19  C   UNL d   1     -42.510-121.802 -54.746  0.00  0.00     0.126 C 
ATOM     20  C   UNL d   1     -42.750-122.167 -55.449  0.00  0.00     0.029 C 
ENDBRANCH  18  19
ENDBRANCH  16  18
ENDBRANCH   2  16
TORSDOF 5
ENDMDL
MODEL 2
REMARK VINA RESULT:      -5.1      1.118      4.716
REMARK  5 active torsions:
REMARK  status: ('A' for Active; 'I' for Inactive)
REMARK    1  A    between atoms: N_5  and  C_1 
REMARK    2  A    between atoms: C_8  and  C_2 
REMARK       I    between atoms: C_7  and  N_5 
REMARK    3  A    between atoms: C_10  and  C_7 
REMARK    4  A    between atoms: O_12  and  C_8 
REMARK    5  A    between atoms: C_16  and  O_12 
ROOT
ATOM      1  C   UNL d   1     -41.388-122.573 -52.057  0.00  0.00     0.114 A 
ATOM      2  C   UNL d   1     -41.561-122.933 -50.788  0.00  0.00     0.094 A 
ATOM      3  S   UNL d   1     -41.595-123.190 -51.552  0.00  0.00    -0.062 SA
ATOM      4  C   UNL d   1     -41.323-122.127 -50.832  0.00  0.00     0.013 A 
ATOM      5  C   UNL d   1     -41.225-121.927 -51.582  0.00  0.00     0.027 A 
ATOM      6  C   UNL d   1     -41.209-121.621 -50.186  0.00  0.00     0.001 C 
ENDROOT
BRANCH   1   7
ATOM      7  N   UNL d   1     -41.348-122.591 -52.914  0.00  0.00    -0.201 NA
ATOM      8  C   UNL d   1     -41.946-122.246 -53.354  0.00  0.00     0.280 C 
ATOM      9  O   UNL d   1     -42.582-121.883 -52.987  0.00  0.00    -0.265 OA
BRANCH   8  10
ATOM     10  C   UNL d   1     -41.908-122.263 -54.170  0.00  0.00     0.058 A 
ATOM     11  C   UNL d   1     -41.550-122.885 -54.565  0.00  0.00     0.005 A 
ATOM     12  C   UNL d   1     -41.505-122.914 -55.388  0.00  0.00     0.000 A 
ATOM     13  C   UNL d   1     -41.836-122.288 -55.818  0.00  0.00     0.000 A 
ATOM     14  C   UNL d   1     -42.200-121.656 -55.435  0.00  0.00     0.000 A 
ATOM     15  C   UNL d   1     -42.238-121.638 -54.611  0.00  0.00     0.005 A 
ENDBRANCH   8  10
ENDBRANCH   1   7
BRANCH   2  16
ATOM     16  C   UNL d   1     -41.725-123.371 -50.098  0.00  0.00     0.306 C 
ATOM     17  O   UNL d   1     -41.125-123.817 -49.771  0.00  0.00    -0.258 OA
BRANCH  16  18
ATOM     18  O   UNL d   1     -42.464-123.360 -49.748  0.00  0.00    -0.271 OA
BRANCH  18  19
ATOM     19  C   UNL d   1     -42.617-123.816 -49.081  0.00  0.00     0.126 C 
ATOM     20  C   UNL d   1     -43.352-123.742 -48.707  0.00  0.00     0.029 C 
ENDBRANCH  18  19
ENDBRANCH  16  18
ENDBRANCH   2  16
TORSDOF 5
ENDMDL
