MODEL 1
REMARK VINA RESULT:       8.9      0.000      0.000
REMARK  4 active torsions:
REMARK  status: ('A' for Active; 'I' for Inactive)
REMARK    1  A    between atoms: C_6  and  C_1 
REMARK    2  A    between atoms: N_4  and  C_2 
REMARK       I    between atoms: C_3  and  N_4 
REMARK       I    between atoms: N_9  and  C_3 
REMARK    3  A    between atoms: C_15  and  N_9 
REMARK    4  A    between atoms: C_23  and  C_15 
ROOT
ATOM      1  C   UNL d   1     -41.645-122.870 -53.604  0.00  0.00     0.040 A 
ATOM      2  C   UNL d   1     -41.704-122.366 -52.493  0.00  0.00     0.109 A 
ATOM      3  C   UNL d   1     -41.891-122.258 -53.502  0.00  0.00     0.035 A 
ATOM      4  C   UNL d   1     -41.534-123.324 -54.201  0.00  0.00    -0.023 A 
ATOM      5  C   UNL d   1     -41.282-123.455 -52.795  0.00  0.00     0.013 A 
ATOM      6  C   UNL d   1     -41.394-123.378 -53.364  0.00  0.00    -0.011 A 
ATOM      7  C   UNL d   1     -41.142-123.532 -52.025  0.00  0.00     0.025 A 
ATOM      8  C   UNL d   1     -41.684-122.657 -53.234  0.00  0.00    -0.005 A 
ATOM      9  C   UNL d   1     -41.434-122.804 -51.888  0.00  0.00     0.031 A 
ATOM     10  C   UNL d   1     -41.124-123.816 -52.760  0.00  0.00    -0.027 A 
ENDROOT
BRANCH   2  11
ATOM     11  N   UNL d   1     -41.770-121.975 -51.769  0.00  0.00    -0.217 NA
ATOM     12  C   UNL d   1     -42.339-122.208 -51.224  0.00  0.00     0.360 C 
ATOM     13  N   UNL d   1     -42.411-121.822 -50.500  0.00  0.00    -0.214 NA
ATOM     14  O   UNL d   1     -42.849-122.840 -51.403  0.00  0.00    -0.243 OA
BRANCH  13  15
ATOM     15  C   UNL d   1     -42.986-122.057 -49.947  0.00  0.00     0.147 C 
ATOM     16  C   UNL d   1     -42.315-122.258 -49.502  0.00  0.00     0.033 C 
ATOM     17  C   UNL d   1     -43.650-121.854 -50.397  0.00  0.00     0.033 C 
BRANCH  15  18
ATOM     18  C   UNL d   1     -43.553-122.293 -49.392  0.00  0.00     0.229 C 
ATOM     19  O   UNL d   1     -43.324-122.752 -48.742  0.00  0.00    -0.286 OA
ENDBRANCH  15  18
ENDBRANCH  13  15
ENDBRANCH   2  11
BRANCH   1  20
ATOM     20  C   UNL d   1     -41.965-122.264 -54.047  0.00  0.00    -0.019 A 
ATOM     21  C   UNL d   1     -42.689-122.369 -54.442  0.00  0.00    -0.004 A 
ATOM     22  C   UNL d   1     -43.014-121.759 -54.890  0.00  0.00    -0.000 A 
ATOM     23  C   UNL d   1     -42.615-121.030 -54.949  0.00  0.00    -0.000 A 
ATOM     24  C   UNL d   1     -41.897-120.930 -54.555  0.00  0.00    -0.000 A 
ATOM     25  C   UNL d   1     -42.938-120.416 -55.398  0.00  0.00    -0.000 C 
ATOM     26  C   UNL d   1     -41.572-121.542 -54.107  0.00  0.00    -0.004 A 
ENDBRANCH   1  20
TORSDOF 4
ENDMDL
MODEL 2
REMARK VINA RESULT:       9.3      1.407      1.983
REMARK  4 active torsions:
REMARK  status: ('A' for Active; 'I' for Inactive)
REMARK    1  A    between atoms: C_6  and  C_1 
REMARK    2  A    between atoms: N_4  and  C_2 
REMARK       I    between atoms: C_3  and  N_4 
REMARK       I    between atoms: N_9  and  C_3 
REMARK    3  A    between atoms: C_15  and  N_9 
REMARK    4  A    between atoms: C_23  and  C_15 
ROOT
ATOM      1  C   UNL d   1     -41.204-122.036 -53.235  0.00  0.00     0.040 A 
ATOM      2  C   UNL d   1     -41.236-122.873 -52.346  0.00  0.00     0.109 A 
ATOM      3  C   UNL d   1     -41.204-121.871 -52.589  0.00  0.00     0.035 A 
ATOM      4  C   UNL d   1     -41.188-121.664 -53.896  0.00  0.00    -0.023 A 
ATOM      5  C   UNL d   1     -41.233-123.053 -53.539  0.00  0.00     0.013 A 
ATOM      6  C   UNL d   1     -41.215-122.481 -53.660  0.00  0.00    -0.011 A 
ATOM      7  C   UNL d   1     -41.258-123.816 -53.348  0.00  0.00     0.025 A 
ATOM      8  C   UNL d   1     -41.214-122.295 -52.894  0.00  0.00    -0.005 A 
ATOM      9  C   UNL d   1     -41.258-123.633 -52.574  0.00  0.00     0.031 A 
ATOM     10  C   UNL d   1     -41.237-123.241 -53.887  0.00  0.00    -0.027 A 
ENDROOT
BRANCH   2  11
ATOM     11  N   UNL d   1     -41.257-123.391 -51.704  0.00  0.00    -0.217 NA
ATOM     12  C   UNL d   1     -41.823-123.296 -51.114  0.00  0.00     0.360 C 
ATOM     13  N   UNL d   1     -41.849-123.809 -50.471  0.00  0.00    -0.214 NA
ATOM     14  O   UNL d   1     -42.374-122.676 -51.168  0.00  0.00    -0.243 OA
BRANCH  13  15
ATOM     15  C   UNL d   1     -42.421-123.714 -49.874  0.00  0.00     0.147 C 
ATOM     16  C   UNL d   1     -41.751-123.733 -49.385  0.00  0.00     0.033 C 
ATOM     17  C   UNL d   1     -43.084-123.696 -50.369  0.00  0.00     0.033 C 
BRANCH  15  18
ATOM     18  C   UNL d   1     -42.984-123.619 -49.275  0.00  0.00     0.229 C 
ATOM     19  O   UNL d   1     -42.752-123.678 -48.482  0.00  0.00    -0.286 OA
ENDBRANCH  15  18
ENDBRANCH  13  15
ENDBRANCH   2  11
BRANCH   1  20
ATOM     20  C   UNL d   1     -41.186-121.356 -52.783  0.00  0.00    -0.019 A 
ATOM     21  C   UNL d   1     -41.191-121.403 -51.953  0.00  0.00    -0.004 A 
ATOM     22  C   UNL d   1     -41.173-120.718 -51.495  0.00  0.00    -0.000 A 
ATOM     23  C   UNL d   1     -41.150-119.972 -51.866  0.00  0.00    -0.000 A 
ATOM     24  C   UNL d   1     -41.145-119.931 -52.690  0.00  0.00    -0.000 A 
ATOM     25  C   UNL d   1     -41.132-119.284 -51.410  0.00  0.00    -0.000 C 
ATOM     26  C   UNL d   1     -41.163-120.618 -53.148  0.00  0.00    -0.004 A 
ENDBRANCH   1  20
TORSDOF 4
ENDMDL
