MODEL 1
REMARK VINA RESULT:      -7.5      0.000      0.000
REMARK  7 active torsions:
REMARK  status: ('A' for Active; 'I' for Inactive)
REMARK    1  A    between atoms: C_3  and  C_1 
REMARK    2  A    between atoms: C_6  and  C_2 
REMARK       I    between atoms: N_5  and  C_3 
REMARK    3  A    between atoms: C_9  and  N_5 
REMARK    4  A    between atoms: N_10  and  C_9 
REMARK    5  A    between atoms: C_15  and  N_10 
REMARK    6  A    between atoms: C_13  and  C_15 
REMARK    7  A    between atoms: C_17  and  C_13 
ROOT
ATOM      1  C   UNL d   1      53.474  33.772  53.575  0.00  0.00     0.285 C 
ATOM      2  N   UNL d   1      53.492  33.030  53.932  0.00  0.00    -0.179 NA
ATOM      3  O   UNL d   1      53.852  33.897  52.852  0.00  0.00    -0.265 OA
ENDROOT
BRANCH   1   4
ATOM      4  C   UNL d   1      53.069  34.396  53.951  0.00  0.00     0.103 A 
ATOM      5  C   UNL d   1      52.345  34.707  53.725  0.00  0.00     0.116 A 
ATOM      6  N   UNL d   1      52.151  35.311  54.247  0.00  0.00    -0.126 NA
ATOM      7  O   UNL d   1      52.763  35.371  54.798  0.00  0.00    -0.211 OA
ATOM      8  C   UNL d   1      53.326  34.806  54.614  0.00  0.00     0.131 A 
ATOM      9  C   UNL d   1      54.029  34.681  55.031  0.00  0.00     0.029 C 
BRANCH   5  10
ATOM     10  C   UNL d   1      51.865  34.483  53.094  0.00  0.00     0.031 A 
ATOM     11  C   UNL d   1      51.132  34.136  53.232  0.00  0.00     0.059 A 
ATOM     12 CL   UNL d   1      50.868  34.007  54.014  0.00  0.00    -0.082 Cl
ATOM     13  C   UNL d   1      50.657  33.914  52.609  0.00  0.00     0.011 A 
ATOM     14  C   UNL d   1      50.914  34.040  51.835  0.00  0.00     0.001 A 
ATOM     15  C   UNL d   1      51.639  34.384  51.692  0.00  0.00     0.000 A 
ATOM     16  C   UNL d   1      52.122  34.609  52.320  0.00  0.00     0.002 A 
ENDBRANCH   5  10
ENDBRANCH   1   4
BRANCH   2  17
ATOM     17  C   UNL d   1      53.891  32.409  53.566  0.00  0.00     0.224 C 
ATOM     18  S   UNL d   1      54.695  32.480  53.398  0.00  0.00    -0.037 SA
BRANCH  17  19
ATOM     19  N   UNL d   1      53.484  31.720  53.370  0.00  0.00    -0.212 NA
BRANCH  19  20
ATOM     20  C   UNL d   1      53.609  31.033  53.811  0.00  0.00     0.143 C 
BRANCH  20  21
ATOM     21  C   UNL d   1      53.141  30.361  53.682  0.00  0.00     0.215 C 
ATOM     22  O   UNL d   1      52.582  30.353  53.082  0.00  0.00    -0.285 OA
BRANCH  21  23
ATOM     23  C   UNL d   1      53.241  29.697  54.161  0.00  0.00     0.041 A 
ATOM     24  C   UNL d   1      52.982  29.702  54.939  0.00  0.00     0.003 A 
ATOM     25  C   UNL d   1      53.081  29.038  55.419  0.00  0.00     0.000 A 
ATOM     26  C   UNL d   1      53.444  28.362  55.112  0.00  0.00     0.000 A 
ATOM     27  C   UNL d   1      53.704  28.357  54.333  0.00  0.00     0.000 A 
ATOM     28  C   UNL d   1      53.605  29.021  53.853  0.00  0.00     0.003 A 
ENDBRANCH  21  23
ENDBRANCH  20  21
ENDBRANCH  19  20
ENDBRANCH  17  19
ENDBRANCH   2  17
TORSDOF 7
ENDMDL
MODEL 2
REMARK VINA RESULT:      -7.2      2.068      5.090
REMARK  7 active torsions:
REMARK  status: ('A' for Active; 'I' for Inactive)
REMARK    1  A    between atoms: C_3  and  C_1 
REMARK    2  A    between atoms: C_6  and  C_2 
REMARK       I    between atoms: N_5  and  C_3 
REMARK    3  A    between atoms: C_9  and  N_5 
REMARK    4  A    between atoms: N_10  and  C_9 
REMARK    5  A    between atoms: C_15  and  N_10 
REMARK    6  A    between atoms: C_13  and  C_15 
REMARK    7  A    between atoms: C_17  and  C_13 
ROOT
ATOM      1  C   UNL d   1      52.885  33.068  53.196  0.00  0.00     0.285 C 
ATOM      2  N   UNL d   1      52.141  33.302  53.460  0.00  0.00    -0.179 NA
ATOM      3  O   UNL d   1      53.328  33.562  52.704  0.00  0.00    -0.265 OA
ENDROOT
BRANCH   1   4
ATOM      4  C   UNL d   1      53.187  32.327  53.430  0.00  0.00     0.103 A 
ATOM      5  C   UNL d   1      53.832  32.201  53.919  0.00  0.00     0.116 A 
ATOM      6  N   UNL d   1      53.935  31.391  54.004  0.00  0.00    -0.126 NA
ATOM      7  O   UNL d   1      53.348  31.017  53.562  0.00  0.00    -0.211 OA
ATOM      8  C   UNL d   1      52.888  31.595  53.210  0.00  0.00     0.131 A 
ATOM      9  C   UNL d   1      52.237  31.453  52.719  0.00  0.00     0.029 C 
BRANCH   5  10
ATOM     10  C   UNL d   1      54.317  32.760  54.282  0.00  0.00     0.031 A 
ATOM     11  C   UNL d   1      54.311  32.847  55.100  0.00  0.00     0.059 A 
ATOM     12 CL   UNL d   1      53.812  32.369  55.570  0.00  0.00    -0.082 Cl
ATOM     13  C   UNL d   1      54.790  33.399  55.459  0.00  0.00     0.011 A 
ATOM     14  C   UNL d   1      55.283  33.872  54.999  0.00  0.00     0.001 A 
ATOM     15  C   UNL d   1      55.294  33.791  54.187  0.00  0.00     0.000 A 
ATOM     16  C   UNL d   1      54.811  33.234  53.821  0.00  0.00     0.002 A 
ENDBRANCH   5  10
ENDBRANCH   1   4
BRANCH   2  17
ATOM     17  C   UNL d   1      51.836  34.033  53.233  0.00  0.00     0.224 C 
ATOM     18  S   UNL d   1      52.082  34.719  53.621  0.00  0.00    -0.037 SA
BRANCH  17  19
ATOM     19  N   UNL d   1      51.288  34.076  52.619  0.00  0.00    -0.212 NA
BRANCH  19  20
ATOM     20  C   UNL d   1      50.561  34.446  52.746  0.00  0.00     0.143 C 
BRANCH  20  21
ATOM     21  C   UNL d   1      49.996  34.478  52.142  0.00  0.00     0.215 C 
ATOM     22  O   UNL d   1      50.135  34.109  51.423  0.00  0.00    -0.285 OA
BRANCH  21  23
ATOM     23  C   UNL d   1      49.288  34.884  52.266  0.00  0.00     0.041 A 
ATOM     24  C   UNL d   1      49.140  35.253  52.984  0.00  0.00     0.003 A 
ATOM     25  C   UNL d   1      48.433  35.660  53.109  0.00  0.00     0.000 A 
ATOM     26  C   UNL d   1      47.870  35.695  52.505  0.00  0.00     0.000 A 
ATOM     27  C   UNL d   1      48.017  35.326  51.787  0.00  0.00     0.000 A 
ATOM     28  C   UNL d   1      48.725  34.919  51.662  0.00  0.00     0.003 A 
ENDBRANCH  21  23
ENDBRANCH  20  21
ENDBRANCH  19  20
ENDBRANCH  17  19
ENDBRANCH   2  17
TORSDOF 7
ENDMDL
MODEL 3
REMARK VINA RESULT:      -6.5      1.497      2.465
REMARK  7 active torsions:
REMARK  status: ('A' for Active; 'I' for Inactive)
REMARK    1  A    between atoms: C_3  and  C_1 
REMARK    2  A    between atoms: C_6  and  C_2 
REMARK       I    between atoms: N_5  and  C_3 
REMARK    3  A    between atoms: C_9  and  N_5 
REMARK    4  A    between atoms: N_10  and  C_9 
REMARK    5  A    between atoms: C_15  and  N_10 
REMARK    6  A    between atoms: C_13  and  C_15 
REMARK    7  A    between atoms: C_17  and  C_13 
ROOT
ATOM      1  C   UNL d   1      52.269  33.171  53.328  0.00  0.00     0.285 C 
ATOM      2  N   UNL d   1      52.464  32.601  52.766  0.00  0.00    -0.179 NA
ATOM      3  O   UNL d   1      51.783  32.979  53.966  0.00  0.00    -0.265 OA
ENDROOT
BRANCH   1   4
ATOM      4  C   UNL d   1      52.569  33.945  53.244  0.00  0.00     0.103 A 
ATOM      5  C   UNL d   1      53.200  34.266  53.656  0.00  0.00     0.116 A 
ATOM      6  N   UNL d   1      53.306  35.039  53.403  0.00  0.00    -0.126 NA
ATOM      7  O   UNL d   1      52.734  35.194  52.829  0.00  0.00    -0.211 OA
ATOM      8  C   UNL d   1      52.281  34.519  52.733  0.00  0.00     0.131 A 
ATOM      9  C   UNL d   1      51.646  34.441  52.208  0.00  0.00     0.029 C 
BRANCH   5  10
ATOM     10  C   UNL d   1      53.671  33.909  54.231  0.00  0.00     0.031 A 
ATOM     11  C   UNL d   1      54.445  33.692  54.058  0.00  0.00     0.059 A 
ATOM     12 CL   UNL d   1      54.761  33.830  53.297  0.00  0.00    -0.082 Cl
ATOM     13  C   UNL d   1      54.911  33.339  54.626  0.00  0.00     0.011 A 
ATOM     14  C   UNL d   1      54.603  33.201  55.378  0.00  0.00     0.001 A 
ATOM     15  C   UNL d   1      53.836  33.414  55.555  0.00  0.00     0.000 A 
ATOM     16  C   UNL d   1      53.363  33.771  54.984  0.00  0.00     0.002 A 
ENDBRANCH   5  10
ENDBRANCH   1   4
BRANCH   2  17
ATOM     17  C   UNL d   1      52.172  31.834  52.842  0.00  0.00     0.224 C 
ATOM     18  S   UNL d   1      51.375  31.715  53.017  0.00  0.00    -0.037 SA
BRANCH  17  19
ATOM     19  N   UNL d   1      52.678  31.191  52.744  0.00  0.00    -0.212 NA
BRANCH  19  20
ATOM     20  C   UNL d   1      52.657  30.569  53.286  0.00  0.00     0.143 C 
BRANCH  20  21
ATOM     21  C   UNL d   1      53.340  30.126  53.441  0.00  0.00     0.215 C 
ATOM     22  O   UNL d   1      54.004  30.206  52.966  0.00  0.00    -0.285 OA
BRANCH  21  23
ATOM     23  C   UNL d   1      53.349  29.601  54.078  0.00  0.00     0.041 A 
ATOM     24  C   UNL d   1      53.287  29.879  54.847  0.00  0.00     0.003 A 
ATOM     25  C   UNL d   1      53.296  29.355  55.485  0.00  0.00     0.000 A 
ATOM     26  C   UNL d   1      53.369  28.543  55.345  0.00  0.00     0.000 A 
ATOM     27  C   UNL d   1      53.432  28.265  54.576  0.00  0.00     0.000 A 
ATOM     28  C   UNL d   1      53.422  28.789  53.939  0.00  0.00     0.003 A 
ENDBRANCH  21  23
ENDBRANCH  20  21
ENDBRANCH  19  20
ENDBRANCH  17  19
ENDBRANCH   2  17
TORSDOF 7
ENDMDL
MODEL 4
REMARK VINA RESULT:      -6.4      2.264      5.066
REMARK  7 active torsions:
REMARK  status: ('A' for Active; 'I' for Inactive)
REMARK    1  A    between atoms: C_3  and  C_1 
REMARK    2  A    between atoms: C_6  and  C_2 
REMARK       I    between atoms: N_5  and  C_3 
REMARK    3  A    between atoms: C_9  and  N_5 
REMARK    4  A    between atoms: N_10  and  C_9 
REMARK    5  A    between atoms: C_15  and  N_10 
REMARK    6  A    between atoms: C_13  and  C_15 
REMARK    7  A    between atoms: C_17  and  C_13 
ROOT
ATOM      1  C   UNL d   1      52.619  34.201  53.337  0.00  0.00     0.285 C 
ATOM      2  N   UNL d   1      51.797  34.258  53.365  0.00  0.00    -0.179 NA
ATOM      3  O   UNL d   1      53.012  34.188  52.612  0.00  0.00    -0.265 OA
ENDROOT
BRANCH   1   4
ATOM      4  C   UNL d   1      53.048  34.157  54.050  0.00  0.00     0.103 A 
ATOM      5  C   UNL d   1      53.433  33.495  54.342  0.00  0.00     0.116 A 
ATOM      6  N   UNL d   1      53.784  33.695  55.056  0.00  0.00    -0.126 NA
ATOM      7  O   UNL d   1      53.614  34.489  55.204  0.00  0.00    -0.211 OA
ATOM      8  C   UNL d   1      53.160  34.771  54.584  0.00  0.00     0.131 A 
ATOM      9  C   UNL d   1      52.871  35.543  54.516  0.00  0.00     0.029 C 
BRANCH   5  10
ATOM     10  C   UNL d   1      53.482  32.742  54.009  0.00  0.00     0.031 A 
ATOM     11  C   UNL d   1      54.195  32.470  53.702  0.00  0.00     0.059 A 
ATOM     12 CL   UNL d   1      54.876  32.954  53.725  0.00  0.00    -0.082 Cl
ATOM     13  C   UNL d   1      54.245  31.726  53.373  0.00  0.00     0.011 A 
ATOM     14  C   UNL d   1      53.575  31.246  53.348  0.00  0.00     0.001 A 
ATOM     15  C   UNL d   1      52.866  31.510  53.651  0.00  0.00     0.000 A 
ATOM     16  C   UNL d   1      52.812  32.261  53.984  0.00  0.00     0.002 A 
ENDBRANCH   5  10
ENDBRANCH   1   4
BRANCH   2  17
ATOM     17  C   UNL d   1      51.366  34.302  52.664  0.00  0.00     0.224 C 
ATOM     18  S   UNL d   1      51.750  34.483  51.957  0.00  0.00    -0.037 SA
BRANCH  17  19
ATOM     19  N   UNL d   1      50.554  34.165  52.674  0.00  0.00    -0.212 NA
BRANCH  19  20
ATOM     20  C   UNL d   1      50.032  34.805  52.656  0.00  0.00     0.143 C 
BRANCH  20  21
ATOM     21  C   UNL d   1      49.237  34.691  52.450  0.00  0.00     0.215 C 
ATOM     22  O   UNL d   1      48.996  33.993  52.092  0.00  0.00    -0.285 OA
BRANCH  21  23
ATOM     23  C   UNL d   1      48.687  35.286  52.606  0.00  0.00     0.041 A 
ATOM     24  C   UNL d   1      48.632  35.616  53.354  0.00  0.00     0.003 A 
ATOM     25  C   UNL d   1      48.082  36.211  53.511  0.00  0.00     0.000 A 
ATOM     26  C   UNL d   1      47.582  36.475  52.907  0.00  0.00     0.000 A 
ATOM     27  C   UNL d   1      47.637  36.145  52.159  0.00  0.00     0.000 A 
ATOM     28  C   UNL d   1      48.187  35.550  52.002  0.00  0.00     0.003 A 
ENDBRANCH  21  23
ENDBRANCH  20  21
ENDBRANCH  19  20
ENDBRANCH  17  19
ENDBRANCH   2  17
TORSDOF 7
ENDMDL
MODEL 5
REMARK VINA RESULT:      -5.7      2.625      5.553
REMARK  7 active torsions:
REMARK  status: ('A' for Active; 'I' for Inactive)
REMARK    1  A    between atoms: C_3  and  C_1 
REMARK    2  A    between atoms: C_6  and  C_2 
REMARK       I    between atoms: N_5  and  C_3 
REMARK    3  A    between atoms: C_9  and  N_5 
REMARK    4  A    between atoms: N_10  and  C_9 
REMARK    5  A    between atoms: C_15  and  N_10 
REMARK    6  A    between atoms: C_13  and  C_15 
REMARK    7  A    between atoms: C_17  and  C_13 
ROOT
ATOM      1  C   UNL d   1      51.673  33.767  52.806  0.00  0.00     0.285 C 
ATOM      2  N   UNL d   1      50.902  33.772  53.096  0.00  0.00    -0.179 NA
ATOM      3  O   UNL d   1      51.875  34.229  52.152  0.00  0.00    -0.265 OA
ENDROOT
BRANCH   1   4
ATOM      4  C   UNL d   1      52.247  33.292  53.180  0.00  0.00     0.103 A 
ATOM      5  C   UNL d   1      52.843  33.555  53.676  0.00  0.00     0.116 A 
ATOM      6  N   UNL d   1      53.280  32.904  53.920  0.00  0.00    -0.126 NA
ATOM      7  O   UNL d   1      52.948  32.235  53.569  0.00  0.00    -0.211 OA
ATOM      8  C   UNL d   1      52.312  32.476  53.114  0.00  0.00     0.131 A 
ATOM      9  C   UNL d   1      51.827  31.975  52.669  0.00  0.00     0.029 C 
BRANCH   5  10
ATOM     10  C   UNL d   1      53.009  34.326  53.914  0.00  0.00     0.031 A 
ATOM     11  C   UNL d   1      53.015  34.523  54.712  0.00  0.00     0.059 A 
ATOM     12 CL   UNL d   1      52.852  33.941  55.290  0.00  0.00    -0.082 Cl
ATOM     13  C   UNL d   1      53.179  35.285  54.949  0.00  0.00     0.011 A 
ATOM     14  C   UNL d   1      53.340  35.862  54.382  0.00  0.00     0.001 A 
ATOM     15  C   UNL d   1      53.336  35.673  53.588  0.00  0.00     0.000 A 
ATOM     16  C   UNL d   1      53.171  34.903  53.346  0.00  0.00     0.002 A 
ENDBRANCH   5  10
ENDBRANCH   1   4
BRANCH   2  17
ATOM     17  C   UNL d   1      50.330  34.239  52.732  0.00  0.00     0.224 C 
ATOM     18  S   UNL d   1      50.137  34.109  51.940  0.00  0.00    -0.037 SA
BRANCH  17  19
ATOM     19  N   UNL d   1      49.954  34.834  53.160  0.00  0.00    -0.212 NA
BRANCH  19  20
ATOM     20  C   UNL d   1      49.193  35.074  52.944  0.00  0.00     0.143 C 
BRANCH  20  21
ATOM     21  C   UNL d   1      48.825  35.704  53.336  0.00  0.00     0.215 C 
ATOM     22  O   UNL d   1      49.231  36.132  53.906  0.00  0.00    -0.285 OA
BRANCH  21  23
ATOM     23  C   UNL d   1      48.045  35.900  53.151  0.00  0.00     0.041 A 
ATOM     24  C   UNL d   1      47.834  36.083  52.379  0.00  0.00     0.003 A 
ATOM     25  C   UNL d   1      47.055  36.279  52.193  0.00  0.00     0.000 A 
ATOM     26  C   UNL d   1      46.483  36.291  52.790  0.00  0.00     0.000 A 
ATOM     27  C   UNL d   1      46.694  36.108  53.561  0.00  0.00     0.000 A 
ATOM     28  C   UNL d   1      47.473  35.912  53.748  0.00  0.00     0.003 A 
ENDBRANCH  21  23
ENDBRANCH  20  21
ENDBRANCH  19  20
ENDBRANCH  17  19
ENDBRANCH   2  17
TORSDOF 7
ENDMDL
