MODEL 1
REMARK VINA RESULT:      -4.0      0.000      0.000
REMARK  3 active torsions:
REMARK  status: ('A' for Active; 'I' for Inactive)
REMARK    1  A    between atoms: C_10  and  N_2 
REMARK    2  A    between atoms: C_15  and  C_3 
REMARK    3  A    between atoms: C_6  and  C_4 
ROOT
ATOM      1  N   UNL d   1      56.199  -0.153  31.863  0.00  0.00    -0.165 NA
ATOM      2  N   UNL d   1      56.126   0.428  33.163  0.00  0.00    -0.228 N 
ATOM      3  C   UNL d   1      57.352   0.458  32.439  0.00  0.00     0.081 A 
ATOM      4  C   UNL d   1      56.995   0.061  31.812  0.00  0.00     0.106 A 
ATOM      5  C   UNL d   1      56.922   0.642  33.112  0.00  0.00     0.105 A 
ENDROOT
BRANCH   4   6
ATOM      6  C   UNL d   1      57.425  -0.126  31.132  0.00  0.00     0.022 A 
ATOM      7  C   UNL d   1      57.604  -0.912  30.964  0.00  0.00     0.028 A 
ATOM      8  C   UNL d   1      58.035  -1.100  30.284  0.00  0.00     0.123 A 
ATOM      9  O   UNL d   1      58.214  -1.888  30.116  0.00  0.00    -0.301 OA
ATOM     10  C   UNL d   1      58.287  -0.487  29.771  0.00  0.00     0.123 A 
ATOM     11  C   UNL d   1      58.652  -2.072  29.424  0.00  0.00     0.149 A 
ATOM     12  C   UNL d   1      58.901  -1.466  28.917  0.00  0.00     0.149 A 
ATOM     13  O   UNL d   1      58.716  -0.677  29.093  0.00  0.00    -0.301 OA
ATOM     14  C   UNL d   1      58.101   0.293  29.951  0.00  0.00     0.027 A 
ATOM     15  C   UNL d   1      57.674   0.480  30.625  0.00  0.00     0.004 A 
ENDBRANCH   4   6
BRANCH   3  16
ATOM     16  C   UNL d   1      58.183   0.681  32.385  0.00  0.00     0.237 C 
ATOM     17  O   UNL d   1      58.662   0.682  33.089  0.00  0.00    -0.283 OA
ENDBRANCH   3  16
BRANCH   2  18
ATOM     18  C   UNL d   1      55.531   0.512  33.727  0.00  0.00     0.083 A 
ATOM     19  C   UNL d   1      55.716   0.528  34.530  0.00  0.00     0.019 A 
ATOM     20  C   UNL d   1      55.113   0.613  35.088  0.00  0.00     0.002 A 
ATOM     21  C   UNL d   1      54.330   0.681  34.843  0.00  0.00     0.000 A 
ATOM     22  C   UNL d   1      54.145   0.665  34.036  0.00  0.00     0.002 A 
ATOM     23  C   UNL d   1      54.748   0.580  33.481  0.00  0.00     0.019 A 
ENDBRANCH   2  18
TORSDOF 3
ENDMDL
MODEL 2
REMARK VINA RESULT:      -2.5      1.542      5.037
REMARK  3 active torsions:
REMARK  status: ('A' for Active; 'I' for Inactive)
REMARK    1  A    between atoms: C_10  and  N_2 
REMARK    2  A    between atoms: C_15  and  C_3 
REMARK    3  A    between atoms: C_6  and  C_4 
ROOT
ATOM      1  N   UNL d   1      58.243   0.682  31.195  0.00  0.00    -0.165 NA
ATOM      2  N   UNL d   1      58.720  -0.147  30.137  0.00  0.00    -0.228 N 
ATOM      3  C   UNL d   1      57.618  -0.572  30.933  0.00  0.00     0.081 A 
ATOM      4  C   UNL d   1      57.665   0.121  31.374  0.00  0.00     0.106 A 
ATOM      5  C   UNL d   1      58.142  -0.708  30.317  0.00  0.00     0.105 A 
ENDROOT
BRANCH   4   6
ATOM      6  C   UNL d   1      57.139   0.261  31.996  0.00  0.00     0.022 A 
ATOM      7  C   UNL d   1      57.398   0.195  32.774  0.00  0.00     0.028 A 
ATOM      8  C   UNL d   1      56.872   0.335  33.397  0.00  0.00     0.123 A 
ATOM      9  O   UNL d   1      57.133   0.269  34.178  0.00  0.00    -0.301 OA
ATOM     10  C   UNL d   1      56.078   0.542  33.229  0.00  0.00     0.123 A 
ATOM     11  C   UNL d   1      56.595   0.412  34.805  0.00  0.00     0.149 A 
ATOM     12  C   UNL d   1      55.809   0.616  34.639  0.00  0.00     0.149 A 
ATOM     13  O   UNL d   1      55.555   0.680  33.851  0.00  0.00    -0.301 OA
ATOM     14  C   UNL d   1      55.832   0.603  32.447  0.00  0.00     0.027 A 
ATOM     15  C   UNL d   1      56.354   0.465  31.830  0.00  0.00     0.004 A 
ENDBRANCH   4   6
BRANCH   3  16
ATOM     16  C   UNL d   1      57.014  -1.158  31.120  0.00  0.00     0.237 C 
ATOM     17  O   UNL d   1      57.112  -1.960  30.853  0.00  0.00    -0.283 OA
ENDBRANCH   3  16
BRANCH   2  18
ATOM     18  C   UNL d   1      59.324  -0.085  29.580  0.00  0.00     0.083 A 
ATOM     19  C   UNL d   1      59.407   0.600  29.129  0.00  0.00     0.019 A 
ATOM     20  C   UNL d   1      60.016   0.653  28.574  0.00  0.00     0.002 A 
ATOM     21  C   UNL d   1      60.538   0.025  28.471  0.00  0.00     0.000 A 
ATOM     22  C   UNL d   1      60.455  -0.662  28.925  0.00  0.00     0.002 A 
ATOM     23  C   UNL d   1      59.847  -0.714  29.478  0.00  0.00     0.019 A 
ENDBRANCH   2  18
TORSDOF 3
ENDMDL
