MODEL 1
REMARK VINA RESULT:       1.4      0.000      0.000
REMARK  2 active torsions:
REMARK  status: ('A' for Active; 'I' for Inactive)
REMARK    1  A    between atoms: C_7  and  C_1 
REMARK    2  A    between atoms: S_13  and  C_5 
ROOT
ATOM      1  C   UNL d   1      59.059  -0.966  29.930  0.00  0.00     0.025 A 
ATOM      2  C   UNL d   1      58.956  -1.672  29.517  0.00  0.00     0.106 A 
ATOM      3  C   UNL d   1      58.479  -0.718  30.464  0.00  0.00     0.092 A 
ATOM      4  N   UNL d   1      57.704  -1.880  30.168  0.00  0.00    -0.218 NA
ATOM      5  C   UNL d   1      57.802  -1.175  30.583  0.00  0.00     0.118 A 
ATOM      6  C   UNL d   1      58.280  -2.129  29.636  0.00  0.00     0.194 A 
ATOM      7  C   UNL d   1      59.536  -1.921  28.982  0.00  0.00     0.104 C 
ATOM      8  C   UNL d   1      58.583  -0.015  30.875  0.00  0.00     0.103 C 
ATOM      9  N   UNL d   1      60.106  -2.167  28.456  0.00  0.00    -0.191 NA
ATOM     10  N   UNL d   1      58.681   0.682  31.284  0.00  0.00    -0.191 NA
ATOM     11  N   UNL d   1      58.182  -2.835  29.220  0.00  0.00    -0.126 N 
ENDROOT
BRANCH   1  12
ATOM     12  C   UNL d   1      59.730  -0.514  29.812  0.00  0.00     0.012 A 
ATOM     13  C   UNL d   1      59.742   0.062  29.219  0.00  0.00     0.058 A 
ATOM     14 CL   UNL d   1      59.078   0.176  28.752  0.00  0.00    -0.082 Cl
ATOM     15  C   UNL d   1      60.429   0.525  29.099  0.00  0.00     0.011 A 
ATOM     16  C   UNL d   1      61.090   0.404  29.573  0.00  0.00     0.001 A 
ATOM     17  C   UNL d   1      61.082  -0.166  30.162  0.00  0.00     0.000 A 
ATOM     18  C   UNL d   1      60.395  -0.630  30.283  0.00  0.00     0.001 A 
ENDBRANCH   1  12
BRANCH   5  19
ATOM     19  S   UNL d   1      57.225  -0.921  31.120  0.00  0.00    -0.093 SA
ATOM     20  C   UNL d   1      56.763  -1.471  31.528  0.00  0.00     0.076 C 
ENDBRANCH   5  19
TORSDOF 2
ENDMDL
MODEL 2
REMARK VINA RESULT:       1.6      1.732      3.512
REMARK  2 active torsions:
REMARK  status: ('A' for Active; 'I' for Inactive)
REMARK    1  A    between atoms: C_7  and  C_1 
REMARK    2  A    between atoms: S_13  and  C_5 
ROOT
ATOM      1  C   UNL d   1      59.082   0.144  30.512  0.00  0.00     0.025 A 
ATOM      2  C   UNL d   1      59.663   0.353  31.058  0.00  0.00     0.106 A 
ATOM      3  C   UNL d   1      59.286   0.046  29.716  0.00  0.00     0.092 A 
ATOM      4  N   UNL d   1      60.643   0.367  30.022  0.00  0.00    -0.218 NA
ATOM      5  C   UNL d   1      60.066   0.157  29.472  0.00  0.00     0.118 A 
ATOM      6  C   UNL d   1      60.443   0.465  30.813  0.00  0.00     0.194 A 
ATOM      7  C   UNL d   1      59.460   0.452  31.854  0.00  0.00     0.104 C 
ATOM      8  C   UNL d   1      58.707  -0.163  29.174  0.00  0.00     0.103 C 
ATOM      9  N   UNL d   1      59.261   0.548  32.637  0.00  0.00    -0.191 NA
ATOM     10  N   UNL d   1      58.136  -0.370  28.632  0.00  0.00    -0.191 NA
ATOM     11  N   UNL d   1      61.020   0.675  31.364  0.00  0.00    -0.126 N 
ENDROOT
BRANCH   1  12
ATOM     12  C   UNL d   1      58.309   0.033  30.754  0.00  0.00     0.012 A 
ATOM     13  C   UNL d   1      57.991  -0.729  30.787  0.00  0.00     0.058 A 
ATOM     14 CL   UNL d   1      58.454  -1.371  30.575  0.00  0.00    -0.082 Cl
ATOM     15  C   UNL d   1      57.199  -0.842  31.035  0.00  0.00     0.011 A 
ATOM     16  C   UNL d   1      56.742  -0.192  31.246  0.00  0.00     0.001 A 
ATOM     17  C   UNL d   1      57.054   0.566  31.215  0.00  0.00     0.000 A 
ATOM     18  C   UNL d   1      57.845   0.679  30.967  0.00  0.00     0.001 A 
ENDBRANCH   1  12
BRANCH   5  19
ATOM     19  S   UNL d   1      60.265   0.058  28.674  0.00  0.00    -0.093 SA
ATOM     20  C   UNL d   1      61.042  -0.114  28.455  0.00  0.00     0.076 C 
ENDBRANCH   5  19
TORSDOF 2
ENDMDL
MODEL 3
REMARK VINA RESULT:       1.8      1.731      3.166
REMARK  2 active torsions:
REMARK  status: ('A' for Active; 'I' for Inactive)
REMARK    1  A    between atoms: C_7  and  C_1 
REMARK    2  A    between atoms: S_13  and  C_5 
ROOT
ATOM      1  C   UNL d   1      58.791   0.065  30.609  0.00  0.00     0.025 A 
ATOM      2  C   UNL d   1      58.257   0.219  31.218  0.00  0.00     0.106 A 
ATOM      3  C   UNL d   1      59.595   0.220  30.722  0.00  0.00     0.092 A 
ATOM      4  N   UNL d   1      59.323   0.681  32.046  0.00  0.00    -0.218 NA
ATOM      5  C   UNL d   1      59.861   0.528  31.440  0.00  0.00     0.118 A 
ATOM      6  C   UNL d   1      58.523   0.527  31.935  0.00  0.00     0.194 A 
ATOM      7  C   UNL d   1      57.452   0.064  31.105  0.00  0.00     0.104 C 
ATOM      8  C   UNL d   1      60.125   0.066  30.115  0.00  0.00     0.103 C 
ATOM      9  N   UNL d   1      56.661  -0.089  30.996  0.00  0.00    -0.191 NA
ATOM     10  N   UNL d   1      60.655  -0.086  29.516  0.00  0.00    -0.191 NA
ATOM     11  N   UNL d   1      57.984   0.680  32.542  0.00  0.00    -0.126 N 
ENDROOT
BRANCH   1  12
ATOM     12  C   UNL d   1      58.528  -0.241  29.898  0.00  0.00     0.012 A 
ATOM     13  C   UNL d   1      58.465  -1.058  29.796  0.00  0.00     0.058 A 
ATOM     14 CL   UNL d   1      58.667  -1.560  30.412  0.00  0.00    -0.082 Cl
ATOM     15  C   UNL d   1      58.195  -1.371  29.068  0.00  0.00     0.011 A 
ATOM     16  C   UNL d   1      57.993  -0.859  28.455  0.00  0.00     0.001 A 
ATOM     17  C   UNL d   1      58.055  -0.047  28.552  0.00  0.00     0.000 A 
ATOM     18  C   UNL d   1      58.324   0.265  29.280  0.00  0.00     0.001 A 
ENDBRANCH   1  12
BRANCH   5  19
ATOM     19  S   UNL d   1      60.668   0.682  31.547  0.00  0.00    -0.093 SA
ATOM     20  C   UNL d   1      61.002   0.651  32.302  0.00  0.00     0.076 C 
ENDBRANCH   5  19
TORSDOF 2
ENDMDL
MODEL 4
REMARK VINA RESULT:       2.2      1.460      3.222
REMARK  2 active torsions:
REMARK  status: ('A' for Active; 'I' for Inactive)
REMARK    1  A    between atoms: C_7  and  C_1 
REMARK    2  A    between atoms: S_13  and  C_5 
ROOT
ATOM      1  C   UNL d   1      59.171  -1.313  29.648  0.00  0.00     0.025 A 
ATOM      2  C   UNL d   1      58.622  -0.964  30.154  0.00  0.00     0.106 A 
ATOM      3  C   UNL d   1      59.868  -0.911  29.461  0.00  0.00     0.092 A 
ATOM      4  N   UNL d   1      59.462   0.181  30.286  0.00  0.00    -0.218 NA
ATOM      5  C   UNL d   1      60.014  -0.164  29.780  0.00  0.00     0.118 A 
ATOM      6  C   UNL d   1      58.768  -0.218  30.474  0.00  0.00     0.194 A 
ATOM      7  C   UNL d   1      57.924  -1.367  30.342  0.00  0.00     0.104 C 
ATOM      8  C   UNL d   1      60.413  -1.260  28.956  0.00  0.00     0.103 C 
ATOM      9  N   UNL d   1      57.238  -1.762  30.527  0.00  0.00    -0.191 NA
ATOM     10  N   UNL d   1      60.957  -1.601  28.456  0.00  0.00    -0.191 NA
ATOM     11  N   UNL d   1      58.215   0.127  30.981  0.00  0.00    -0.126 N 
ENDROOT
BRANCH   1  12
ATOM     12  C   UNL d   1      59.026  -2.054  29.331  0.00  0.00     0.012 A 
ATOM     13  C   UNL d   1      59.485  -2.700  29.565  0.00  0.00     0.058 A 
ATOM     14 CL   UNL d   1      60.084  -2.595  30.115  0.00  0.00    -0.082 Cl
ATOM     15  C   UNL d   1      59.337  -3.458  29.241  0.00  0.00     0.011 A 
ATOM     16  C   UNL d   1      58.734  -3.554  28.690  0.00  0.00     0.001 A 
ATOM     17  C   UNL d   1      58.277  -2.915  28.455  0.00  0.00     0.000 A 
ATOM     18  C   UNL d   1      58.424  -2.158  28.779  0.00  0.00     0.001 A 
ENDBRANCH   1  12
BRANCH   5  19
ATOM     19  S   UNL d   1      60.714   0.235  29.589  0.00  0.00    -0.093 SA
ATOM     20  C   UNL d   1      61.119   0.666  30.165  0.00  0.00     0.076 C 
ENDBRANCH   5  19
TORSDOF 2
ENDMDL
MODEL 5
REMARK VINA RESULT:       2.5      1.539      2.951
REMARK  2 active torsions:
REMARK  status: ('A' for Active; 'I' for Inactive)
REMARK    1  A    between atoms: C_7  and  C_1 
REMARK    2  A    between atoms: S_13  and  C_5 
ROOT
ATOM      1  C   UNL d   1      59.086  -1.175  29.203  0.00  0.00     0.025 A 
ATOM      2  C   UNL d   1      59.830  -0.875  29.015  0.00  0.00     0.106 A 
ATOM      3  C   UNL d   1      58.902  -1.960  29.019  0.00  0.00     0.092 A 
ATOM      4  N   UNL d   1      60.205  -2.135  28.461  0.00  0.00    -0.218 NA
ATOM      5  C   UNL d   1      59.461  -2.440  28.648  0.00  0.00     0.118 A 
ATOM      6  C   UNL d   1      60.389  -1.355  28.643  0.00  0.00     0.194 A 
ATOM      7  C   UNL d   1      60.014  -0.090  29.199  0.00  0.00     0.104 C 
ATOM      8  C   UNL d   1      58.161  -2.257  29.208  0.00  0.00     0.103 C 
ATOM      9  N   UNL d   1      60.195   0.682  29.380  0.00  0.00    -0.191 NA
ATOM     10  N   UNL d   1      57.427  -2.556  29.393  0.00  0.00    -0.191 NA
ATOM     11  N   UNL d   1      61.133  -1.050  28.456  0.00  0.00    -0.126 N 
ENDROOT
BRANCH   1  12
ATOM     12  C   UNL d   1      58.531  -0.699  29.571  0.00  0.00     0.012 A 
ATOM     13  C   UNL d   1      58.383  -0.786  30.380  0.00  0.00     0.058 A 
ATOM     14 CL   UNL d   1      58.794  -1.350  30.809  0.00  0.00    -0.082 Cl
ATOM     15  C   UNL d   1      57.815  -0.299  30.756  0.00  0.00     0.011 A 
ATOM     16  C   UNL d   1      57.407   0.265  30.317  0.00  0.00     0.001 A 
ATOM     17  C   UNL d   1      57.551   0.354  29.515  0.00  0.00     0.000 A 
ATOM     18  C   UNL d   1      58.119  -0.133  29.138  0.00  0.00     0.001 A 
ENDBRANCH   1  12
BRANCH   5  19
ATOM     19  S   UNL d   1      59.273  -3.225  28.465  0.00  0.00    -0.093 SA
ATOM     20  C   UNL d   1      59.805  -3.833  28.635  0.00  0.00     0.076 C 
ENDBRANCH   5  19
TORSDOF 2
ENDMDL
