MODEL 1
REMARK VINA RESULT:      -2.9      0.000      0.000
REMARK  1 active torsions:
REMARK  status: ('A' for Active; 'I' for Inactive)
REMARK    1  A    between atoms: C_2  and  S_1 
ROOT
ATOM      1  C   UNL d   1      32.493  22.235 -21.110  0.00  0.00     0.107 A 
ATOM      2  C   UNL d   1      33.004  22.203 -21.756  0.00  0.00     0.014 A 
ATOM      3  C   UNL d   1      32.211  21.551 -20.767  0.00  0.00     0.014 A 
ATOM      4  C   UNL d   1      32.940  20.778 -21.705  0.00  0.00     0.058 A 
ATOM      5  C   UNL d   1      32.438  20.812 -21.069  0.00  0.00     0.012 A 
ATOM      6  C   UNL d   1      33.234  21.472 -22.062  0.00  0.00     0.012 A 
ATOM      7 CL   UNL d   1      33.155  20.035 -21.993  0.00  0.00    -0.082 Cl
ENDROOT
BRANCH   1   8
ATOM      8  S   UNL d   1      32.268  22.970 -20.810  0.00  0.00     0.302 S 
ATOM      9  O   UNL d   1      31.646  22.992 -21.352  0.00  0.00    -0.197 OA
ATOM     10  O   UNL d   1      32.880  22.950 -20.275  0.00  0.00    -0.197 OA
ATOM     11  N   UNL d   1      32.038  23.702 -20.517  0.00  0.00    -0.043 N 
ENDBRANCH   1   8
TORSDOF 1
ENDMDL
MODEL 2
REMARK VINA RESULT:      -2.5      2.252      2.525
REMARK  1 active torsions:
REMARK  status: ('A' for Active; 'I' for Inactive)
REMARK    1  A    between atoms: C_2  and  S_1 
ROOT
ATOM      1  C   UNL d   1      32.767  21.739 -20.952  0.00  0.00     0.107 A 
ATOM      2  C   UNL d   1      32.240  22.342 -21.150  0.00  0.00     0.014 A 
ATOM      3  C   UNL d   1      33.222  21.790 -20.277  0.00  0.00     0.014 A 
ATOM      4  C   UNL d   1      32.641  23.048 -19.976  0.00  0.00     0.058 A 
ATOM      5  C   UNL d   1      33.158  22.454 -19.782  0.00  0.00     0.012 A 
ATOM      6  C   UNL d   1      32.171  23.005 -20.664  0.00  0.00     0.012 A 
ATOM      7 CL   UNL d   1      32.589  23.700 -19.473  0.00  0.00    -0.082 Cl
ENDROOT
BRANCH   1   8
ATOM      8  S   UNL d   1      32.830  21.080 -21.444  0.00  0.00     0.302 S 
ATOM      9  O   UNL d   1      33.241  21.539 -21.993  0.00  0.00    -0.197 OA
ATOM     10  O   UNL d   1      32.425  20.627 -20.904  0.00  0.00    -0.197 OA
ATOM     11  N   UNL d   1      32.897  20.429 -21.939  0.00  0.00    -0.043 N 
ENDBRANCH   1   8
TORSDOF 1
ENDMDL
MODEL 3
REMARK VINA RESULT:      -2.1      6.028      6.380
REMARK  1 active torsions:
REMARK  status: ('A' for Active; 'I' for Inactive)
REMARK    1  A    between atoms: C_2  and  S_1 
ROOT
ATOM      1  C   UNL d   1      31.445  16.732 -23.908  0.00  0.00     0.107 A 
ATOM      2  C   UNL d   1      31.165  17.331 -24.401  0.00  0.00     0.014 A 
ATOM      3  C   UNL d   1      30.935  16.173 -23.603  0.00  0.00     0.014 A 
ATOM      4  C   UNL d   1      29.850  16.790 -24.275  0.00  0.00     0.058 A 
ATOM      5  C   UNL d   1      30.127  16.202 -23.789  0.00  0.00     0.012 A 
ATOM      6  C   UNL d   1      30.363  17.367 -24.591  0.00  0.00     0.012 A 
ATOM      7 CL   UNL d   1      29.044  16.805 -24.449  0.00  0.00    -0.082 Cl
ENDROOT
BRANCH   1   8
ATOM      8  S   UNL d   1      32.248  16.704 -23.723  0.00  0.00     0.302 S 
ATOM      9  O   UNL d   1      32.338  16.074 -24.248  0.00  0.00    -0.197 OA
ATOM     10  O   UNL d   1      32.161  17.325 -23.206  0.00  0.00    -0.197 OA
ATOM     11  N   UNL d   1      33.049  16.669 -23.545  0.00  0.00    -0.043 N 
ENDBRANCH   1   8
TORSDOF 1
ENDMDL
MODEL 4
REMARK VINA RESULT:      -0.5      6.825      7.193
REMARK  1 active torsions:
REMARK  status: ('A' for Active; 'I' for Inactive)
REMARK    1  A    between atoms: C_2  and  S_1 
ROOT
ATOM      1  C   UNL d   1      30.435  16.059 -23.765  0.00  0.00     0.107 A 
ATOM      2  C   UNL d   1      30.039  15.583 -23.220  0.00  0.00     0.014 A 
ATOM      3  C   UNL d   1      30.025  16.595 -24.223  0.00  0.00     0.014 A 
ATOM      4  C   UNL d   1      28.812  16.200 -23.607  0.00  0.00     0.058 A 
ATOM      5  C   UNL d   1      29.202  16.667 -24.143  0.00  0.00     0.012 A 
ATOM      6  C   UNL d   1      29.221  15.648 -23.135  0.00  0.00     0.012 A 
ATOM      7 CL   UNL d   1      27.994  16.283 -23.540  0.00  0.00    -0.082 Cl
ENDROOT
BRANCH   1   8
ATOM      8  S   UNL d   1      31.253  15.987 -23.845  0.00  0.00     0.302 S 
ATOM      9  O   UNL d   1      31.138  15.452 -24.463  0.00  0.00    -0.197 OA
ATOM     10  O   UNL d   1      31.367  16.514 -23.236  0.00  0.00    -0.197 OA
ATOM     11  N   UNL d   1      32.066  15.911 -23.930  0.00  0.00    -0.043 N 
ENDBRANCH   1   8
TORSDOF 1
ENDMDL
