MODEL 1
REMARK VINA RESULT:      15.4      0.000      0.000
REMARK  4 active torsions:
REMARK  status: ('A' for Active; 'I' for Inactive)
REMARK    1  A    between atoms: C_3  and  C_1 
REMARK    2  A    between atoms: C_4  and  C_1 
REMARK    3  A    between atoms: C_2  and  C_3 
REMARK    4  A    between atoms: C_6  and  C_4 
ROOT
ATOM      1  C   UNL d   1     -56.536 -98.839 -44.618  0.00  0.00     0.196 C 
ATOM      2  O   UNL d   1     -56.371 -98.755 -45.424  0.00  0.00    -0.287 OA
ENDROOT
BRANCH   1   3
ATOM      3  C   UNL d   1     -55.918 -98.943 -44.081  0.00  0.00     0.044 C 
BRANCH   3   4
ATOM      4  C   UNL d   1     -55.215 -99.370 -44.087  0.00  0.00     0.028 C 
BRANCH   4   5
ATOM      5  C   UNL d   1     -55.025-100.172 -44.132  0.00  0.00     0.100 A 
ATOM      6  O   UNL d   1     -54.934-100.667 -44.789  0.00  0.00    -0.305 OA
ATOM      7  C   UNL d   1     -54.742-101.421 -44.524  0.00  0.00     0.123 A 
ATOM      8  C   UNL d   1     -54.713-101.397 -43.690  0.00  0.00     0.029 A 
ATOM      9  C   UNL d   1     -54.886-100.631 -43.444  0.00  0.00     0.027 A 
ENDBRANCH   4   5
ENDBRANCH   3   4
ENDBRANCH   1   3
BRANCH   1  10
ATOM     10  C   UNL d   1     -57.322 -98.818 -44.362  0.00  0.00     0.039 A 
ATOM     11  C   UNL d   1     -57.505 -98.777 -43.558  0.00  0.00     0.006 A 
ATOM     12  C   UNL d   1     -58.293 -98.757 -43.317  0.00  0.00     0.042 A 
ATOM     13  C   UNL d   1     -58.900 -98.777 -43.879  0.00  0.00     0.196 A 
ATOM     14  C   UNL d   1     -58.710 -98.819 -44.689  0.00  0.00     0.042 A 
ATOM     15  O   UNL d   1     -59.688 -98.757 -43.637  0.00  0.00    -0.287 OA
ATOM     16  C   UNL d   1     -57.928 -98.839 -44.924  0.00  0.00     0.006 A 
ENDBRANCH   1  10
TORSDOF 4
ENDMDL
MODEL 2
REMARK VINA RESULT:      17.5      0.947      3.689
REMARK  4 active torsions:
REMARK  status: ('A' for Active; 'I' for Inactive)
REMARK    1  A    between atoms: C_3  and  C_1 
REMARK    2  A    between atoms: C_4  and  C_1 
REMARK    3  A    between atoms: C_2  and  C_3 
REMARK    4  A    between atoms: C_6  and  C_4 
ROOT
ATOM      1  C   UNL d   1     -55.353 -99.235 -44.298  0.00  0.00     0.196 C 
ATOM      2  O   UNL d   1     -54.712 -98.758 -44.086  0.00  0.00    -0.287 OA
ENDROOT
BRANCH   1   3
ATOM      3  C   UNL d   1     -56.077 -98.889 -44.489  0.00  0.00     0.044 C 
BRANCH   3   4
ATOM      4  C   UNL d   1     -56.778 -98.756 -44.080  0.00  0.00     0.028 C 
BRANCH   4   5
ATOM      5  C   UNL d   1     -57.579 -98.789 -44.277  0.00  0.00     0.100 A 
ATOM      6  O   UNL d   1     -58.249 -98.856 -43.796  0.00  0.00    -0.305 OA
ATOM      7  C   UNL d   1     -58.917 -98.864 -44.277  0.00  0.00     0.123 A 
ATOM      8  C   UNL d   1     -58.660 -98.802 -45.069  0.00  0.00     0.029 A 
ATOM      9  C   UNL d   1     -57.837 -98.755 -45.075  0.00  0.00     0.027 A 
ENDBRANCH   4   5
ENDBRANCH   3   4
ENDBRANCH   1   3
BRANCH   1  10
ATOM     10  C   UNL d   1     -55.257-100.057 -44.315  0.00  0.00     0.039 A 
ATOM     11  C   UNL d   1     -55.553-100.531 -43.708  0.00  0.00     0.006 A 
ATOM     12  C   UNL d   1     -55.450-101.349 -43.738  0.00  0.00     0.042 A 
ATOM     13  C   UNL d   1     -55.051-101.693 -44.376  0.00  0.00     0.196 A 
ATOM     14  C   UNL d   1     -54.754-101.210 -44.986  0.00  0.00     0.042 A 
ATOM     15  O   UNL d   1     -54.948-102.511 -44.406  0.00  0.00    -0.287 OA
ATOM     16  C   UNL d   1     -54.858-100.401 -44.953  0.00  0.00     0.006 A 
ENDBRANCH   1  10
TORSDOF 4
ENDMDL
