MODEL 1
REMARK VINA RESULT:      -3.7      0.000      0.000
REMARK  5 active torsions:
REMARK  status: ('A' for Active; 'I' for Inactive)
REMARK       I    between atoms: N_3  and  C_1 
REMARK    1  A    between atoms: C_6  and  C_1 
REMARK    2  A    between atoms: C_2  and  S_4 
REMARK    3  A    between atoms: C_7  and  N_3 
REMARK    4  A    between atoms: S_4  and  C_8 
REMARK    5  A    between atoms: C_15  and  C_6 
ROOT
ATOM      1  C   UNL d   1      58.720  -0.534  29.074  0.00  0.00     0.085 A 
ATOM      2  C   UNL d   1      59.878  -1.665  28.912  0.00  0.00     0.034 A 
ATOM      3  C   UNL d   1      58.521  -1.282  28.791  0.00  0.00     0.020 A 
ATOM      4  C   UNL d   1      59.488  -0.347  29.276  0.00  0.00     0.020 A 
ATOM      5  C   UNL d   1      60.073  -0.908  29.197  0.00  0.00     0.008 A 
ATOM      6  C   UNL d   1      59.106  -1.851  28.710  0.00  0.00     0.008 A 
ENDROOT
BRANCH   1   7
ATOM      7  N   UNL d   1      58.132   0.038  29.156  0.00  0.00    -0.208 NA
ATOM      8  C   UNL d   1      57.737   0.122  29.878  0.00  0.00     0.279 C 
ATOM      9  O   UNL d   1      57.159   0.682  29.964  0.00  0.00    -0.265 OA
BRANCH   8  10
ATOM     10  C   UNL d   1      57.936  -0.366  30.504  0.00  0.00     0.062 C 
BRANCH  10  11
ATOM     11  C   UNL d   1      57.548  -0.302  31.204  0.00  0.00     0.005 A 
ATOM     12  C   UNL d   1      57.720   0.320  31.725  0.00  0.00     0.000 A 
ATOM     13  C   UNL d   1      57.315   0.391  32.459  0.00  0.00     0.000 A 
ATOM     14  C   UNL d   1      56.731  -0.178  32.660  0.00  0.00     0.000 A 
ATOM     15  C   UNL d   1      56.555  -0.807  32.136  0.00  0.00     0.000 A 
ATOM     16  C   UNL d   1      56.966  -0.863  31.411  0.00  0.00     0.000 A 
ENDBRANCH  10  11
ENDBRANCH   8  10
ENDBRANCH   1   7
BRANCH   2  17
ATOM     17  S   UNL d   1      60.464  -2.228  28.833  0.00  0.00    -0.028 SA
BRANCH  17  18
ATOM     18  C   UNL d   1      60.461  -2.903  29.297  0.00  0.00     0.309 C 
ATOM     19  F   UNL d   1      60.285  -3.623  28.960  0.00  0.00    -0.165 F 
ATOM     20  F   UNL d   1      60.631  -2.861  30.087  0.00  0.00    -0.165 F 
ENDBRANCH  17  18
ENDBRANCH   2  17
TORSDOF 5
ENDMDL
MODEL 2
REMARK VINA RESULT:      -3.2      3.251      4.823
REMARK  5 active torsions:
REMARK  status: ('A' for Active; 'I' for Inactive)
REMARK       I    between atoms: N_3  and  C_1 
REMARK    1  A    between atoms: C_6  and  C_1 
REMARK    2  A    between atoms: C_2  and  S_4 
REMARK    3  A    between atoms: C_7  and  N_3 
REMARK    4  A    between atoms: S_4  and  C_8 
REMARK    5  A    between atoms: C_15  and  C_6 
ROOT
ATOM      1  C   UNL d   1      57.392   0.418  32.338  0.00  0.00     0.085 A 
ATOM      2  C   UNL d   1      55.987  -0.105  32.967  0.00  0.00     0.034 A 
ATOM      3  C   UNL d   1      57.401  -0.107  32.973  0.00  0.00     0.020 A 
ATOM      4  C   UNL d   1      56.691   0.682  32.016  0.00  0.00     0.020 A 
ATOM      5  C   UNL d   1      55.984   0.424  32.326  0.00  0.00     0.008 A 
ATOM      6  C   UNL d   1      56.691  -0.370  33.289  0.00  0.00     0.008 A 
ENDROOT
BRANCH   1   7
ATOM      7  N   UNL d   1      58.106   0.682  32.020  0.00  0.00    -0.208 NA
ATOM      8  C   UNL d   1      58.342   0.424  31.270  0.00  0.00     0.279 C 
ATOM      9  O   UNL d   1      59.042   0.680  30.953  0.00  0.00    -0.265 OA
BRANCH   8  10
ATOM     10  C   UNL d   1      57.863  -0.091  30.852  0.00  0.00     0.062 C 
BRANCH  10  11
ATOM     11  C   UNL d   1      58.129  -0.427  30.173  0.00  0.00     0.005 A 
ATOM     12  C   UNL d   1      58.357  -1.224  30.158  0.00  0.00     0.000 A 
ATOM     13  C   UNL d   1      58.636  -1.578  29.448  0.00  0.00     0.000 A 
ATOM     14  C   UNL d   1      58.682  -1.115  28.749  0.00  0.00     0.000 A 
ATOM     15  C   UNL d   1      58.452  -0.309  28.761  0.00  0.00     0.000 A 
ATOM     16  C   UNL d   1      58.177   0.028  29.475  0.00  0.00     0.000 A 
ENDBRANCH  10  11
ENDBRANCH   8  10
ENDBRANCH   1   7
BRANCH   2  17
ATOM     17  S   UNL d   1      55.277  -0.364  33.278  0.00  0.00    -0.028 SA
BRANCH  17  18
ATOM     18  C   UNL d   1      54.890   0.071  33.854  0.00  0.00     0.309 C 
ATOM     19  F   UNL d   1      54.292   0.582  33.641  0.00  0.00    -0.165 F 
ATOM     20  F   UNL d   1      55.095  -0.002  34.633  0.00  0.00    -0.165 F 
ENDBRANCH  17  18
ENDBRANCH   2  17
TORSDOF 5
ENDMDL
MODEL 3
REMARK VINA RESULT:      -1.9      8.459      9.128
REMARK  5 active torsions:
REMARK  status: ('A' for Active; 'I' for Inactive)
REMARK       I    between atoms: N_3  and  C_1 
REMARK    1  A    between atoms: C_6  and  C_1 
REMARK    2  A    between atoms: C_2  and  S_4 
REMARK    3  A    between atoms: C_7  and  N_3 
REMARK    4  A    between atoms: S_4  and  C_8 
REMARK    5  A    between atoms: C_15  and  C_6 
ROOT
ATOM      1  C   UNL d   1      59.716  -9.781  33.891  0.00  0.00     0.085 A 
ATOM      2  C   UNL d   1      60.655  -9.774  32.564  0.00  0.00     0.034 A 
ATOM      3  C   UNL d   1      59.365  -9.769  33.145  0.00  0.00     0.020 A 
ATOM      4  C   UNL d   1      60.526  -9.790  33.979  0.00  0.00     0.020 A 
ATOM      5  C   UNL d   1      61.003  -9.787  33.319  0.00  0.00     0.008 A 
ATOM      6  C   UNL d   1      59.841  -9.765  32.477  0.00  0.00     0.008 A 
ENDROOT
BRANCH   1   7
ATOM      7  N   UNL d   1      59.238  -9.784  34.564  0.00  0.00    -0.208 NA
ATOM      8  C   UNL d   1      59.361  -9.223  35.159  0.00  0.00     0.279 C 
ATOM      9  O   UNL d   1      58.895  -9.221  35.820  0.00  0.00    -0.265 OA
BRANCH   8  10
ATOM     10  C   UNL d   1      59.958  -8.669  35.072  0.00  0.00     0.062 C 
BRANCH  10  11
ATOM     11  C   UNL d   1      59.922  -7.974  35.471  0.00  0.00     0.005 A 
ATOM     12  C   UNL d   1      59.216  -7.539  35.499  0.00  0.00     0.000 A 
ATOM     13  C   UNL d   1      59.176  -6.811  35.916  0.00  0.00     0.000 A 
ATOM     14  C   UNL d   1      59.862  -6.524  36.307  0.00  0.00     0.000 A 
ATOM     15  C   UNL d   1      60.576  -6.960  36.281  0.00  0.00     0.000 A 
ATOM     16  C   UNL d   1      60.599  -7.683  35.862  0.00  0.00     0.000 A 
ENDBRANCH  10  11
ENDBRANCH   8  10
ENDBRANCH   1   7
BRANCH   2  17
ATOM     17  S   UNL d   1      61.133  -9.771  31.902  0.00  0.00    -0.028 SA
BRANCH  17  18
ATOM     18  C   UNL d   1      60.984  -9.259  31.281  0.00  0.00     0.309 C 
ATOM     19  F   UNL d   1      60.684  -9.550  30.582  0.00  0.00    -0.165 F 
ATOM     20  F   UNL d   1      61.130  -8.467  31.354  0.00  0.00    -0.165 F 
ENDBRANCH  17  18
ENDBRANCH   2  17
TORSDOF 5
ENDMDL
