MODEL 1
REMARK VINA RESULT:      38.4      0.000      0.000
REMARK  3 active torsions:
REMARK  status: ('A' for Active; 'I' for Inactive)
REMARK    1  A    between atoms: C_4  and  C_1 
REMARK    2  A    between atoms: N_7  and  C_4 
REMARK    3  A    between atoms: C_9  and  N_7 
ROOT
ATOM      1  C   UNL d   1      59.135  49.665  51.338  0.00  0.00     0.171 C 
ATOM      2  S   UNL d   1      59.044  49.655  52.169  0.00  0.00    -0.054 SA
ENDROOT
BRANCH   1   3
ATOM      3  C   UNL d   1      58.474  49.633  50.850  0.00  0.00     0.191 A 
ATOM      4  N   UNL d   1      58.483  49.567  50.022  0.00  0.00    -0.223 NA
ATOM      5  C   UNL d   1      57.699  49.556  49.762  0.00  0.00     0.101 A 
ATOM      6  C   UNL d   1      57.374  49.499  49.002  0.00  0.00     0.021 A 
ATOM      7  C   UNL d   1      57.207  49.614  50.424  0.00  0.00     0.101 A 
ATOM      8  C   UNL d   1      56.553  49.502  48.916  0.00  0.00     0.002 A 
ATOM      9  C   UNL d   1      56.061  49.560  49.579  0.00  0.00     0.002 A 
ATOM     10  C   UNL d   1      56.389  49.616  50.330  0.00  0.00     0.021 A 
ATOM     11  N   UNL d   1      57.691  49.661  51.090  0.00  0.00    -0.223 NA
ENDBRANCH   1   3
BRANCH   1  12
ATOM     12  N   UNL d   1      59.893  49.706  51.015  0.00  0.00    -0.232 NA
BRANCH  12  13
ATOM     13  C   UNL d   1      60.559  49.608  51.494  0.00  0.00     0.082 A 
ATOM     14  C   UNL d   1      61.316  49.658  51.160  0.00  0.00     0.019 A 
ATOM     15  C   UNL d   1      61.979  49.560  51.637  0.00  0.00     0.002 A 
ATOM     16  C   UNL d   1      61.893  49.411  52.452  0.00  0.00     0.000 A 
ATOM     17  C   UNL d   1      61.132  49.362  52.776  0.00  0.00     0.002 A 
ATOM     18  C   UNL d   1      62.556  49.313  52.928  0.00  0.00     0.000 C 
ATOM     19  C   UNL d   1      60.471  49.461  52.296  0.00  0.00     0.019 A 
ENDBRANCH  12  13
ENDBRANCH   1  12
TORSDOF 3
ENDMDL
