MODEL 1
REMARK VINA RESULT:      33.8      0.000      0.000
REMARK  5 active torsions:
REMARK  status: ('A' for Active; 'I' for Inactive)
REMARK    1  A    between atoms: N_2  and  C_1 
REMARK    2  A    between atoms: N_3  and  C_1 
REMARK       I    between atoms: C_4  and  N_2 
REMARK    3  A    between atoms: C_7  and  N_3 
REMARK    4  A    between atoms: C_8  and  C_4 
REMARK    5  A    between atoms: C_9  and  C_8 
ROOT
ATOM      1  C   UNL d   1     -55.628 -99.674 -44.677  0.00  0.00     0.209 C 
ATOM      2  S   UNL d   1     -55.493 -99.172 -44.016  0.00  0.00    -0.038 SA
ENDROOT
BRANCH   1   3
ATOM      3  N   UNL d   1     -56.158 -99.458 -45.225  0.00  0.00    -0.180 NA
ATOM      4  C   UNL d   1     -56.803 -99.012 -45.033  0.00  0.00     0.281 C 
ATOM      5  O   UNL d   1     -57.359 -98.787 -45.615  0.00  0.00    -0.265 OA
BRANCH   4   6
ATOM      6  C   UNL d   1     -56.923 -98.771 -44.262  0.00  0.00     0.063 C 
BRANCH   6   7
ATOM      7  C   UNL d   1     -57.683 -98.769 -43.940  0.00  0.00     0.005 A 
ATOM      8  C   UNL d   1     -58.331 -98.776 -44.442  0.00  0.00     0.000 A 
ATOM      9  C   UNL d   1     -59.108 -98.775 -44.131  0.00  0.00     0.000 A 
ATOM     10  C   UNL d   1     -59.208 -98.767 -43.311  0.00  0.00     0.000 A 
ATOM     11  C   UNL d   1     -58.563 -98.759 -42.801  0.00  0.00     0.000 A 
ATOM     12  C   UNL d   1     -57.779 -98.761 -43.109  0.00  0.00     0.000 A 
ENDBRANCH   6   7
ENDBRANCH   4   6
ENDBRANCH   1   3
BRANCH   1  13
ATOM     13  N   UNL d   1     -55.216-100.366 -44.741  0.00  0.00    -0.281 N 
ATOM     14  C   UNL d   1     -54.911-100.696 -45.505  0.00  0.00     0.101 C 
BRANCH  13  15
ATOM     15  C   UNL d   1     -55.052-100.808 -44.094  0.00  0.00     0.066 A 
ATOM     16  C   UNL d   1     -54.944-100.473 -43.348  0.00  0.00     0.018 A 
ATOM     17  C   UNL d   1     -54.777-100.937 -42.691  0.00  0.00     0.002 A 
ATOM     18  C   UNL d   1     -54.711-101.775 -42.769  0.00  0.00     0.000 A 
ATOM     19  C   UNL d   1     -54.819-102.111 -43.515  0.00  0.00     0.002 A 
ATOM     20  C   UNL d   1     -54.989-101.624 -44.175  0.00  0.00     0.018 A 
ENDBRANCH  13  15
ENDBRANCH   1  13
TORSDOF 5
ENDMDL
