MODEL 1
REMARK VINA RESULT:      60.3      0.000      0.000
REMARK  4 active torsions:
REMARK  status: ('A' for Active; 'I' for Inactive)
REMARK    1  A    between atoms: C_8  and  N_1 
REMARK    2  A    between atoms: C_2  and  C_4 
REMARK       I    between atoms: C_4  and  N_5 
REMARK    3  A    between atoms: N_5  and  C_7 
REMARK    4  A    between atoms: O_19  and  C_14 
ROOT
ATOM      1  C   UNL d   1      60.924  48.605  50.615  0.00  0.00     0.108 A 
ATOM      2  C   UNL d   1      60.912  49.230  51.840  0.00  0.00     0.128 A 
ATOM      3  C   UNL d   1      61.232  48.672  51.367  0.00  0.00     0.045 A 
ATOM      4  C   UNL d   1      60.331  49.070  50.355  0.00  0.00     0.112 A 
ATOM      5  C   UNL d   1      60.335  49.708  51.638  0.00  0.00     0.026 A 
ATOM      6  C   UNL d   1      60.013  49.649  50.874  0.00  0.00     0.027 A 
ENDROOT
BRANCH   1   7
ATOM      7  N   UNL d   1      61.259  47.994  50.065  0.00  0.00    -0.206 NA
ATOM      8  C   UNL d   1      61.294  47.204  50.336  0.00  0.00     0.285 C 
ATOM      9  O   UNL d   1      61.016  47.044  51.096  0.00  0.00    -0.265 OA
BRANCH   8  10
ATOM     10  C   UNL d   1      61.596  46.590  49.868  0.00  0.00     0.088 A 
ATOM     11  S   UNL d   1      61.235  45.880  49.644  0.00  0.00    -0.075 SA
ATOM     12  C   UNL d   1      61.785  45.463  49.172  0.00  0.00     0.064 A 
ATOM     13 BR   UNL d   1      61.663  44.730  48.828  0.00  0.00    -0.042 Br
ATOM     14  C   UNL d   1      62.477  45.941  49.123  0.00  0.00     0.014 A 
ATOM     15  C   UNL d   1      62.332  46.607  49.549  0.00  0.00     0.012 A 
ENDBRANCH   8  10
ENDBRANCH   1   7
BRANCH   4  16
ATOM     16  O   UNL d   1      60.009  49.012  49.593  0.00  0.00    -0.327 OA
ATOM     17  C   UNL d   1      59.481  49.651  49.305  0.00  0.00     0.181 C 
ENDBRANCH   4  16
BRANCH   2  18
ATOM     18  N   UNL d   1      61.256  49.298  52.665  0.00  0.00    -0.114 N 
ATOM     19  O   UNL d   1      60.747  49.242  53.363  0.00  0.00    -0.532 OA
ATOM     20  O   UNL d   1      62.086  49.417  52.735  0.00  0.00    -0.532 OA
ENDBRANCH   2  18
TORSDOF 4
ENDMDL
MODEL 2
REMARK VINA RESULT:      60.8      1.121      2.062
REMARK  4 active torsions:
REMARK  status: ('A' for Active; 'I' for Inactive)
REMARK    1  A    between atoms: C_8  and  N_1 
REMARK    2  A    between atoms: C_2  and  C_4 
REMARK       I    between atoms: C_4  and  N_5 
REMARK    3  A    between atoms: N_5  and  C_7 
REMARK    4  A    between atoms: O_19  and  C_14 
ROOT
ATOM      1  C   UNL d   1      60.659  48.713  50.889  0.00  0.00     0.108 A 
ATOM      2  C   UNL d   1      59.433  49.333  50.948  0.00  0.00     0.128 A 
ATOM      3  C   UNL d   1      59.922  48.834  50.561  0.00  0.00     0.045 A 
ATOM      4  C   UNL d   1      60.889  49.070  51.562  0.00  0.00     0.112 A 
ATOM      5  C   UNL d   1      59.606  49.706  51.606  0.00  0.00     0.026 A 
ATOM      6  C   UNL d   1      60.354  49.590  51.949  0.00  0.00     0.027 A 
ENDROOT
BRANCH   1   7
ATOM      7  N   UNL d   1      61.227  48.163  50.482  0.00  0.00    -0.206 NA
ATOM      8  C   UNL d   1      61.002  47.362  50.401  0.00  0.00     0.285 C 
ATOM      9  O   UNL d   1      60.269  47.134  50.704  0.00  0.00    -0.265 OA
BRANCH   8  10
ATOM     10  C   UNL d   1      61.489  46.803  50.031  0.00  0.00     0.088 A 
ATOM     11  S   UNL d   1      61.376  45.987  49.947  0.00  0.00    -0.075 SA
ATOM     12  C   UNL d   1      62.036  45.690  49.528  0.00  0.00     0.064 A 
ATOM     13 BR   UNL d   1      62.157  44.907  49.320  0.00  0.00    -0.042 Br
ATOM     14  C   UNL d   1      62.540  46.345  49.367  0.00  0.00     0.014 A 
ATOM     15  C   UNL d   1      62.185  46.995  49.680  0.00  0.00     0.012 A 
ENDBRANCH   8  10
ENDBRANCH   1   7
BRANCH   4  16
ATOM     16  O   UNL d   1      61.636  48.955  51.905  0.00  0.00    -0.327 OA
ATOM     17  C   UNL d   1      61.903  49.504  52.536  0.00  0.00     0.181 C 
ENDBRANCH   4  16
BRANCH   2  18
ATOM     18  N   UNL d   1      58.625  49.461  50.582  0.00  0.00    -0.114 N 
ATOM     19  O   UNL d   1      58.541  49.602  49.732  0.00  0.00    -0.532 OA
ATOM     20  O   UNL d   1      57.956  49.440  51.092  0.00  0.00    -0.532 OA
ENDBRANCH   2  18
TORSDOF 4
ENDMDL
MODEL 3
REMARK VINA RESULT:      61.4      2.428      3.699
REMARK  4 active torsions:
REMARK  status: ('A' for Active; 'I' for Inactive)
REMARK    1  A    between atoms: C_8  and  N_1 
REMARK    2  A    between atoms: C_2  and  C_4 
REMARK       I    between atoms: C_4  and  N_5 
REMARK    3  A    between atoms: N_5  and  C_7 
REMARK    4  A    between atoms: O_19  and  C_14 
ROOT
ATOM      1  C   UNL d   1      60.087  48.371  50.589  0.00  0.00     0.108 A 
ATOM      2  C   UNL d   1      61.119  48.780  51.399  0.00  0.00     0.128 A 
ATOM      3  C   UNL d   1      60.408  48.941  51.075  0.00  0.00     0.045 A 
ATOM      4  C   UNL d   1      60.458  47.682  50.438  0.00  0.00     0.112 A 
ATOM      5  C   UNL d   1      61.523  48.127  51.287  0.00  0.00     0.026 A 
ATOM      6  C   UNL d   1      61.206  47.538  50.793  0.00  0.00     0.027 A 
ENDROOT
BRANCH   1   7
ATOM      7  N   UNL d   1      59.296  48.521  50.213  0.00  0.00    -0.206 NA
ATOM      8  C   UNL d   1      58.791  49.078  50.578  0.00  0.00     0.285 C 
ATOM      9  O   UNL d   1      59.060  49.453  51.262  0.00  0.00    -0.265 OA
BRANCH   8  10
ATOM     10  C   UNL d   1      58.042  49.260  50.273  0.00  0.00     0.088 A 
ATOM     11  S   UNL d   1      57.815  49.384  49.487  0.00  0.00    -0.075 SA
ATOM     12  C   UNL d   1      56.995  49.549  49.491  0.00  0.00     0.064 A 
ATOM     13 BR   UNL d   1      56.536  49.707  48.832  0.00  0.00    -0.042 Br
ATOM     14  C   UNL d   1      56.744  49.520  50.294  0.00  0.00     0.014 A 
ATOM     15  C   UNL d   1      57.392  49.345  50.736  0.00  0.00     0.012 A 
ENDBRANCH   8  10
ENDBRANCH   1   7
BRANCH   4  16
ATOM     16  O   UNL d   1      60.141  47.094  49.946  0.00  0.00    -0.327 OA
ATOM     17  C   UNL d   1      60.676  46.672  49.392  0.00  0.00     0.181 C 
ENDBRANCH   4  16
BRANCH   2  18
ATOM     18  N   UNL d   1      61.466  49.411  51.933  0.00  0.00    -0.114 N 
ATOM     19  O   UNL d   1      62.270  49.706  51.806  0.00  0.00    -0.532 OA
ATOM     20  O   UNL d   1      60.985  49.705  52.557  0.00  0.00    -0.532 OA
ENDBRANCH   2  18
TORSDOF 4
ENDMDL
