MODEL 1
REMARK VINA RESULT:      29.9      0.000      0.000
REMARK  4 active torsions:
REMARK  status: ('A' for Active; 'I' for Inactive)
REMARK    1  A    between atoms: N_6  and  C_2 
REMARK    2  A    between atoms: C_7  and  C_3 
REMARK    3  A    between atoms: C_10  and  N_6 
REMARK    4  A    between atoms: O_14  and  C_11 
ROOT
ATOM      1  N   UNL d   1      13.320  13.104  -3.424  0.00  0.00    -0.221 NA
ATOM      2  C   UNL d   1      13.055  12.928  -4.182  0.00  0.00     0.194 A 
ATOM      3  C   UNL d   1      13.548  12.402  -3.078  0.00  0.00     0.090 A 
ATOM      4  S   UNL d   1      13.128  12.121  -4.279  0.00  0.00    -0.046 SA
ATOM      5  C   UNL d   1      13.430  11.790  -3.606  0.00  0.00     0.058 A 
ENDROOT
BRANCH   3   6
ATOM      6  C   UNL d   1      13.855  12.249  -2.328  0.00  0.00     0.018 A 
ATOM      7  C   UNL d   1      13.388  12.075  -1.719  0.00  0.00     0.004 A 
ATOM      8  C   UNL d   1      13.714  11.922  -0.967  0.00  0.00     0.024 A 
ATOM      9  C   UNL d   1      14.492  11.954  -0.874  0.00  0.00     0.094 A 
ATOM     10  C   UNL d   1      14.995  12.132  -1.486  0.00  0.00     0.024 A 
ATOM     11  C   UNL d   1      14.688  12.285  -2.236  0.00  0.00     0.004 A 
BRANCH   9  12
ATOM     12  O   UNL d   1      14.813  11.796  -0.100  0.00  0.00    -0.328 OA
ATOM     13  C   UNL d   1      15.638  11.781  -0.016  0.00  0.00     0.181 C 
ENDBRANCH   9  12
ENDBRANCH   3   6
BRANCH   2  14
ATOM     14  N   UNL d   1      12.771  13.482  -4.728  0.00  0.00    -0.221 NA
BRANCH  14  15
ATOM     15  C   UNL d   1      13.114  14.221  -4.772  0.00  0.00     0.084 A 
ATOM     16  C   UNL d   1      12.793  14.870  -4.357  0.00  0.00     0.019 A 
ATOM     17  C   UNL d   1      13.136  15.635  -4.395  0.00  0.00     0.002 A 
ATOM     18  C   UNL d   1      13.813  15.748  -4.857  0.00  0.00     0.000 A 
ATOM     19  C   UNL d   1      14.146  15.081  -5.286  0.00  0.00     0.002 A 
ATOM     20  C   UNL d   1      13.804  14.337  -5.243  0.00  0.00     0.019 A 
ENDBRANCH  14  15
ENDBRANCH   2  14
TORSDOF 4
ENDMDL
MODEL 2
REMARK VINA RESULT:      30.7      1.792      4.344
REMARK  4 active torsions:
REMARK  status: ('A' for Active; 'I' for Inactive)
REMARK    1  A    between atoms: N_6  and  C_2 
REMARK    2  A    between atoms: C_7  and  C_3 
REMARK    3  A    between atoms: C_10  and  N_6 
REMARK    4  A    between atoms: O_14  and  C_11 
ROOT
ATOM      1  N   UNL d   1      13.925  12.954  -3.096  0.00  0.00    -0.221 NA
ATOM      2  C   UNL d   1      13.848  12.162  -2.889  0.00  0.00     0.194 A 
ATOM      3  C   UNL d   1      13.397  13.099  -3.699  0.00  0.00     0.090 A 
ATOM      4  S   UNL d   1      13.273  11.843  -3.372  0.00  0.00    -0.046 SA
ATOM      5  C   UNL d   1      12.990  12.412  -3.874  0.00  0.00     0.058 A 
ENDROOT
BRANCH   3   6
ATOM      6  C   UNL d   1      13.237  13.792  -4.117  0.00  0.00     0.018 A 
ATOM      7  C   UNL d   1      12.924  14.422  -3.766  0.00  0.00     0.004 A 
ATOM      8  C   UNL d   1      12.769  15.115  -4.203  0.00  0.00     0.024 A 
ATOM      9  C   UNL d   1      12.938  15.131  -4.968  0.00  0.00     0.094 A 
ATOM     10  C   UNL d   1      13.262  14.494  -5.353  0.00  0.00     0.024 A 
ATOM     11  C   UNL d   1      13.421  13.801  -4.936  0.00  0.00     0.004 A 
BRANCH   9  12
ATOM     12  O   UNL d   1      12.774  15.846  -5.403  0.00  0.00    -0.328 OA
ATOM     13  C   UNL d   1      13.274  16.040  -6.036  0.00  0.00     0.181 C 
ENDBRANCH   9  12
ENDBRANCH   3   6
BRANCH   2  14
ATOM     14  N   UNL d   1      14.283  11.780  -2.297  0.00  0.00    -0.221 NA
BRANCH  14  15
ATOM     15  C   UNL d   1      14.326  12.106  -1.550  0.00  0.00     0.084 A 
ATOM     16  C   UNL d   1      14.865  12.720  -1.379  0.00  0.00     0.019 A 
ATOM     17  C   UNL d   1      14.918  13.063  -0.615  0.00  0.00     0.002 A 
ATOM     18  C   UNL d   1      14.422  12.783  -0.014  0.00  0.00     0.000 A 
ATOM     19  C   UNL d   1      13.866  12.150  -0.188  0.00  0.00     0.002 A 
ATOM     20  C   UNL d   1      13.821  11.821  -0.938  0.00  0.00     0.019 A 
ENDBRANCH  14  15
ENDBRANCH   2  14
TORSDOF 4
ENDMDL
