MODEL 1
REMARK VINA RESULT:      -3.3      0.000      0.000
REMARK  6 active torsions:
REMARK  status: ('A' for Active; 'I' for Inactive)
REMARK    1  A    between atoms: C_13  and  C_3 
REMARK    2  A    between atoms: S_12  and  C_4 
REMARK    3  A    between atoms: C_8  and  C_6 
REMARK    4  A    between atoms: O_17  and  C_8 
REMARK    5  A    between atoms: C_10  and  C_16 
REMARK    6  A    between atoms: C_16  and  S_12 
ROOT
ATOM      1  O   UNL d   1      32.515  18.244 -23.104  0.00  0.00    -0.263 OA
ATOM      2  N   UNL d   1      32.875  18.061 -24.375  0.00  0.00    -0.120 NA
ATOM      3  C   UNL d   1      32.508  17.706 -23.738  0.00  0.00     0.205 A 
ATOM      4  C   UNL d   1      32.892  18.931 -23.368  0.00  0.00     0.236 A 
ATOM      5  N   UNL d   1      33.113  18.819 -24.149  0.00  0.00    -0.114 NA
ENDROOT
BRANCH   4   6
ATOM      6  S   UNL d   1      33.029  19.625 -22.924  0.00  0.00    -0.039 SA
BRANCH   6   7
ATOM      7  C   UNL d   1      32.948  19.613 -22.103  0.00  0.00     0.064 C 
BRANCH   7   8
ATOM      8  C   UNL d   1      32.860  20.321 -21.692  0.00  0.00     0.107 A 
ATOM      9  O   UNL d   1      32.457  21.021 -21.870  0.00  0.00    -0.301 OA
ATOM     10  C   UNL d   1      32.569  21.550 -21.235  0.00  0.00     0.163 A 
ATOM     11  C   UNL d   1      33.037  21.169 -20.676  0.00  0.00     0.032 A 
ATOM     12  C   UNL d   1      33.217  20.421 -20.948  0.00  0.00     0.027 A 
BRANCH  10  13
ATOM     13  C   UNL d   1      32.264  22.319 -21.176  0.00  0.00     0.319 C 
ATOM     14  O   UNL d   1      31.718  22.500 -20.579  0.00  0.00    -0.257 OA
BRANCH  13  15
ATOM     15  O   UNL d   1      32.500  22.906 -21.706  0.00  0.00    -0.294 OA
ATOM     16  C   UNL d   1      32.146  23.656 -21.690  0.00  0.00     0.185 C 
ENDBRANCH  13  15
ENDBRANCH  10  13
ENDBRANCH   7   8
ENDBRANCH   6   7
ENDBRANCH   4   6
BRANCH   3  17
ATOM     17  C   UNL d   1      32.172  16.954 -23.672  0.00  0.00     0.046 A 
ATOM     18  C   UNL d   1      31.380  16.846 -23.858  0.00  0.00     0.024 A 
ATOM     19  C   UNL d   1      31.037  16.100 -23.795  0.00  0.00     0.099 A 
ATOM     20  N   UNL d   1      31.487  15.453 -23.545  0.00  0.00    -0.242 NA
ATOM     21  C   UNL d   1      32.288  15.563 -23.358  0.00  0.00     0.099 A 
ATOM     22  C   UNL d   1      32.624  16.310 -23.422  0.00  0.00     0.024 A 
ENDBRANCH   3  17
TORSDOF 6
ENDMDL
MODEL 2
REMARK VINA RESULT:      -2.9      1.928      5.493
REMARK  6 active torsions:
REMARK  status: ('A' for Active; 'I' for Inactive)
REMARK    1  A    between atoms: C_13  and  C_3 
REMARK    2  A    between atoms: S_12  and  C_4 
REMARK    3  A    between atoms: C_8  and  C_6 
REMARK    4  A    between atoms: O_17  and  C_8 
REMARK    5  A    between atoms: C_10  and  C_16 
REMARK    6  A    between atoms: C_16  and  S_12 
ROOT
ATOM      1  O   UNL d   1      32.735  20.974 -22.020  0.00  0.00    -0.263 OA
ATOM      2  N   UNL d   1      33.109  20.722 -20.765  0.00  0.00    -0.120 NA
ATOM      3  C   UNL d   1      32.800  21.296 -21.257  0.00  0.00     0.205 A 
ATOM      4  C   UNL d   1      33.010  20.195 -21.983  0.00  0.00     0.236 A 
ATOM      5  N   UNL d   1      33.240  20.040 -21.212  0.00  0.00    -0.114 NA
ENDROOT
BRANCH   4   6
ATOM      6  S   UNL d   1      33.051  19.652 -22.616  0.00  0.00    -0.039 SA
BRANCH   6   7
ATOM      7  C   UNL d   1      32.975  18.842 -22.472  0.00  0.00     0.064 C 
BRANCH   7   8
ATOM      8  C   UNL d   1      32.754  18.338 -23.084  0.00  0.00     0.107 A 
ATOM      9  O   UNL d   1      32.097  17.848 -23.189  0.00  0.00    -0.301 OA
ATOM     10  C   UNL d   1      32.178  17.466 -23.928  0.00  0.00     0.163 A 
ATOM     11  C   UNL d   1      32.881  17.727 -24.264  0.00  0.00     0.032 A 
ATOM     12  C   UNL d   1      33.237  18.258 -23.756  0.00  0.00     0.027 A 
BRANCH  10  13
ATOM     13  C   UNL d   1      31.647  16.924 -24.261  0.00  0.00     0.319 C 
ATOM     14  O   UNL d   1      31.801  16.111 -24.205  0.00  0.00    -0.257 OA
BRANCH  13  15
ATOM     15  O   UNL d   1      30.966  17.185 -24.649  0.00  0.00    -0.294 OA
ATOM     16  C   UNL d   1      30.405  16.644 -24.927  0.00  0.00     0.185 C 
ENDBRANCH  13  15
ENDBRANCH  10  13
ENDBRANCH   7   8
ENDBRANCH   6   7
ENDBRANCH   4   6
BRANCH   3  17
ATOM     17  C   UNL d   1      32.573  22.073 -21.086  0.00  0.00     0.046 A 
ATOM     18  C   UNL d   1      32.448  22.296 -20.307  0.00  0.00     0.024 A 
ATOM     19  C   UNL d   1      32.222  23.068 -20.128  0.00  0.00     0.099 A 
ATOM     20  N   UNL d   1      32.120  23.624 -20.731  0.00  0.00    -0.242 NA
ATOM     21  C   UNL d   1      32.247  23.396 -21.519  0.00  0.00     0.099 A 
ATOM     22  C   UNL d   1      32.473  22.625 -21.691  0.00  0.00     0.024 A 
ENDBRANCH   3  17
TORSDOF 6
ENDMDL
MODEL 3
REMARK VINA RESULT:      -2.6      1.631      2.859
REMARK  6 active torsions:
REMARK  status: ('A' for Active; 'I' for Inactive)
REMARK    1  A    between atoms: C_13  and  C_3 
REMARK    2  A    between atoms: S_12  and  C_4 
REMARK    3  A    between atoms: C_8  and  C_6 
REMARK    4  A    between atoms: O_17  and  C_8 
REMARK    5  A    between atoms: C_10  and  C_16 
REMARK    6  A    between atoms: C_16  and  S_12 
ROOT
ATOM      1  O   UNL d   1      30.641  16.986 -24.043  0.00  0.00    -0.263 OA
ATOM      2  N   UNL d   1      31.068  15.749 -24.298  0.00  0.00    -0.120 NA
ATOM      3  C   UNL d   1      30.412  16.189 -24.096  0.00  0.00     0.205 A 
ATOM      4  C   UNL d   1      31.449  17.022 -24.216  0.00  0.00     0.236 A 
ATOM      5  N   UNL d   1      31.712  16.262 -24.373  0.00  0.00    -0.114 NA
ENDROOT
BRANCH   4   6
ATOM      6  S   UNL d   1      31.924  17.708 -24.232  0.00  0.00    -0.039 SA
BRANCH   6   7
ATOM      7  C   UNL d   1      32.515  17.815 -23.665  0.00  0.00     0.064 C 
BRANCH   7   8
ATOM      8  C   UNL d   1      32.753  18.577 -23.463  0.00  0.00     0.107 A 
ATOM      9  O   UNL d   1      32.759  18.984 -22.743  0.00  0.00    -0.301 OA
ATOM     10  C   UNL d   1      33.065  19.748 -22.883  0.00  0.00     0.163 A 
ATOM     11  C   UNL d   1      33.241  19.799 -23.684  0.00  0.00     0.032 A 
ATOM     12  C   UNL d   1      33.053  19.091 -24.043  0.00  0.00     0.027 A 
BRANCH  10  13
ATOM     13  C   UNL d   1      33.171  20.345 -22.319  0.00  0.00     0.319 C 
ATOM     14  O   UNL d   1      33.214  21.137 -22.562  0.00  0.00    -0.257 OA
BRANCH  13  15
ATOM     15  O   UNL d   1      33.236  20.160 -21.517  0.00  0.00    -0.294 OA
ATOM     16  C   UNL d   1      33.222  20.758 -20.943  0.00  0.00     0.185 C 
ENDBRANCH  13  15
ENDBRANCH  10  13
ENDBRANCH   7   8
ENDBRANCH   6   7
ENDBRANCH   4   6
BRANCH   3  17
ATOM     17  C   UNL d   1      29.634  15.946 -23.957  0.00  0.00     0.046 A 
ATOM     18  C   UNL d   1      29.161  15.716 -24.587  0.00  0.00     0.024 A 
ATOM     19  C   UNL d   1      28.385  15.472 -24.457  0.00  0.00     0.099 A 
ATOM     20  N   UNL d   1      28.076  15.456 -23.691  0.00  0.00    -0.242 NA
ATOM     21  C   UNL d   1      28.554  15.688 -23.054  0.00  0.00     0.099 A 
ATOM     22  C   UNL d   1      29.328  15.931 -23.190  0.00  0.00     0.024 A 
ENDBRANCH   3  17
TORSDOF 6
ENDMDL
MODEL 4
REMARK VINA RESULT:      -2.6      1.090      1.425
REMARK  6 active torsions:
REMARK  status: ('A' for Active; 'I' for Inactive)
REMARK    1  A    between atoms: C_13  and  C_3 
REMARK    2  A    between atoms: S_12  and  C_4 
REMARK    3  A    between atoms: C_8  and  C_6 
REMARK    4  A    between atoms: O_17  and  C_8 
REMARK    5  A    between atoms: C_10  and  C_16 
REMARK    6  A    between atoms: C_16  and  S_12 
ROOT
ATOM      1  O   UNL d   1      32.857  18.851 -22.643  0.00  0.00    -0.263 OA
ATOM      2  N   UNL d   1      33.003  18.944 -23.965  0.00  0.00    -0.120 NA
ATOM      3  C   UNL d   1      32.797  18.436 -23.361  0.00  0.00     0.205 A 
ATOM      4  C   UNL d   1      33.103  19.619 -22.823  0.00  0.00     0.236 A 
ATOM      5  N   UNL d   1      33.193  19.677 -23.635  0.00  0.00    -0.114 NA
ENDROOT
BRANCH   4   6
ATOM      6  S   UNL d   1      33.239  20.237 -22.278  0.00  0.00    -0.039 SA
BRANCH   6   7
ATOM      7  C   UNL d   1      32.602  20.636 -21.937  0.00  0.00     0.064 C 
BRANCH   7   8
ATOM      8  C   UNL d   1      32.732  21.337 -21.524  0.00  0.00     0.107 A 
ATOM      9  O   UNL d   1      32.721  21.516 -20.717  0.00  0.00    -0.301 OA
ATOM     10  C   UNL d   1      32.898  22.328 -20.633  0.00  0.00     0.163 A 
ATOM     11  C   UNL d   1      33.015  22.634 -21.387  0.00  0.00     0.032 A 
ATOM     12  C   UNL d   1      32.916  22.036 -21.934  0.00  0.00     0.027 A 
BRANCH  10  13
ATOM     13  C   UNL d   1      32.946  22.749 -19.921  0.00  0.00     0.319 C 
ATOM     14  O   UNL d   1      32.853  23.572 -19.923  0.00  0.00    -0.257 OA
BRANCH  13  15
ATOM     15  O   UNL d   1      33.087  22.355 -19.208  0.00  0.00    -0.294 OA
ATOM     16  C   UNL d   1      33.195  22.781 -18.505  0.00  0.00     0.185 C 
ENDBRANCH  13  15
ENDBRANCH  10  13
ENDBRANCH   7   8
ENDBRANCH   6   7
ENDBRANCH   4   6
BRANCH   3  17
ATOM     17  C   UNL d   1      32.563  17.644 -23.393  0.00  0.00     0.046 A 
ATOM     18  C   UNL d   1      31.779  17.459 -23.554  0.00  0.00     0.024 A 
ATOM     19  C   UNL d   1      31.538  16.672 -23.588  0.00  0.00     0.099 A 
ATOM     20  N   UNL d   1      32.080  16.062 -23.460  0.00  0.00    -0.242 NA
ATOM     21  C   UNL d   1      32.872  16.251 -23.296  0.00  0.00     0.099 A 
ATOM     22  C   UNL d   1      33.107  17.037 -23.264  0.00  0.00     0.024 A 
ENDBRANCH   3  17
TORSDOF 6
ENDMDL
MODEL 5
REMARK VINA RESULT:      -2.6      1.995      5.368
REMARK  6 active torsions:
REMARK  status: ('A' for Active; 'I' for Inactive)
REMARK    1  A    between atoms: C_13  and  C_3 
REMARK    2  A    between atoms: S_12  and  C_4 
REMARK    3  A    between atoms: C_8  and  C_6 
REMARK    4  A    between atoms: O_17  and  C_8 
REMARK    5  A    between atoms: C_10  and  C_16 
REMARK    6  A    between atoms: C_16  and  S_12 
ROOT
ATOM      1  O   UNL d   1      32.475  19.416 -22.916  0.00  0.00    -0.263 OA
ATOM      2  N   UNL d   1      33.240  18.966 -21.921  0.00  0.00    -0.120 NA
ATOM      3  C   UNL d   1      32.890  19.635 -22.231  0.00  0.00     0.205 A 
ATOM      4  C   UNL d   1      32.579  18.602 -23.017  0.00  0.00     0.236 A 
ATOM      5  N   UNL d   1      33.049  18.325 -22.406  0.00  0.00    -0.114 NA
ENDROOT
BRANCH   4   6
ATOM      6  S   UNL d   1      32.264  18.133 -23.632  0.00  0.00    -0.039 SA
BRANCH   6   7
ATOM      7  C   UNL d   1      32.159  17.322 -23.522  0.00  0.00     0.064 C 
BRANCH   7   8
ATOM      8  C   UNL d   1      31.515  16.943 -23.869  0.00  0.00     0.107 A 
ATOM      9  O   UNL d   1      30.706  16.959 -23.703  0.00  0.00    -0.301 OA
ATOM     10  C   UNL d   1      30.322  16.456 -24.248  0.00  0.00     0.163 A 
ATOM     11  C   UNL d   1      30.901  16.139 -24.739  0.00  0.00     0.032 A 
ATOM     12  C   UNL d   1      31.629  16.431 -24.514  0.00  0.00     0.027 A 
BRANCH  10  13
ATOM     13  C   UNL d   1      29.509  16.304 -24.288  0.00  0.00     0.319 C 
ATOM     14  O   UNL d   1      29.107  16.399 -25.007  0.00  0.00    -0.257 OA
BRANCH  13  15
ATOM     15  O   UNL d   1      29.094  16.057 -23.618  0.00  0.00    -0.294 OA
ATOM     16  C   UNL d   1      28.265  16.064 -23.608  0.00  0.00     0.185 C 
ENDBRANCH  13  15
ENDBRANCH  10  13
ENDBRANCH   7   8
ENDBRANCH   6   7
ENDBRANCH   4   6
BRANCH   3  17
ATOM     17  C   UNL d   1      32.908  20.416 -21.959  0.00  0.00     0.046 A 
ATOM     18  C   UNL d   1      33.207  21.007 -22.443  0.00  0.00     0.024 A 
ATOM     19  C   UNL d   1      33.228  21.787 -22.179  0.00  0.00     0.099 A 
ATOM     20  N   UNL d   1      32.950  21.982 -21.426  0.00  0.00    -0.242 NA
ATOM     21  C   UNL d   1      32.648  21.383 -20.937  0.00  0.00     0.099 A 
ATOM     22  C   UNL d   1      32.629  20.606 -21.206  0.00  0.00     0.024 A 
ENDBRANCH   3  17
TORSDOF 6
ENDMDL
MODEL 6
REMARK VINA RESULT:      -2.3      3.250      6.090
REMARK  6 active torsions:
REMARK  status: ('A' for Active; 'I' for Inactive)
REMARK    1  A    between atoms: C_13  and  C_3 
REMARK    2  A    between atoms: S_12  and  C_4 
REMARK    3  A    between atoms: C_8  and  C_6 
REMARK    4  A    between atoms: O_17  and  C_8 
REMARK    5  A    between atoms: C_10  and  C_16 
REMARK    6  A    between atoms: C_16  and  S_12 
ROOT
ATOM      1  O   UNL d   1      32.985  22.255 -19.543  0.00  0.00    -0.263 OA
ATOM      2  N   UNL d   1      32.722  23.513 -19.899  0.00  0.00    -0.120 NA
ATOM      3  C   UNL d   1      32.782  23.009 -19.259  0.00  0.00     0.205 A 
ATOM      4  C   UNL d   1      33.047  22.310 -20.365  0.00  0.00     0.236 A 
ATOM      5  N   UNL d   1      32.885  23.083 -20.585  0.00  0.00    -0.114 NA
ENDROOT
BRANCH   4   6
ATOM      6  S   UNL d   1      33.241  21.691 -20.891  0.00  0.00    -0.039 SA
BRANCH   6   7
ATOM      7  C   UNL d   1      32.642  21.242 -21.241  0.00  0.00     0.064 C 
BRANCH   7   8
ATOM      8  C   UNL d   1      32.831  20.538 -21.623  0.00  0.00     0.107 A 
ATOM      9  O   UNL d   1      32.814  20.316 -22.419  0.00  0.00    -0.301 OA
ATOM     10  C   UNL d   1      33.069  19.523 -22.470  0.00  0.00     0.163 A 
ATOM     11  C   UNL d   1      33.238  19.269 -21.706  0.00  0.00     0.032 A 
ATOM     12  C   UNL d   1      33.095  19.882 -21.186  0.00  0.00     0.027 A 
BRANCH  10  13
ATOM     13  C   UNL d   1      33.140  19.072 -23.162  0.00  0.00     0.319 C 
ATOM     14  O   UNL d   1      33.200  18.247 -23.110  0.00  0.00    -0.257 OA
BRANCH  13  15
ATOM     15  O   UNL d   1      33.150  19.437 -23.902  0.00  0.00    -0.294 OA
ATOM     16  C   UNL d   1      32.972  19.007 -24.588  0.00  0.00     0.185 C 
ENDBRANCH  13  15
ENDBRANCH  10  13
ENDBRANCH   7   8
ENDBRANCH   6   7
ENDBRANCH   4   6
BRANCH   3  17
ATOM     17  C   UNL d   1      32.673  23.161 -18.454  0.00  0.00     0.046 A 
ATOM     18  C   UNL d   1      31.992  23.545 -18.202  0.00  0.00     0.024 A 
ATOM     19  C   UNL d   1      31.876  23.700 -17.401  0.00  0.00     0.099 A 
ATOM     20  N   UNL d   1      32.442  23.472 -16.845  0.00  0.00    -0.242 NA
ATOM     21  C   UNL d   1      33.130  23.084 -17.101  0.00  0.00     0.099 A 
ATOM     22  C   UNL d   1      33.241  22.932 -17.901  0.00  0.00     0.024 A 
ENDBRANCH   3  17
TORSDOF 6
ENDMDL
MODEL 7
REMARK VINA RESULT:      -0.6      2.929      5.604
REMARK  6 active torsions:
REMARK  status: ('A' for Active; 'I' for Inactive)
REMARK    1  A    between atoms: C_13  and  C_3 
REMARK    2  A    between atoms: S_12  and  C_4 
REMARK    3  A    between atoms: C_8  and  C_6 
REMARK    4  A    between atoms: O_17  and  C_8 
REMARK    5  A    between atoms: C_10  and  C_16 
REMARK    6  A    between atoms: C_16  and  S_12 
ROOT
ATOM      1  O   UNL d   1      31.727  17.292 -23.954  0.00  0.00    -0.263 OA
ATOM      2  N   UNL d   1      32.998  16.903 -23.853  0.00  0.00    -0.120 NA
ATOM      3  C   UNL d   1      32.516  17.554 -23.951  0.00  0.00     0.205 A 
ATOM      4  C   UNL d   1      31.739  16.472 -23.855  0.00  0.00     0.236 A 
ATOM      5  N   UNL d   1      32.520  16.232 -23.793  0.00  0.00    -0.114 NA
ENDROOT
BRANCH   4   6
ATOM      6  S   UNL d   1      31.077  15.965 -23.823  0.00  0.00    -0.039 SA
BRANCH   6   7
ATOM      7  C   UNL d   1      30.710  15.808 -23.100  0.00  0.00     0.064 C 
BRANCH   7   8
ATOM      8  C   UNL d   1      29.894  15.700 -23.071  0.00  0.00     0.107 A 
ATOM      9  O   UNL d   1      29.310  15.719 -23.656  0.00  0.00    -0.301 OA
ATOM     10  C   UNL d   1      28.576  15.567 -23.290  0.00  0.00     0.163 A 
ATOM     11  C   UNL d   1      28.718  15.458 -22.488  0.00  0.00     0.032 A 
ATOM     12  C   UNL d   1      29.518  15.537 -22.347  0.00  0.00     0.027 A 
BRANCH  10  13
ATOM     13  C   UNL d   1      27.838  15.533 -23.665  0.00  0.00     0.319 C 
ATOM     14  O   UNL d   1      27.797  15.537 -24.494  0.00  0.00    -0.257 OA
BRANCH  13  15
ATOM     15  O   UNL d   1      27.142  15.495 -23.222  0.00  0.00    -0.294 OA
ATOM     16  C   UNL d   1      26.418  15.728 -23.552  0.00  0.00     0.185 C 
ENDBRANCH  13  15
ENDBRANCH  10  13
ENDBRANCH   7   8
ENDBRANCH   6   7
ENDBRANCH   4   6
BRANCH   3  17
ATOM     17  C   UNL d   1      32.715  18.352 -24.039  0.00  0.00     0.046 A 
ATOM     18  C   UNL d   1      32.897  18.799 -23.375  0.00  0.00     0.024 A 
ATOM     19  C   UNL d   1      33.097  19.594 -23.454  0.00  0.00     0.099 A 
ATOM     20  N   UNL d   1      33.115  19.949 -24.199  0.00  0.00    -0.242 NA
ATOM     21  C   UNL d   1      32.930  19.496 -24.870  0.00  0.00     0.099 A 
ATOM     22  C   UNL d   1      32.732  18.703 -24.785  0.00  0.00     0.024 A 
ENDBRANCH   3  17
TORSDOF 6
ENDMDL
