MODEL 1
REMARK VINA RESULT:      60.9      0.000      0.000
REMARK  7 active torsions:
REMARK  status: ('A' for Active; 'I' for Inactive)
REMARK    1  A    between atoms: S_6  and  C_1 
REMARK    2  A    between atoms: C_12  and  N_2 
REMARK       I    between atoms: N_4  and  C_8 
REMARK    3  A    between atoms: C_5  and  N_4 
REMARK    4  A    between atoms: C_15  and  S_6 
REMARK    5  A    between atoms: O_18  and  C_7 
REMARK    6  A    between atoms: C_8  and  C_15 
REMARK    7  A    between atoms: O_19  and  C_16 
ROOT
ATOM      1  N   UNL d   1     -49.167  27.281  33.970  0.00  0.00    -0.206 NA
ATOM      2  C   UNL d   1     -49.161  28.030  34.296  0.00  0.00     0.286 C 
ATOM      3  O   UNL d   1     -49.866  28.404  34.497  0.00  0.00    -0.265 OA
ENDROOT
BRANCH   2   4
ATOM      4  C   UNL d   1     -48.455  28.410  34.424  0.00  0.00     0.101 C 
BRANCH   4   5
ATOM      5  S   UNL d   1     -48.441  29.196  34.676  0.00  0.00    -0.044 SA
BRANCH   5   6
ATOM      6  C   UNL d   1     -47.929  29.431  35.283  0.00  0.00     0.180 A 
ATOM      7  N   UNL d   1     -47.622  30.183  35.385  0.00  0.00    -0.284 N 
ATOM      8  C   UNL d   1     -47.140  30.164  36.057  0.00  0.00     0.103 A 
ATOM      9  C   UNL d   1     -47.156  29.387  36.367  0.00  0.00     0.120 A 
ATOM     10  N   UNL d   1     -47.640  28.950  35.884  0.00  0.00    -0.219 NA
BRANCH   7  11
ATOM     11  C   UNL d   1     -47.745  30.859  34.928  0.00  0.00     0.066 A 
ATOM     12  C   UNL d   1     -47.137  31.409  34.836  0.00  0.00     0.018 A 
ATOM     13  C   UNL d   1     -47.260  32.085  34.379  0.00  0.00     0.002 A 
ATOM     14  C   UNL d   1     -47.990  32.211  34.015  0.00  0.00     0.000 A 
ATOM     15  C   UNL d   1     -48.589  31.662  34.110  0.00  0.00     0.002 A 
ATOM     16  C   UNL d   1     -48.467  30.986  34.566  0.00  0.00     0.018 A 
ENDBRANCH   7  11
ENDBRANCH   5   6
ENDBRANCH   4   5
ENDBRANCH   2   4
BRANCH   1  17
ATOM     17  C   UNL d   1     -49.875  26.891  33.839  0.00  0.00     0.107 A 
ATOM     18  C   UNL d   1     -49.881  26.124  33.559  0.00  0.00     0.114 A 
ATOM     19  C   UNL d   1     -50.586  25.738  33.429  0.00  0.00     0.050 A 
ATOM     20  C   UNL d   1     -51.303  26.122  33.579  0.00  0.00     0.096 A 
ATOM     21  C   UNL d   1     -51.305  26.902  33.863  0.00  0.00     0.026 A 
ATOM     22  C   UNL d   1     -50.586  27.282  33.991  0.00  0.00     0.023 A 
BRANCH  18  23
ATOM     23  O   UNL d   1     -49.176  25.734  33.407  0.00  0.00    -0.327 OA
ATOM     24  C   UNL d   1     -49.161  24.899  33.373  0.00  0.00     0.181 C 
ENDBRANCH  18  23
BRANCH  20  25
ATOM     25  O   UNL d   1     -52.022  25.723  33.445  0.00  0.00    -0.328 OA
ATOM     26  C   UNL d   1     -52.021  24.903  33.322  0.00  0.00     0.181 C 
ENDBRANCH  20  25
ENDBRANCH   1  17
TORSDOF 7
ENDMDL
MODEL 2
REMARK VINA RESULT:      62.0      1.381      5.314
REMARK  7 active torsions:
REMARK  status: ('A' for Active; 'I' for Inactive)
REMARK    1  A    between atoms: S_6  and  C_1 
REMARK    2  A    between atoms: C_12  and  N_2 
REMARK       I    between atoms: N_4  and  C_8 
REMARK    3  A    between atoms: C_5  and  N_4 
REMARK    4  A    between atoms: C_15  and  S_6 
REMARK    5  A    between atoms: O_18  and  C_7 
REMARK    6  A    between atoms: C_8  and  C_15 
REMARK    7  A    between atoms: O_19  and  C_16 
ROOT
ATOM      1  N   UNL d   1     -47.993  28.755  35.122  0.00  0.00    -0.206 NA
ATOM      2  C   UNL d   1     -48.614  28.446  34.690  0.00  0.00     0.286 C 
ATOM      3  O   UNL d   1     -49.108  28.941  34.256  0.00  0.00    -0.265 OA
ENDROOT
BRANCH   2   4
ATOM      4  C   UNL d   1     -48.746  27.645  34.689  0.00  0.00     0.101 C 
BRANCH   4   5
ATOM      5  S   UNL d   1     -49.403  27.328  34.300  0.00  0.00    -0.044 SA
BRANCH   5   6
ATOM      6  C   UNL d   1     -49.351  26.590  33.929  0.00  0.00     0.180 A 
ATOM      7  N   UNL d   1     -49.980  26.165  33.623  0.00  0.00    -0.284 N 
ATOM      8  C   UNL d   1     -49.674  25.464  33.307  0.00  0.00     0.103 A 
ATOM      9  C   UNL d   1     -48.846  25.466  33.423  0.00  0.00     0.120 A 
ATOM     10  N   UNL d   1     -48.662  26.159  33.804  0.00  0.00    -0.219 NA
BRANCH   7  11
ATOM     11  C   UNL d   1     -50.781  26.360  33.612  0.00  0.00     0.066 A 
ATOM     12  C   UNL d   1     -51.021  27.099  33.331  0.00  0.00     0.018 A 
ATOM     13  C   UNL d   1     -51.823  27.294  33.320  0.00  0.00     0.002 A 
ATOM     14  C   UNL d   1     -52.384  26.752  33.589  0.00  0.00     0.000 A 
ATOM     15  C   UNL d   1     -52.141  26.022  33.866  0.00  0.00     0.002 A 
ATOM     16  C   UNL d   1     -51.340  25.826  33.877  0.00  0.00     0.018 A 
ENDBRANCH   7  11
ENDBRANCH   5   6
ENDBRANCH   4   5
ENDBRANCH   2   4
BRANCH   1  17
ATOM     17  C   UNL d   1     -47.854  29.563  35.128  0.00  0.00     0.107 A 
ATOM     18  C   UNL d   1     -47.613  29.936  35.813  0.00  0.00     0.114 A 
ATOM     19  C   UNL d   1     -47.475  30.739  35.818  0.00  0.00     0.050 A 
ATOM     20  C   UNL d   1     -47.579  31.182  35.127  0.00  0.00     0.096 A 
ATOM     21  C   UNL d   1     -47.823  30.809  34.428  0.00  0.00     0.026 A 
ATOM     22  C   UNL d   1     -47.960  29.997  34.434  0.00  0.00     0.023 A 
BRANCH  18  23
ATOM     23  O   UNL d   1     -47.507  29.507  36.504  0.00  0.00    -0.327 OA
ATOM     24  C   UNL d   1     -46.753  29.471  36.860  0.00  0.00     0.181 C 
ENDBRANCH  18  23
BRANCH  20  25
ATOM     25  O   UNL d   1     -47.436  32.003  35.137  0.00  0.00    -0.328 OA
ATOM     26  C   UNL d   1     -47.651  32.465  34.483  0.00  0.00     0.181 C 
ENDBRANCH  20  25
ENDBRANCH   1  17
TORSDOF 7
ENDMDL
MODEL 3
REMARK VINA RESULT:      62.5      1.450      5.610
REMARK  7 active torsions:
REMARK  status: ('A' for Active; 'I' for Inactive)
REMARK    1  A    between atoms: S_6  and  C_1 
REMARK    2  A    between atoms: C_12  and  N_2 
REMARK       I    between atoms: N_4  and  C_8 
REMARK    3  A    between atoms: C_5  and  N_4 
REMARK    4  A    between atoms: C_15  and  S_6 
REMARK    5  A    between atoms: O_18  and  C_7 
REMARK    6  A    between atoms: C_8  and  C_15 
REMARK    7  A    between atoms: O_19  and  C_16 
ROOT
ATOM      1  N   UNL d   1     -48.405  28.450  34.219  0.00  0.00    -0.206 NA
ATOM      2  C   UNL d   1     -48.864  27.778  34.283  0.00  0.00     0.286 C 
ATOM      3  O   UNL d   1     -48.956  27.402  35.010  0.00  0.00    -0.265 OA
ENDROOT
BRANCH   2   4
ATOM      4  C   UNL d   1     -49.234  27.477  33.627  0.00  0.00     0.101 C 
BRANCH   4   5
ATOM      5  S   UNL d   1     -49.675  26.780  33.675  0.00  0.00    -0.044 SA
BRANCH   5   6
ATOM      6  C   UNL d   1     -50.494  26.796  33.556  0.00  0.00     0.180 A 
ATOM      7  N   UNL d   1     -50.971  26.143  33.427  0.00  0.00    -0.284 N 
ATOM      8  C   UNL d   1     -51.746  26.417  33.337  0.00  0.00     0.103 A 
ATOM      9  C   UNL d   1     -51.738  27.250  33.413  0.00  0.00     0.120 A 
ATOM     10  N   UNL d   1     -50.968  27.468  33.546  0.00  0.00    -0.219 NA
BRANCH   7  11
ATOM     11  C   UNL d   1     -50.759  25.347  33.387  0.00  0.00     0.066 A 
ATOM     12  C   UNL d   1     -49.962  25.134  33.357  0.00  0.00     0.018 A 
ATOM     13  C   UNL d   1     -49.750  24.337  33.317  0.00  0.00     0.002 A 
ATOM     14  C   UNL d   1     -50.334  23.754  33.306  0.00  0.00     0.000 A 
ATOM     15  C   UNL d   1     -51.123  23.971  33.336  0.00  0.00     0.002 A 
ATOM     16  C   UNL d   1     -51.335  24.767  33.376  0.00  0.00     0.018 A 
ENDBRANCH   7  11
ENDBRANCH   5   6
ENDBRANCH   4   5
ENDBRANCH   2   4
BRANCH   1  17
ATOM     17  C   UNL d   1     -48.029  28.760  34.878  0.00  0.00     0.107 A 
ATOM     18  C   UNL d   1     -48.077  29.558  35.046  0.00  0.00     0.114 A 
ATOM     19  C   UNL d   1     -47.703  29.864  35.702  0.00  0.00     0.050 A 
ATOM     20  C   UNL d   1     -47.270  29.367  36.202  0.00  0.00     0.096 A 
ATOM     21  C   UNL d   1     -47.216  28.556  36.037  0.00  0.00     0.026 A 
ATOM     22  C   UNL d   1     -47.599  28.258  35.372  0.00  0.00     0.023 A 
BRANCH  18  23
ATOM     23  O   UNL d   1     -48.504  30.058  34.557  0.00  0.00    -0.327 OA
ATOM     24  C   UNL d   1     -48.181  30.796  34.334  0.00  0.00     0.181 C 
ENDBRANCH  18  23
BRANCH  20  25
ATOM     25  O   UNL d   1     -46.889  29.685  36.871  0.00  0.00    -0.328 OA
ATOM     26  C   UNL d   1     -46.527  30.430  36.824  0.00  0.00     0.181 C 
ENDBRANCH  20  25
ENDBRANCH   1  17
TORSDOF 7
ENDMDL
