MODEL 1
REMARK VINA RESULT:      -4.4      0.000      0.000
REMARK  9 active torsions:
REMARK  status: ('A' for Active; 'I' for Inactive)
REMARK    1  A    between atoms: C_2  and  C_1 
REMARK    2  A    between atoms: C_23  and  C_7 
REMARK    3  A    between atoms: C_12  and  O_16 
REMARK    4  A    between atoms: C_18  and  C_12 
REMARK    5  A    between atoms: O_16  and  C_14 
REMARK    6  A    between atoms: C_30  and  C_17 
REMARK    7  A    between atoms: C_20  and  C_28 
REMARK    8  A    between atoms: O_25  and  C_23 
REMARK    9  A    between atoms: C_28  and  O_25 
ROOT
ATOM      1  C   UNL d   1     -47.693  13.452  22.863  0.00  0.00     0.098 A 
ATOM      2  C   UNL d   1     -46.940  13.613  22.539  0.00  0.00     0.202 A 
ATOM      3  C   UNL d   1     -46.323  13.074  22.631  0.00  0.00     0.062 A 
ATOM      4  C   UNL d   1     -47.819  12.740  23.281  0.00  0.00     0.130 A 
ATOM      5  C   UNL d   1     -46.449  12.362  23.048  0.00  0.00     0.105 A 
ATOM      6  O   UNL d   1     -47.200  12.188  23.378  0.00  0.00    -0.305 OA
ATOM      7  C   UNL d   1     -45.583  13.231  22.313  0.00  0.00     0.007 A 
ATOM      8  C   UNL d   1     -45.090  11.986  22.818  0.00  0.00     0.105 A 
ATOM      9  C   UNL d   1     -45.832  11.821  23.140  0.00  0.00     0.050 A 
ATOM     10  C   UNL d   1     -44.966  12.691  22.404  0.00  0.00     0.023 A 
ATOM     11  O   UNL d   1     -46.815  14.319  22.126  0.00  0.00    -0.286 OA
ENDROOT
BRANCH   1  12
ATOM     12  C   UNL d   1     -48.309  13.995  22.770  0.00  0.00     0.153 A 
ATOM     13  N   UNL d   1     -48.549  14.549  23.332  0.00  0.00    -0.227 NA
ATOM     14  C   UNL d   1     -49.178  14.975  23.012  0.00  0.00     0.099 A 
ATOM     15  C   UNL d   1     -49.635  15.589  23.312  0.00  0.00     0.021 A 
ATOM     16  C   UNL d   1     -49.326  14.683  22.254  0.00  0.00     0.083 A 
ATOM     17  C   UNL d   1     -50.241  15.915  22.857  0.00  0.00     0.002 A 
ATOM     18  C   UNL d   1     -50.383  15.617  22.096  0.00  0.00     0.002 A 
ATOM     19  C   UNL d   1     -49.929  15.006  21.797  0.00  0.00     0.019 A 
ATOM     20  N   UNL d   1     -48.785  14.077  22.109  0.00  0.00    -0.288 N 
ATOM     21  C   UNL d   1     -48.735  13.631  21.416  0.00  0.00     0.101 C 
ENDBRANCH   1  12
BRANCH   4  22
ATOM     22  C   UNL d   1     -48.569  12.577  23.604  0.00  0.00     0.142 C 
BRANCH  22  23
ATOM     23  O   UNL d   1     -48.911  11.833  23.501  0.00  0.00    -0.315 OA
BRANCH  23  24
ATOM     24  C   UNL d   1     -49.708  11.714  23.698  0.00  0.00     0.246 C 
BRANCH  24  25
ATOM     25  C   UNL d   1     -50.099  11.038  23.420  0.00  0.00     0.217 C 
ATOM     26  O   UNL d   1     -50.862  10.855  23.684  0.00  0.00    -0.645 OA
ATOM     27  O   UNL d   1     -49.722  10.546  22.876  0.00  0.00    -0.645 OA
ENDBRANCH  24  25
ENDBRANCH  23  24
ENDBRANCH  22  23
ENDBRANCH   4  22
BRANCH  10  28
ATOM     28  C   UNL d   1     -44.221  12.855  22.081  0.00  0.00     0.002 C 
ATOM     29  C   UNL d   1     -44.153  13.380  21.448  0.00  0.00     0.000 C 
ENDBRANCH  10  28
BRANCH   8  30
ATOM     30  O   UNL d   1     -44.474  11.446  22.909  0.00  0.00    -0.276 OA
BRANCH  30  31
ATOM     31  C   UNL d   1     -44.596  10.745  23.329  0.00  0.00     0.275 C 
ATOM     32  O   UNL d   1     -45.321  10.604  23.698  0.00  0.00    -0.264 OA
BRANCH  31  33
ATOM     33  C   UNL d   1     -43.990  10.182  23.380  0.00  0.00     0.078 C 
ATOM     34  C   UNL d   1     -43.379   9.618  23.430  0.00  0.00     0.010 C 
ATOM     35  C   UNL d   1     -44.554   9.580  23.414  0.00  0.00     0.010 C 
ATOM     36  C   UNL d   1     -43.428  10.793  23.344  0.00  0.00     0.010 C 
ENDBRANCH  31  33
ENDBRANCH  30  31
ENDBRANCH   8  30
TORSDOF 9
ENDMDL
MODEL 2
REMARK VINA RESULT:      -2.0      1.366      2.986
REMARK  9 active torsions:
REMARK  status: ('A' for Active; 'I' for Inactive)
REMARK    1  A    between atoms: C_2  and  C_1 
REMARK    2  A    between atoms: C_23  and  C_7 
REMARK    3  A    between atoms: C_12  and  O_16 
REMARK    4  A    between atoms: C_18  and  C_12 
REMARK    5  A    between atoms: O_16  and  C_14 
REMARK    6  A    between atoms: C_30  and  C_17 
REMARK    7  A    between atoms: C_20  and  C_28 
REMARK    8  A    between atoms: O_25  and  C_23 
REMARK    9  A    between atoms: C_28  and  O_25 
ROOT
ATOM      1  C   UNL d   1     -47.593  12.623  22.634  0.00  0.00     0.098 A 
ATOM      2  C   UNL d   1     -47.063  12.013  22.845  0.00  0.00     0.202 A 
ATOM      3  C   UNL d   1     -46.252  12.109  22.731  0.00  0.00     0.062 A 
ATOM      4  C   UNL d   1     -47.298  13.332  22.308  0.00  0.00     0.130 A 
ATOM      5  C   UNL d   1     -45.956  12.819  22.405  0.00  0.00     0.105 A 
ATOM      6  O   UNL d   1     -46.479  13.438  22.189  0.00  0.00    -0.305 OA
ATOM      7  C   UNL d   1     -45.730  11.510  22.938  0.00  0.00     0.007 A 
ATOM      8  C   UNL d   1     -44.626  12.309  22.501  0.00  0.00     0.105 A 
ATOM      9  C   UNL d   1     -45.145  12.916  22.291  0.00  0.00     0.050 A 
ATOM     10  C   UNL d   1     -44.918  11.607  22.824  0.00  0.00     0.023 A 
ATOM     11  O   UNL d   1     -47.355  11.310  23.168  0.00  0.00    -0.286 OA
ENDROOT
BRANCH   1  12
ATOM     12  C   UNL d   1     -48.406  12.523  22.749  0.00  0.00     0.153 A 
ATOM     13  N   UNL d   1     -48.849  12.862  23.356  0.00  0.00    -0.227 NA
ATOM     14  C   UNL d   1     -49.632  12.618  23.263  0.00  0.00     0.099 A 
ATOM     15  C   UNL d   1     -50.312  12.778  23.695  0.00  0.00     0.021 A 
ATOM     16  C   UNL d   1     -49.669  12.130  22.599  0.00  0.00     0.083 A 
ATOM     17  C   UNL d   1     -51.034  12.450  23.467  0.00  0.00     0.002 A 
ATOM     18  C   UNL d   1     -51.064  11.960  22.798  0.00  0.00     0.002 A 
ATOM     19  C   UNL d   1     -50.387  11.802  22.368  0.00  0.00     0.019 A 
ATOM     20  N   UNL d   1     -48.908  12.074  22.285  0.00  0.00    -0.288 N 
ATOM     21  C   UNL d   1     -48.693  11.640  21.616  0.00  0.00     0.101 C 
ENDBRANCH   1  12
BRANCH   4  22
ATOM     22  C   UNL d   1     -47.826  13.942  22.097  0.00  0.00     0.142 C 
BRANCH  22  23
ATOM     23  O   UNL d   1     -47.571  14.727  22.095  0.00  0.00    -0.315 OA
BRANCH  23  24
ATOM     24  C   UNL d   1     -47.993  15.297  21.667  0.00  0.00     0.246 C 
BRANCH  24  25
ATOM     25  C   UNL d   1     -48.708  15.589  21.971  0.00  0.00     0.217 C 
ATOM     26  O   UNL d   1     -49.403  15.549  21.524  0.00  0.00    -0.645 OA
ATOM     27  O   UNL d   1     -48.720  15.921  22.726  0.00  0.00    -0.645 OA
ENDBRANCH  24  25
ENDBRANCH  23  24
ENDBRANCH  22  23
ENDBRANCH   4  22
BRANCH  10  28
ATOM     28  C   UNL d   1     -44.395  11.000  23.034  0.00  0.00     0.002 C 
ATOM     29  C   UNL d   1     -44.683  10.315  23.394  0.00  0.00     0.000 C 
ENDBRANCH  10  28
BRANCH   8  30
ATOM     30  O   UNL d   1     -43.814  12.406  22.387  0.00  0.00    -0.276 OA
BRANCH  30  31
ATOM     31  C   UNL d   1     -43.535  12.991  21.875  0.00  0.00     0.275 C 
ATOM     32  O   UNL d   1     -43.994  13.658  21.718  0.00  0.00    -0.264 OA
BRANCH  31  33
ATOM     33  C   UNL d   1     -42.792  12.907  21.517  0.00  0.00     0.078 C 
ATOM     34  C   UNL d   1     -42.046  12.824  21.155  0.00  0.00     0.010 C 
ATOM     35  C   UNL d   1     -42.444  12.827  22.261  0.00  0.00     0.010 C 
ATOM     36  C   UNL d   1     -43.148  12.989  20.772  0.00  0.00     0.010 C 
ENDBRANCH  31  33
ENDBRANCH  30  31
ENDBRANCH   8  30
TORSDOF 9
ENDMDL
