MODEL 1
REMARK VINA RESULT:      -2.9      0.000      0.000
REMARK  6 active torsions:
REMARK  status: ('A' for Active; 'I' for Inactive)
REMARK    1  A    between atoms: C_5  and  C_1 
REMARK    2  A    between atoms: N_4  and  C_2 
REMARK       I    between atoms: C_3  and  N_4 
REMARK    3  A    between atoms: C_10  and  C_3 
REMARK    4  A    between atoms: O_15  and  C_5 
REMARK    5  A    between atoms: C_6  and  C_7 
REMARK    6  A    between atoms: O_16  and  C_6 
ROOT
ATOM      1  C   UNL d   1      59.020   0.044  29.772  0.00  0.00     0.093 A 
ATOM      2  C   UNL d   1      58.718  -0.716  29.874  0.00  0.00     0.140 A 
ATOM      3  C   UNL d   1      57.731  -0.203  30.771  0.00  0.00     0.066 A 
ATOM      4  C   UNL d   1      58.071  -0.839  30.376  0.00  0.00     0.038 A 
ATOM      5  C   UNL d   1      58.676   0.682  30.171  0.00  0.00     0.008 A 
ATOM      6  C   UNL d   1      58.033   0.558  30.669  0.00  0.00     0.006 A 
ENDROOT
BRANCH   2   7
ATOM      7  N   UNL d   1      59.056  -1.356  29.479  0.00  0.00    -0.368 NA
ATOM      8  C   UNL d   1      59.394  -1.991  29.087  0.00  0.00     0.303 C 
ATOM      9  O   UNL d   1      60.205  -2.009  28.945  0.00  0.00    -0.256 OA
BRANCH   8  10
ATOM     10  C   UNL d   1      58.917  -2.616  28.833  0.00  0.00     0.085 C 
ATOM     11  C   UNL d   1      58.195  -2.476  28.456  0.00  0.00     0.011 C 
ATOM     12  C   UNL d   1      59.576  -2.977  29.176  0.00  0.00     0.011 C 
ATOM     13  C   UNL d   1      59.160  -3.397  28.955  0.00  0.00     0.011 C 
ENDBRANCH   8  10
ENDBRANCH   2   7
BRANCH   1  14
ATOM     14  C   UNL d   1      59.663   0.168  29.274  0.00  0.00     0.298 C 
ATOM     15  O   UNL d   1      59.550   0.225  28.459  0.00  0.00    -0.259 OA
BRANCH  14  16
ATOM     16  O   UNL d   1      60.421   0.236  29.590  0.00  0.00    -0.296 OA
ATOM     17  C   UNL d   1      61.000   0.681  29.196  0.00  0.00     0.185 C 
ENDBRANCH  14  16
ENDBRANCH   1  14
BRANCH   3  18
ATOM     18  C   UNL d   1      57.087  -0.327  31.270  0.00  0.00     0.296 C 
ATOM     19  O   UNL d   1      56.480   0.230  31.309  0.00  0.00    -0.259 OA
BRANCH  18  20
ATOM     20  O   UNL d   1      57.046  -1.015  31.735  0.00  0.00    -0.296 OA
ATOM     21  C   UNL d   1      56.432  -1.113  32.274  0.00  0.00     0.185 C 
ENDBRANCH  18  20
ENDBRANCH   3  18
TORSDOF 6
ENDMDL
MODEL 2
REMARK VINA RESULT:      -2.4      1.091      3.279
REMARK  6 active torsions:
REMARK  status: ('A' for Active; 'I' for Inactive)
REMARK    1  A    between atoms: C_5  and  C_1 
REMARK    2  A    between atoms: N_4  and  C_2 
REMARK       I    between atoms: C_3  and  N_4 
REMARK    3  A    between atoms: C_10  and  C_3 
REMARK    4  A    between atoms: O_15  and  C_5 
REMARK    5  A    between atoms: C_6  and  C_7 
REMARK    6  A    between atoms: O_16  and  C_6 
ROOT
ATOM      1  C   UNL d   1      59.667  -0.727  29.570  0.00  0.00     0.093 A 
ATOM      2  C   UNL d   1      58.900  -1.005  29.690  0.00  0.00     0.140 A 
ATOM      3  C   UNL d   1      59.270  -2.268  29.135  0.00  0.00     0.066 A 
ATOM      4  C   UNL d   1      58.701  -1.778  29.472  0.00  0.00     0.038 A 
ATOM      5  C   UNL d   1      60.236  -1.222  29.231  0.00  0.00     0.008 A 
ATOM      6  C   UNL d   1      60.038  -1.990  29.014  0.00  0.00     0.006 A 
ENDROOT
BRANCH   2   7
ATOM      7  N   UNL d   1      58.327  -0.516  30.028  0.00  0.00    -0.368 NA
ATOM      8  C   UNL d   1      57.759  -0.029  30.361  0.00  0.00     0.303 C 
ATOM      9  O   UNL d   1      57.552   0.679  29.997  0.00  0.00    -0.256 OA
BRANCH   8  10
ATOM     10  C   UNL d   1      57.394  -0.251  31.068  0.00  0.00     0.085 C 
ATOM     11  C   UNL d   1      57.390  -1.040  31.317  0.00  0.00     0.011 C 
ATOM     12  C   UNL d   1      57.280   0.565  31.018  0.00  0.00     0.011 C 
ATOM     13  C   UNL d   1      57.025   0.319  31.540  0.00  0.00     0.011 C 
ENDBRANCH   8  10
ENDBRANCH   2   7
BRANCH   1  14
ATOM     14  C   UNL d   1      59.866   0.041  29.787  0.00  0.00     0.298 C 
ATOM     15  O   UNL d   1      59.637   0.677  29.313  0.00  0.00    -0.259 OA
BRANCH  14  16
ATOM     16  O   UNL d   1      60.294   0.176  30.477  0.00  0.00    -0.296 OA
ATOM     17  C   UNL d   1      60.957   0.676  30.467  0.00  0.00     0.185 C 
ENDBRANCH  14  16
ENDBRANCH   1  14
BRANCH   3  18
ATOM     18  C   UNL d   1      59.071  -3.038  28.918  0.00  0.00     0.296 C 
ATOM     19  O   UNL d   1      58.282  -3.279  28.927  0.00  0.00    -0.259 OA
BRANCH  18  20
ATOM     20  O   UNL d   1      59.663  -3.573  28.689  0.00  0.00    -0.296 OA
ATOM     21  C   UNL d   1      59.486  -4.372  28.601  0.00  0.00     0.185 C 
ENDBRANCH  18  20
ENDBRANCH   3  18
TORSDOF 6
ENDMDL
MODEL 3
REMARK VINA RESULT:      -2.1      0.912      1.253
REMARK  6 active torsions:
REMARK  status: ('A' for Active; 'I' for Inactive)
REMARK    1  A    between atoms: C_5  and  C_1 
REMARK    2  A    between atoms: N_4  and  C_2 
REMARK       I    between atoms: C_3  and  N_4 
REMARK    3  A    between atoms: C_10  and  C_3 
REMARK    4  A    between atoms: O_15  and  C_5 
REMARK    5  A    between atoms: C_6  and  C_7 
REMARK    6  A    between atoms: O_16  and  C_6 
ROOT
ATOM      1  C   UNL d   1      58.203   0.085  30.441  0.00  0.00     0.093 A 
ATOM      2  C   UNL d   1      57.932  -0.694  30.416  0.00  0.00     0.140 A 
ATOM      3  C   UNL d   1      57.115  -0.447  31.561  0.00  0.00     0.066 A 
ATOM      4  C   UNL d   1      57.387  -0.960  30.978  0.00  0.00     0.038 A 
ATOM      5  C   UNL d   1      57.927   0.598  31.029  0.00  0.00     0.008 A 
ATOM      6  C   UNL d   1      57.385   0.332  31.587  0.00  0.00     0.006 A 
ENDROOT
BRANCH   2   7
ATOM      7  N   UNL d   1      58.203  -1.210  29.832  0.00  0.00    -0.368 NA
ATOM      8  C   UNL d   1      58.471  -1.722  29.251  0.00  0.00     0.303 C 
ATOM      9  O   UNL d   1      58.401  -1.522  28.456  0.00  0.00    -0.256 OA
BRANCH   8  10
ATOM     10  C   UNL d   1      58.814  -2.442  29.467  0.00  0.00     0.085 C 
ATOM     11  C   UNL d   1      59.287  -2.504  30.141  0.00  0.00     0.011 C 
ATOM     12  C   UNL d   1      58.391  -2.605  28.776  0.00  0.00     0.011 C 
ATOM     13  C   UNL d   1      58.684  -3.115  29.004  0.00  0.00     0.011 C 
ENDBRANCH   8  10
ENDBRANCH   2   7
BRANCH   1  14
ATOM     14  C   UNL d   1      58.745   0.352  29.883  0.00  0.00     0.298 C 
ATOM     15  O   UNL d   1      58.506   0.486  29.105  0.00  0.00    -0.259 OA
BRANCH  14  16
ATOM     16  O   UNL d   1      59.528   0.484  30.102  0.00  0.00    -0.296 OA
ATOM     17  C   UNL d   1      60.095   0.681  29.528  0.00  0.00     0.185 C 
ENDBRANCH  14  16
ENDBRANCH   1  14
BRANCH   3  18
ATOM     18  C   UNL d   1      56.571  -0.714  32.120  0.00  0.00     0.296 C 
ATOM     19  O   UNL d   1      56.669  -1.455  32.471  0.00  0.00    -0.259 OA
BRANCH  18  20
ATOM     20  O   UNL d   1      55.923  -0.239  32.332  0.00  0.00    -0.296 OA
ATOM     21  C   UNL d   1      55.496  -0.406  33.015  0.00  0.00     0.185 C 
ENDBRANCH  18  20
ENDBRANCH   3  18
TORSDOF 6
ENDMDL
