MODEL 1
REMARK VINA RESULT:      13.5      0.000      0.000
REMARK  3 active torsions:
REMARK  status: ('A' for Active; 'I' for Inactive)
REMARK    1  A    between atoms: C_6  and  N_2 
REMARK    2  A    between atoms: C_7  and  C_6 
REMARK    3  A    between atoms: C_8  and  C_7 
ROOT
ATOM      1  N   UNL d   1      12.895  12.130  -4.776  0.00  0.00    -0.224 NA
ATOM      2  N   UNL d   1      13.110  12.303  -3.480  0.00  0.00    -0.287 N 
ATOM      3  C   UNL d   1      12.988  11.779  -4.067  0.00  0.00     0.183 A 
ATOM      4  C   UNL d   1      13.096  13.064  -3.836  0.00  0.00     0.083 A 
ATOM      5  C   UNL d   1      12.967  12.961  -4.613  0.00  0.00     0.099 A 
ATOM      6  C   UNL d   1      13.183  13.827  -3.552  0.00  0.00     0.019 A 
ATOM      7  C   UNL d   1      12.913  13.610  -5.178  0.00  0.00     0.021 A 
ATOM      8  C   UNL d   1      13.143  14.486  -4.034  0.00  0.00     0.002 A 
ATOM      9  C   UNL d   1      13.014  14.382  -4.811  0.00  0.00     0.002 A 
ENDROOT
BRANCH   2  10
ATOM     10  C   UNL d   1      13.232  12.165  -2.662  0.00  0.00     0.082 C 
BRANCH  10  11
ATOM     11  C   UNL d   1      13.894  11.779  -2.421  0.00  0.00     0.019 C 
BRANCH  11  12
ATOM     12  C   UNL d   1      14.116  11.818  -1.616  0.00  0.00     0.002 A 
ATOM     13  C   UNL d   1      13.516  11.779  -1.029  0.00  0.00     0.000 A 
ATOM     14  C   UNL d   1      13.737  11.818  -0.220  0.00  0.00     0.000 A 
ATOM     15  C   UNL d   1      14.530  11.893  -0.027  0.00  0.00     0.000 A 
ATOM     16  C   UNL d   1      15.128  11.932  -0.616  0.00  0.00     0.000 A 
ATOM     17  C   UNL d   1      14.908  11.893  -1.399  0.00  0.00     0.000 A 
ENDBRANCH  11  12
ENDBRANCH  10  11
ENDBRANCH   2  10
TORSDOF 3
ENDMDL
