MODEL 1
REMARK VINA RESULT:      31.6      0.000      0.000
REMARK  3 active torsions:
REMARK  status: ('A' for Active; 'I' for Inactive)
REMARK    1  A    between atoms: C_15  and  N_4 
REMARK    2  A    between atoms: C_11  and  N_10 
REMARK    3  A    between atoms: C_19  and  C_15 
ROOT
ATOM      1  C   UNL d   1      46.063 -16.942  42.901  0.00  0.00     0.191 A 
ATOM      2  C   UNL d   1      46.023 -17.229  43.678  0.00  0.00     0.173 A 
ATOM      3  C   UNL d   1      45.732 -15.913  43.702  0.00  0.00     0.722 A 
ATOM      4  N   UNL d   1      46.371 -18.547  43.233  0.00  0.00    -0.224 N 
ATOM      5  N   UNL d   1      45.886 -16.133  42.902  0.00  0.00    -0.042 NA
ATOM      6  N   UNL d   1      45.816 -16.581  44.174  0.00  0.00    -0.131 N 
ATOM      7  N   UNL d   1      46.262 -17.465  42.267  0.00  0.00    -0.240 N 
ATOM      8  C   UNL d   1      46.418 -18.286  42.446  0.00  0.00     0.343 A 
ATOM      9  C   UNL d   1      46.169 -17.998  43.853  0.00  0.00     0.288 A 
ATOM     10  N   UNL d   1      45.529 -15.282  44.187  0.00  0.00    -0.139 N 
ATOM     11  C   UNL d   1      45.664 -16.363  44.955  0.00  0.00     0.118 A 
ATOM     12  C   UNL d   1      45.488 -15.557  44.955  0.00  0.00     0.117 A 
ATOM     13  O   UNL d   1      46.620 -18.839  41.838  0.00  0.00    -0.245 OA
ATOM     14  O   UNL d   1      46.128 -18.290  44.646  0.00  0.00    -0.265 OA
ATOM     15  C   UNL d   1      46.306 -17.187  41.478  0.00  0.00     0.105 C 
ENDROOT
BRANCH  10  16
ATOM     16  C   UNL d   1      45.392 -14.505  43.940  0.00  0.00     0.082 A 
ATOM     17  C   UNL d   1      45.789 -13.892  44.310  0.00  0.00     0.027 A 
ATOM     18  C   UNL d   1      45.653 -13.125  44.067  0.00  0.00     0.059 A 
ATOM     19  C   UNL d   1      46.324 -14.043  44.925  0.00  0.00     0.002 C 
ATOM     20 CL   UNL d   1      46.087 -12.559  44.484  0.00  0.00    -0.082 Cl
ATOM     21  C   UNL d   1      45.120 -12.966  43.453  0.00  0.00     0.011 A 
ATOM     22  C   UNL d   1      44.721 -13.587  43.083  0.00  0.00     0.002 A 
ATOM     23  C   UNL d   1      44.861 -14.360  43.330  0.00  0.00     0.018 A 
ENDBRANCH  10  16
BRANCH   4  24
ATOM     24  C   UNL d   1      46.571 -19.305  42.977  0.00  0.00     0.087 C 
BRANCH  24  25
ATOM     25  C   UNL d   1      46.166 -19.952  43.274  0.00  0.00     0.018 C 
ATOM     26  C   UNL d   1      46.341 -20.228  44.032  0.00  0.00     0.002 C 
ATOM     27  C   UNL d   1      45.592 -20.330  42.834  0.00  0.00     0.002 C 
ENDBRANCH  24  25
ENDBRANCH   4  24
TORSDOF 3
ENDMDL
