MODEL 1
REMARK VINA RESULT:      -4.4      0.000      0.000
REMARK  6 active torsions:
REMARK  status: ('A' for Active; 'I' for Inactive)
REMARK    1  A    between atoms: C_2  and  C_1 
REMARK       I    between atoms: N_6  and  C_1 
REMARK    2  A    between atoms: O_15  and  C_3 
REMARK    3  A    between atoms: O_17  and  C_4 
REMARK    4  A    between atoms: O_16  and  C_5 
REMARK    5  A    between atoms: C_12  and  N_6 
REMARK    6  A    between atoms: N_11  and  C_9 
ROOT
ATOM      1  C   UNL d   1      58.743  -0.431  29.616  0.00  0.00     0.074 A 
ATOM      2  C   UNL d   1      60.159  -1.247  29.418  0.00  0.00     0.138 A 
ATOM      3  C   UNL d   1      59.446  -1.622  29.277  0.00  0.00     0.118 A 
ATOM      4  C   UNL d   1      60.159  -0.463  29.658  0.00  0.00     0.118 A 
ATOM      5  C   UNL d   1      58.735  -1.227  29.372  0.00  0.00     0.032 A 
ATOM      6  C   UNL d   1      59.456  -0.041  29.762  0.00  0.00     0.032 A 
ENDROOT
BRANCH   1   7
ATOM      7  C   UNL d   1      58.033  -0.022  29.715  0.00  0.00     0.328 C 
ATOM      8  N   UNL d   1      57.669  -0.018  30.448  0.00  0.00    -0.365 NA
ATOM      9  O   UNL d   1      57.694   0.380  29.078  0.00  0.00    -0.251 OA
BRANCH   8  10
ATOM     10  C   UNL d   1      57.296  -0.009  31.181  0.00  0.00     0.135 A 
ATOM     11  C   UNL d   1      56.906  -0.684  31.466  0.00  0.00     0.034 A 
ATOM     12  C   UNL d   1      56.534  -0.675  32.200  0.00  0.00     0.020 A 
ATOM     13  C   UNL d   1      56.548   0.005  32.655  0.00  0.00     0.064 A 
ATOM     14  C   UNL d   1      56.934   0.680  32.378  0.00  0.00     0.020 A 
ATOM     15  C   UNL d   1      57.310   0.671  31.636  0.00  0.00     0.034 A 
BRANCH  13  16
ATOM     16  N   UNL d   1      56.173   0.016  33.394  0.00  0.00    -0.301 N 
ATOM     17  C   UNL d   1      55.389  -0.240  33.460  0.00  0.00     0.100 C 
ATOM     18  C   UNL d   1      56.588   0.284  34.067  0.00  0.00     0.100 C 
ENDBRANCH  13  16
ENDBRANCH   8  10
ENDBRANCH   1   7
BRANCH   3  19
ATOM     19  O   UNL d   1      59.440  -2.412  29.035  0.00  0.00    -0.326 OA
ATOM     20  C   UNL d   1      58.722  -2.845  29.046  0.00  0.00     0.181 C 
ENDBRANCH   3  19
BRANCH   4  21
ATOM     21  O   UNL d   1      60.887  -0.080  29.803  0.00  0.00    -0.326 OA
ATOM     22  C   UNL d   1      60.897   0.662  30.180  0.00  0.00     0.181 C 
ENDBRANCH   4  21
BRANCH   2  23
ATOM     23  O   UNL d   1      60.868  -1.655  29.320  0.00  0.00    -0.324 OA
ATOM     24  C   UNL d   1      61.131  -1.866  28.568  0.00  0.00     0.182 C 
ENDBRANCH   2  23
TORSDOF 6
ENDMDL
MODEL 2
REMARK VINA RESULT:      -4.2      0.353      1.626
REMARK  6 active torsions:
REMARK  status: ('A' for Active; 'I' for Inactive)
REMARK    1  A    between atoms: C_2  and  C_1 
REMARK       I    between atoms: N_6  and  C_1 
REMARK    2  A    between atoms: O_15  and  C_3 
REMARK    3  A    between atoms: O_17  and  C_4 
REMARK    4  A    between atoms: O_16  and  C_5 
REMARK    5  A    between atoms: C_12  and  N_6 
REMARK    6  A    between atoms: N_11  and  C_9 
ROOT
ATOM      1  C   UNL d   1      58.815  -0.417  29.374  0.00  0.00     0.074 A 
ATOM      2  C   UNL d   1      60.202  -1.267  29.118  0.00  0.00     0.138 A 
ATOM      3  C   UNL d   1      60.235  -0.512  29.433  0.00  0.00     0.118 A 
ATOM      4  C   UNL d   1      59.473  -1.592  28.932  0.00  0.00     0.118 A 
ATOM      5  C   UNL d   1      59.552  -0.080  29.565  0.00  0.00     0.032 A 
ATOM      6  C   UNL d   1      58.769  -1.178  29.055  0.00  0.00     0.032 A 
ENDROOT
BRANCH   1   7
ATOM      7  C   UNL d   1      58.120   0.009  29.503  0.00  0.00     0.328 C 
ATOM      8  N   UNL d   1      57.764  -0.013  30.239  0.00  0.00    -0.365 NA
ATOM      9  O   UNL d   1      57.788   0.453  28.891  0.00  0.00    -0.251 OA
BRANCH   8  10
ATOM     10  C   UNL d   1      57.401  -0.030  30.977  0.00  0.00     0.135 A 
ATOM     11  C   UNL d   1      57.061  -0.730  31.266  0.00  0.00     0.034 A 
ATOM     12  C   UNL d   1      56.698  -0.747  32.004  0.00  0.00     0.020 A 
ATOM     13  C   UNL d   1      56.669  -0.068  32.459  0.00  0.00     0.064 A 
ATOM     14  C   UNL d   1      57.004   0.632  32.179  0.00  0.00     0.020 A 
ATOM     15  C   UNL d   1      57.372   0.649  31.432  0.00  0.00     0.034 A 
BRANCH  13  16
ATOM     16  N   UNL d   1      56.303  -0.083  33.202  0.00  0.00    -0.301 N 
ATOM     17  C   UNL d   1      55.659  -0.586  33.332  0.00  0.00     0.100 C 
ATOM     18  C   UNL d   1      56.585   0.408  33.815  0.00  0.00     0.100 C 
ENDBRANCH  13  16
ENDBRANCH   8  10
ENDBRANCH   1   7
BRANCH   3  19
ATOM     19  O   UNL d   1      60.968  -0.180  29.621  0.00  0.00    -0.326 OA
ATOM     20  C   UNL d   1      61.005   0.470  30.150  0.00  0.00     0.181 C 
ENDBRANCH   3  19
BRANCH   4  21
ATOM     21  O   UNL d   1      59.439  -2.362  28.611  0.00  0.00    -0.326 OA
ATOM     22  C   UNL d   1      58.720  -2.782  28.616  0.00  0.00     0.181 C 
ENDBRANCH   4  21
BRANCH   2  23
ATOM     23  O   UNL d   1      60.896  -1.692  28.989  0.00  0.00    -0.324 OA
ATOM     24  C   UNL d   1      61.133  -2.279  29.516  0.00  0.00     0.182 C 
ENDBRANCH   2  23
TORSDOF 6
ENDMDL
