MODEL 1
REMARK VINA RESULT:      -2.5      0.000      0.000
REMARK  7 active torsions:
REMARK  status: ('A' for Active; 'I' for Inactive)
REMARK    1  A    between atoms: N_2  and  S_1 
REMARK    2  A    between atoms: C_5  and  S_1 
REMARK    3  A    between atoms: C_3  and  N_2 
REMARK    4  A    between atoms: C_4  and  C_3 
REMARK    5  A    between atoms: C_13  and  C_3 
REMARK    6  A    between atoms: C_9  and  C_8 
REMARK    7  A    between atoms: O_22  and  C_19 
ROOT
ATOM      1  C   UNL d   1      33.076  20.610 -22.278  0.00  0.00     0.105 A 
ATOM      2  C   UNL d   1      32.916  19.192 -23.099  0.00  0.00     0.000 A 
ATOM      3  C   UNL d   1      32.962  19.908 -21.863  0.00  0.00     0.013 A 
ATOM      4  C   UNL d   1      33.109  20.604 -23.102  0.00  0.00     0.013 A 
ATOM      5  C   UNL d   1      33.030  19.895 -23.512  0.00  0.00     0.001 A 
ATOM      6  C   UNL d   1      32.883  19.198 -22.275  0.00  0.00     0.001 A 
ENDROOT
BRANCH   1   7
ATOM      7  S   UNL d   1      33.157  21.332 -21.862  0.00  0.00     0.285 S 
ATOM      8  O   UNL d   1      33.199  20.910 -21.144  0.00  0.00    -0.198 OA
ATOM      9  O   UNL d   1      33.114  21.747 -22.585  0.00  0.00    -0.198 OA
BRANCH   7  10
ATOM     10  N   UNL d   1      33.237  22.046 -21.452  0.00  0.00    -0.152 NA
BRANCH  10  11
ATOM     11  C   UNL d   1      32.564  22.479 -21.229  0.00  0.00     0.158 C 
BRANCH  11  12
ATOM     12  C   UNL d   1      32.095  22.215 -20.604  0.00  0.00     0.230 C 
ATOM     13  O   UNL d   1      31.351  21.897 -20.752  0.00  0.00    -0.643 OA
ATOM     14  O   UNL d   1      32.372  22.269 -19.830  0.00  0.00    -0.643 OA
ENDBRANCH  11  12
BRANCH  11  15
ATOM     15  C   UNL d   1      32.365  23.169 -21.631  0.00  0.00     0.025 C 
ATOM     16  C   UNL d   1      31.576  23.434 -21.642  0.00  0.00     0.002 C 
ATOM     17  C   UNL d   1      32.950  23.597 -22.024  0.00  0.00     0.002 C 
ENDBRANCH  11  15
ENDBRANCH  10  11
ENDBRANCH   7  10
ENDBRANCH   1   7
BRANCH   2  18
ATOM     18  C   UNL d   1      32.836  18.483 -23.509  0.00  0.00     0.000 A 
ATOM     19  C   UNL d   1      33.137  17.787 -23.188  0.00  0.00     0.002 A 
ATOM     20  C   UNL d   1      33.058  17.070 -23.599  0.00  0.00     0.024 A 
ATOM     21  C   UNL d   1      32.675  17.056 -24.338  0.00  0.00     0.094 A 
ATOM     22  C   UNL d   1      32.373  17.761 -24.659  0.00  0.00     0.024 A 
ATOM     23  C   UNL d   1      32.453  18.470 -24.248  0.00  0.00     0.002 A 
BRANCH  21  24
ATOM     24  O   UNL d   1      32.593  16.344 -24.753  0.00  0.00    -0.328 OA
ATOM     25  C   UNL d   1      32.020  15.785 -24.517  0.00  0.00     0.181 C 
ENDBRANCH  21  24
ENDBRANCH   2  18
TORSDOF 7
ENDMDL
