MODEL 1
REMARK VINA RESULT:      59.8      0.000      0.000
REMARK  6 active torsions:
REMARK  status: ('A' for Active; 'I' for Inactive)
REMARK    1  A    between atoms: N_5  and  S_1 
REMARK    2  A    between atoms: C_6  and  S_1 
REMARK    3  A    between atoms: C_2  and  C_11 
REMARK    4  A    between atoms: C_9  and  N_5 
REMARK    5  A    between atoms: C_10  and  C_9 
REMARK       I    between atoms: N_15  and  C_10 
REMARK    6  A    between atoms: C_19  and  N_15 
ROOT
ATOM      1  C   UNL d   1     -54.957-102.151 -38.857  0.00  0.00     0.024 A 
ATOM      2  C   UNL d   1     -55.038-102.856 -39.279  0.00  0.00     0.004 A 
ATOM      3  C   UNL d   1     -54.800-101.450 -39.257  0.00  0.00     0.004 A 
ATOM      4  C   UNL d   1     -54.804-102.155 -40.509  0.00  0.00     0.085 A 
ATOM      5  C   UNL d   1     -54.723-101.454 -40.087  0.00  0.00     0.019 A 
ATOM      6  C   UNL d   1     -54.963-102.865 -40.101  0.00  0.00     0.019 A 
ENDROOT
BRANCH   4   7
ATOM      7  N   UNL d   1     -54.725-102.143 -41.331  0.00  0.00    -0.207 NA
ATOM      8  C   UNL d   1     -54.831-101.440 -41.739  0.00  0.00     0.299 C 
ATOM      9  O   UNL d   1     -55.015-100.748 -41.334  0.00  0.00    -0.263 OA
BRANCH   8  10
ATOM     10  C   UNL d   1     -54.752-101.429 -42.569  0.00  0.00     0.174 C 
BRANCH  10  11
ATOM     11  N   UNL d   1     -55.267-100.979 -43.026  0.00  0.00    -0.152 NA
BRANCH  11  12
ATOM     12  S   UNL d   1     -55.190-100.973 -43.847  0.00  0.00     0.285 S 
ATOM     13  O   UNL d   1     -54.906-100.198 -43.810  0.00  0.00    -0.198 OA
ATOM     14  O   UNL d   1     -55.474-101.747 -43.875  0.00  0.00    -0.198 OA
BRANCH  12  15
ATOM     15  C   UNL d   1     -55.115-100.970 -44.660  0.00  0.00     0.106 A 
ATOM     16  C   UNL d   1     -54.966-100.259 -45.057  0.00  0.00     0.024 A 
ATOM     17  C   UNL d   1     -54.890-100.256 -45.878  0.00  0.00     0.059 A 
ATOM     18 CL   UNL d   1     -54.739 -99.537 -46.287  0.00  0.00    -0.082 Cl
ATOM     19  C   UNL d   1     -54.961-100.953 -46.311  0.00  0.00     0.011 A 
ATOM     20  C   UNL d   1     -55.110-101.664 -45.914  0.00  0.00     0.002 A 
ATOM     21  C   UNL d   1     -55.186-101.666 -45.085  0.00  0.00     0.013 A 
ENDBRANCH  12  15
ENDBRANCH  11  12
ENDBRANCH  10  11
ENDBRANCH   8  10
ENDBRANCH   4   7
BRANCH   1  22
ATOM     22  C   UNL d   1     -55.031-102.134 -38.031  0.00  0.00     0.111 A 
ATOM     23  N   UNL d   1     -55.445-102.702 -37.608  0.00  0.00    -0.239 NA
ATOM     24  C   UNL d   1     -55.404-102.513 -36.805  0.00  0.00     0.088 A 
ATOM     25  C   UNL d   1     -55.712-102.878 -36.134  0.00  0.00     0.020 A 
ATOM     26  C   UNL d   1     -54.960-101.823 -36.733  0.00  0.00     0.049 A 
ATOM     27  C   UNL d   1     -55.574-102.551 -35.391  0.00  0.00     0.002 A 
ATOM     28  C   UNL d   1     -55.130-101.860 -35.319  0.00  0.00     0.001 A 
ATOM     29  C   UNL d   1     -54.823-101.495 -35.991  0.00  0.00     0.008 A 
ATOM     30  S   UNL d   1     -54.729-101.588 -37.492  0.00  0.00    -0.066 SA
ENDBRANCH   1  22
TORSDOF 6
ENDMDL
MODEL 2
REMARK VINA RESULT:      62.8      1.775      2.412
REMARK  6 active torsions:
REMARK  status: ('A' for Active; 'I' for Inactive)
REMARK    1  A    between atoms: N_5  and  S_1 
REMARK    2  A    between atoms: C_6  and  S_1 
REMARK    3  A    between atoms: C_2  and  C_11 
REMARK    4  A    between atoms: C_9  and  N_5 
REMARK    5  A    between atoms: C_10  and  C_9 
REMARK       I    between atoms: N_15  and  C_10 
REMARK    6  A    between atoms: C_19  and  N_15 
ROOT
ATOM      1  C   UNL d   1     -55.180-102.095 -40.567  0.00  0.00     0.024 A 
ATOM      2  C   UNL d   1     -54.933-101.342 -40.797  0.00  0.00     0.004 A 
ATOM      3  C   UNL d   1     -55.293-102.680 -41.133  0.00  0.00     0.004 A 
ATOM      4  C   UNL d   1     -54.913-101.761 -42.170  0.00  0.00     0.085 A 
ATOM      5  C   UNL d   1     -55.158-102.510 -41.938  0.00  0.00     0.019 A 
ATOM      6  C   UNL d   1     -54.799-101.168 -41.594  0.00  0.00     0.019 A 
ENDROOT
BRANCH   4   7
ATOM      7  N   UNL d   1     -54.784-101.607 -42.971  0.00  0.00    -0.207 NA
ATOM      8  C   UNL d   1     -54.944-100.861 -43.272  0.00  0.00     0.299 C 
ATOM      9  O   UNL d   1     -55.232-100.267 -42.781  0.00  0.00    -0.263 OA
BRANCH   8  10
ATOM     10  C   UNL d   1     -54.813-100.708 -44.081  0.00  0.00     0.174 C 
BRANCH  10  11
ATOM     11  N   UNL d   1     -54.919 -99.948 -44.378  0.00  0.00    -0.152 NA
BRANCH  11  12
ATOM     12  S   UNL d   1     -55.682 -99.655 -44.496  0.00  0.00     0.285 S 
ATOM     13  O   UNL d   1     -55.990-100.401 -44.325  0.00  0.00    -0.198 OA
ATOM     14  O   UNL d   1     -55.365 -98.912 -44.665  0.00  0.00    -0.198 OA
BRANCH  12  15
ATOM     15  C   UNL d   1     -56.434 -99.362 -44.613  0.00  0.00     0.106 A 
ATOM     16  C   UNL d   1     -56.971 -99.341 -43.984  0.00  0.00     0.024 A 
ATOM     17  C   UNL d   1     -57.731 -99.045 -44.103  0.00  0.00     0.059 A 
ATOM     18 CL   UNL d   1     -58.281 -99.022 -43.467  0.00  0.00    -0.082 Cl
ATOM     19  C   UNL d   1     -57.966 -98.768 -44.842  0.00  0.00     0.011 A 
ATOM     20  C   UNL d   1     -57.429 -98.788 -45.472  0.00  0.00     0.002 A 
ATOM     21  C   UNL d   1     -56.661 -99.088 -45.351  0.00  0.00     0.013 A 
ENDBRANCH  12  15
ENDBRANCH  11  12
ENDBRANCH  10  11
ENDBRANCH   8  10
ENDBRANCH   4   7
BRANCH   1  22
ATOM     22  C   UNL d   1     -55.317-102.276 -39.769  0.00  0.00     0.111 A 
ATOM     23  N   UNL d   1     -54.713-102.358 -39.219  0.00  0.00    -0.239 NA
ATOM     24  C   UNL d   1     -55.048-102.538 -38.486  0.00  0.00     0.088 A 
ATOM     25  C   UNL d   1     -54.717-102.678 -37.746  0.00  0.00     0.020 A 
ATOM     26  C   UNL d   1     -55.866-102.566 -38.585  0.00  0.00     0.049 A 
ATOM     27  C   UNL d   1     -55.206-102.847 -37.104  0.00  0.00     0.002 A 
ATOM     28  C   UNL d   1     -56.023-102.875 -37.203  0.00  0.00     0.001 A 
ATOM     29  C   UNL d   1     -56.354-102.735 -37.945  0.00  0.00     0.008 A 
ATOM     30  S   UNL d   1     -56.032-102.404 -39.380  0.00  0.00    -0.066 SA
ENDBRANCH   1  22
TORSDOF 6
ENDMDL
