MODEL 1
REMARK VINA RESULT:      -5.9      0.000      0.000
REMARK  4 active torsions:
REMARK  status: ('A' for Active; 'I' for Inactive)
REMARK    1  A    between atoms: N_2  and  S_1 
REMARK    2  A    between atoms: C_3  and  S_1 
REMARK    3  A    between atoms: C_18  and  N_6 
REMARK    4  A    between atoms: C_19  and  C_18 
ROOT
ATOM      1  N   UNL d   1     -41.729-122.715 -51.170  0.00  0.00    -0.226 N 
ATOM      2  N   UNL d   1     -41.325-122.270 -52.719  0.00  0.00    -0.300 N 
ATOM      3  C   UNL d   1     -41.840-121.923 -51.420  0.00  0.00     0.111 A 
ATOM      4  C   UNL d   1     -41.424-123.255 -51.694  0.00  0.00     0.111 A 
ATOM      5  C   UNL d   1     -41.221-123.032 -52.471  0.00  0.00     0.100 A 
ATOM      6  C   UNL d   1     -41.638-121.700 -52.197  0.00  0.00     0.100 A 
ENDROOT
BRANCH   1   7
ATOM      7  S   UNL d   1     -41.930-122.936 -50.401  0.00  0.00     0.272 S 
ATOM      8  O   UNL d   1     -41.633-123.697 -50.542  0.00  0.00    -0.200 OA
ATOM      9  O   UNL d   1     -42.228-122.170 -50.259  0.00  0.00    -0.200 OA
BRANCH   7  10
ATOM     10  C   UNL d   1     -42.131-123.158 -49.628  0.00  0.00     0.106 A 
ATOM     11  C   UNL d   1     -41.648-122.974 -49.004  0.00  0.00     0.040 A 
ATOM     12  C   UNL d   1     -41.844-123.190 -48.250  0.00  0.00     0.123 A 
ATOM     13  O   UNL d   1     -41.332-122.990 -47.619  0.00  0.00    -0.301 OA
ATOM     14  C   UNL d   1     -42.528-123.596 -48.104  0.00  0.00     0.123 A 
ATOM     15  C   UNL d   1     -41.533-123.212 -46.846  0.00  0.00     0.149 A 
ATOM     16  C   UNL d   1     -42.246-123.633 -46.708  0.00  0.00     0.149 A 
ATOM     17  O   UNL d   1     -42.730-123.818 -47.331  0.00  0.00    -0.301 OA
ATOM     18  C   UNL d   1     -43.029-123.793 -48.706  0.00  0.00     0.028 A 
ATOM     19  C   UNL d   1     -42.841-123.577 -49.488  0.00  0.00     0.015 A 
ENDBRANCH   7  10
ENDBRANCH   1   7
BRANCH   2  20
ATOM     20  C   UNL d   1     -41.123-122.047 -53.496  0.00  0.00     0.080 C 
BRANCH  20  21
ATOM     21  C   UNL d   1     -41.596-122.251 -54.119  0.00  0.00     0.018 A 
ATOM     22  C   UNL d   1     -42.158-121.705 -54.415  0.00  0.00     0.002 A 
ATOM     23  C   UNL d   1     -42.631-121.909 -55.038  0.00  0.00     0.000 A 
ATOM     24  C   UNL d   1     -42.567-122.654 -55.387  0.00  0.00     0.000 A 
ATOM     25  C   UNL d   1     -42.029-123.198 -55.116  0.00  0.00     0.000 A 
ATOM     26  C   UNL d   1     -41.532-122.996 -54.468  0.00  0.00     0.002 A 
ENDBRANCH  20  21
ENDBRANCH   2  20
TORSDOF 4
ENDMDL
MODEL 2
REMARK VINA RESULT:      -5.1      1.674      5.519
REMARK  4 active torsions:
REMARK  status: ('A' for Active; 'I' for Inactive)
REMARK    1  A    between atoms: N_2  and  S_1 
REMARK    2  A    between atoms: C_3  and  S_1 
REMARK    3  A    between atoms: C_18  and  N_6 
REMARK    4  A    between atoms: C_19  and  C_18 
ROOT
ATOM      1  N   UNL d   1     -41.333-123.021 -51.419  0.00  0.00    -0.226 N 
ATOM      2  N   UNL d   1     -41.194-123.169 -49.770  0.00  0.00    -0.300 N 
ATOM      3  C   UNL d   1     -41.408-122.344 -50.931  0.00  0.00     0.111 A 
ATOM      4  C   UNL d   1     -41.192-123.742 -51.075  0.00  0.00     0.111 A 
ATOM      5  C   UNL d   1     -41.123-123.817 -50.247  0.00  0.00     0.100 A 
ATOM      6  C   UNL d   1     -41.338-122.419 -50.103  0.00  0.00     0.100 A 
ENDROOT
BRANCH   1   7
ATOM      7  S   UNL d   1     -41.401-122.947 -52.238  0.00  0.00     0.272 S 
ATOM      8  O   UNL d   1     -41.528-123.764 -52.301  0.00  0.00    -0.200 OA
ATOM      9  O   UNL d   1     -41.274-122.125 -52.175  0.00  0.00    -0.200 OA
BRANCH   7  10
ATOM     10  C   UNL d   1     -41.470-122.873 -53.061  0.00  0.00     0.106 A 
ATOM     11  C   UNL d   1     -41.833-122.227 -53.390  0.00  0.00     0.040 A 
ATOM     12  C   UNL d   1     -41.900-122.155 -54.192  0.00  0.00     0.123 A 
ATOM     13  O   UNL d   1     -42.278-121.480 -54.514  0.00  0.00    -0.301 OA
ATOM     14  C   UNL d   1     -41.607-122.727 -54.682  0.00  0.00     0.123 A 
ATOM     15  C   UNL d   1     -42.347-121.406 -55.337  0.00  0.00     0.149 A 
ATOM     16  C   UNL d   1     -42.038-122.007 -55.834  0.00  0.00     0.149 A 
ATOM     17  O   UNL d   1     -41.676-122.653 -55.505  0.00  0.00    -0.301 OA
ATOM     18  C   UNL d   1     -41.241-123.381 -54.383  0.00  0.00     0.028 A 
ATOM     19  C   UNL d   1     -41.163-123.471 -53.558  0.00  0.00     0.015 A 
ENDBRANCH   7  10
ENDBRANCH   1   7
BRANCH   2  20
ATOM     20  C   UNL d   1     -41.124-123.244 -48.943  0.00  0.00     0.080 C 
BRANCH  20  21
ATOM     21  C   UNL d   1     -41.784-123.302 -48.479  0.00  0.00     0.018 A 
ATOM     22  C   UNL d   1     -41.809-122.916 -47.735  0.00  0.00     0.002 A 
ATOM     23  C   UNL d   1     -42.468-122.974 -47.271  0.00  0.00     0.000 A 
ATOM     24  C   UNL d   1     -43.121-123.412 -47.522  0.00  0.00     0.000 A 
ATOM     25  C   UNL d   1     -43.117-123.794 -48.239  0.00  0.00     0.000 A 
ATOM     26  C   UNL d   1     -42.436-123.740 -48.730  0.00  0.00     0.002 A 
ENDBRANCH  20  21
ENDBRANCH   2  20
TORSDOF 4
ENDMDL
