MODEL 1
REMARK VINA RESULT:      -9.2      0.000      0.000
REMARK  4 active torsions:
REMARK  status: ('A' for Active; 'I' for Inactive)
REMARK    1  A    between atoms: N_2  and  S_1 
REMARK    2  A    between atoms: C_4  and  S_1 
REMARK    3  A    between atoms: C_3  and  C_8 
REMARK       I    between atoms: N_5  and  C_3 
REMARK    4  A    between atoms: C_17  and  N_5 
ROOT
ATOM      1  C   UNL d   1      51.710  33.553  52.964  0.00  0.00     0.104 A 
ATOM      2  C   UNL d   1      50.286  34.295  52.627  0.00  0.00     0.058 A 
ATOM      3  C   UNL d   1      51.661  34.097  52.345  0.00  0.00     0.013 A 
ATOM      4  C   UNL d   1      51.029  33.378  53.423  0.00  0.00     0.013 A 
ATOM      5  C   UNL d   1      50.951  34.467  52.177  0.00  0.00     0.005 A 
ATOM      6  C   UNL d   1      50.319  33.753  53.250  0.00  0.00     0.005 A 
ENDROOT
BRANCH   2   7
ATOM      7  C   UNL d   1      49.553  34.668  52.464  0.00  0.00     0.279 C 
ATOM      8  N   UNL d   1      49.238  35.220  52.986  0.00  0.00    -0.208 NA
ATOM      9  O   UNL d   1      49.159  34.459  51.758  0.00  0.00    -0.265 OA
BRANCH   8  10
ATOM     10  C   UNL d   1      48.508  35.591  52.822  0.00  0.00     0.085 A 
ATOM     11  C   UNL d   1      48.090  35.966  53.440  0.00  0.00     0.020 A 
ATOM     12  C   UNL d   1      47.374  36.332  53.289  0.00  0.00     0.013 A 
ATOM     13  C   UNL d   1      47.063  36.330  52.525  0.00  0.00     0.058 A 
ATOM     14  C   UNL d   1      47.481  35.954  51.907  0.00  0.00     0.013 A 
ATOM     15 CL   UNL d   1      46.322  36.709  52.377  0.00  0.00    -0.082 Cl
ATOM     16  C   UNL d   1      48.203  35.586  52.064  0.00  0.00     0.020 A 
ENDBRANCH   8  10
ENDBRANCH   2   7
BRANCH   1  17
ATOM     17  S   UNL d   1      52.426  33.164  53.152  0.00  0.00     0.272 S 
ATOM     18  O   UNL d   1      52.324  32.614  52.529  0.00  0.00    -0.200 OA
ATOM     19  O   UNL d   1      52.541  33.719  53.792  0.00  0.00    -0.200 OA
BRANCH  17  20
ATOM     20  N   UNL d   1      53.149  32.796  53.367  0.00  0.00    -0.225 N 
ATOM     21  C   UNL d   1      53.771  33.240  53.668  0.00  0.00     0.118 A 
ATOM     22  C   UNL d   1      54.472  32.871  53.874  0.00  0.00     0.142 A 
ATOM     23  O   UNL d   1      54.557  32.030  53.777  0.00  0.00    -0.300 OA
ATOM     24  C   UNL d   1      53.938  31.582  53.477  0.00  0.00     0.142 A 
ATOM     25  C   UNL d   1      53.234  31.955  53.270  0.00  0.00     0.118 A 
ENDBRANCH  17  20
ENDBRANCH   1  17
TORSDOF 4
ENDMDL
MODEL 2
REMARK VINA RESULT:      -8.9      2.497      5.824
REMARK  4 active torsions:
REMARK  status: ('A' for Active; 'I' for Inactive)
REMARK    1  A    between atoms: N_2  and  S_1 
REMARK    2  A    between atoms: C_4  and  S_1 
REMARK    3  A    between atoms: C_3  and  C_8 
REMARK       I    between atoms: N_5  and  C_3 
REMARK    4  A    between atoms: C_17  and  N_5 
ROOT
ATOM      1  C   UNL d   1      48.825  35.113  52.341  0.00  0.00     0.104 A 
ATOM      2  C   UNL d   1      50.317  34.463  52.553  0.00  0.00     0.058 A 
ATOM      3  C   UNL d   1      49.198  35.159  53.077  0.00  0.00     0.013 A 
ATOM      4  C   UNL d   1      49.210  34.733  51.699  0.00  0.00     0.013 A 
ATOM      5  C   UNL d   1      49.941  34.835  53.182  0.00  0.00     0.005 A 
ATOM      6  C   UNL d   1      49.957  34.410  51.812  0.00  0.00     0.005 A 
ENDROOT
BRANCH   2   7
ATOM      7  C   UNL d   1      51.079  34.127  52.650  0.00  0.00     0.279 C 
ATOM      8  N   UNL d   1      51.216  33.556  53.225  0.00  0.00    -0.208 NA
ATOM      9  O   UNL d   1      51.688  34.394  52.144  0.00  0.00    -0.265 OA
BRANCH   8  10
ATOM     10  C   UNL d   1      51.976  33.222  53.319  0.00  0.00     0.085 A 
ATOM     11  C   UNL d   1      52.528  33.594  53.823  0.00  0.00     0.020 A 
ATOM     12  C   UNL d   1      53.274  33.275  53.921  0.00  0.00     0.013 A 
ATOM     13  C   UNL d   1      53.483  32.583  53.522  0.00  0.00     0.058 A 
ATOM     14  C   UNL d   1      52.931  32.211  53.019  0.00  0.00     0.013 A 
ATOM     15 CL   UNL d   1      54.257  32.259  53.630  0.00  0.00    -0.082 Cl
ATOM     16  C   UNL d   1      52.178  32.536  52.922  0.00  0.00     0.020 A 
ENDBRANCH   8  10
ENDBRANCH   2   7
BRANCH   1  17
ATOM     17  S   UNL d   1      48.065  35.438  52.212  0.00  0.00     0.272 S 
ATOM     18  O   UNL d   1      48.074  35.211  51.406  0.00  0.00    -0.200 OA
ATOM     19  O   UNL d   1      48.045  35.675  53.033  0.00  0.00    -0.200 OA
BRANCH  17  20
ATOM     20  N   UNL d   1      47.302  35.773  52.116  0.00  0.00    -0.225 N 
ATOM     21  C   UNL d   1      47.052  36.389  52.598  0.00  0.00     0.118 A 
ATOM     22  C   UNL d   1      46.305  36.709  52.496  0.00  0.00     0.142 A 
ATOM     23  O   UNL d   1      45.789  36.405  51.891  0.00  0.00    -0.300 OA
ATOM     24  C   UNL d   1      46.035  35.790  51.407  0.00  0.00     0.142 A 
ATOM     25  C   UNL d   1      46.786  35.470  51.511  0.00  0.00     0.118 A 
ENDBRANCH  17  20
ENDBRANCH   1  17
TORSDOF 4
ENDMDL
MODEL 3
REMARK VINA RESULT:      -6.8     10.033     11.046
REMARK  4 active torsions:
REMARK  status: ('A' for Active; 'I' for Inactive)
REMARK    1  A    between atoms: N_2  and  S_1 
REMARK    2  A    between atoms: C_4  and  S_1 
REMARK    3  A    between atoms: C_3  and  C_8 
REMARK       I    between atoms: N_5  and  C_3 
REMARK    4  A    between atoms: C_17  and  N_5 
ROOT
ATOM      1  C   UNL d   1      44.902  28.580  58.156  0.00  0.00     0.104 A 
ATOM      2  C   UNL d   1      45.021  27.237  57.220  0.00  0.00     0.058 A 
ATOM      3  C   UNL d   1      45.348  27.933  58.411  0.00  0.00     0.013 A 
ATOM      4  C   UNL d   1      44.507  28.550  57.416  0.00  0.00     0.013 A 
ATOM      5  C   UNL d   1      45.408  27.265  57.944  0.00  0.00     0.005 A 
ATOM      6  C   UNL d   1      44.571  27.875  56.952  0.00  0.00     0.005 A 
ENDROOT
BRANCH   2   7
ATOM      7  C   UNL d   1      45.075  26.556  56.733  0.00  0.00     0.279 C 
ATOM      8  N   UNL d   1      44.436  26.045  56.655  0.00  0.00    -0.208 NA
ATOM      9  O   UNL d   1      45.796  26.420  56.335  0.00  0.00    -0.265 OA
BRANCH   8  10
ATOM     10  C   UNL d   1      44.491  25.368  56.169  0.00  0.00     0.085 A 
ATOM     11  C   UNL d   1      44.728  24.641  56.504  0.00  0.00     0.020 A 
ATOM     12  C   UNL d   1      44.785  23.972  56.036  0.00  0.00     0.013 A 
ATOM     13  C   UNL d   1      44.608  24.016  55.231  0.00  0.00     0.058 A 
ATOM     14  C   UNL d   1      44.370  24.743  54.897  0.00  0.00     0.013 A 
ATOM     15 CL   UNL d   1      44.669  23.320  54.754  0.00  0.00    -0.082 Cl
ATOM     16  C   UNL d   1      44.314  25.416  55.372  0.00  0.00     0.020 A 
ENDBRANCH   8  10
ENDBRANCH   2   7
BRANCH   1  17
ATOM     17  S   UNL d   1      44.828  29.274  58.618  0.00  0.00     0.272 S 
ATOM     18  O   UNL d   1      45.062  29.759  57.978  0.00  0.00    -0.200 OA
ATOM     19  O   UNL d   1      44.588  28.787  59.279  0.00  0.00    -0.200 OA
BRANCH  17  20
ATOM     20  N   UNL d   1      44.744  29.949  59.108  0.00  0.00    -0.225 N 
ATOM     21  C   UNL d   1      44.805  29.884  59.925  0.00  0.00     0.118 A 
ATOM     22  C   UNL d   1      44.722  30.550  60.394  0.00  0.00     0.142 A 
ATOM     23  O   UNL d   1      44.573  31.308  60.037  0.00  0.00    -0.300 OA
ATOM     24  C   UNL d   1      44.512  31.378  59.222  0.00  0.00     0.142 A 
ATOM     25  C   UNL d   1      44.596  30.707  58.751  0.00  0.00     0.118 A 
ENDBRANCH  17  20
ENDBRANCH   1  17
TORSDOF 4
ENDMDL
