MODEL 1
REMARK VINA RESULT:      -4.6      0.000      0.000
REMARK  5 active torsions:
REMARK  status: ('A' for Active; 'I' for Inactive)
REMARK    1  A    between atoms: S_6  and  C_2 
REMARK    2  A    between atoms: C_16  and  S_6 
REMARK    3  A    between atoms: C_8  and  C_16 
REMARK       I    between atoms: N_13  and  C_8 
REMARK    4  A    between atoms: C_19  and  N_13 
REMARK    5  A    between atoms: C_18  and  C_19 
ROOT
ATOM      1  C   UNL d   1      57.408   0.332  30.969  0.00  0.00     0.286 C 
ATOM      2  N   UNL d   1      57.200   0.282  31.759  0.00  0.00    -0.206 NA
ATOM      3  O   UNL d   1      56.871   0.628  30.419  0.00  0.00    -0.265 OA
ENDROOT
BRANCH   1   4
ATOM      4  C   UNL d   1      58.156   0.087  30.716  0.00  0.00     0.098 C 
BRANCH   4   5
ATOM      5  S   UNL d   1      58.258  -0.204  29.948  0.00  0.00    -0.080 SA
BRANCH   5   6
ATOM      6  C   UNL d   1      59.018  -0.356  29.672  0.00  0.00     0.049 A 
ATOM      7  C   UNL d   1      59.651   0.179  29.655  0.00  0.00     0.087 A 
ATOM      8  N   UNL d   1      60.308  -0.205  29.334  0.00  0.00    -0.302 N 
ATOM      9  C   UNL d   1      60.080  -0.980  29.152  0.00  0.00     0.065 A 
ATOM     10  C   UNL d   1      61.056   0.116  29.213  0.00  0.00     0.100 C 
ATOM     11  C   UNL d   1      59.284  -1.070  29.361  0.00  0.00     0.024 A 
ATOM     12  C   UNL d   1      60.499  -1.616  28.820  0.00  0.00     0.018 A 
ATOM     13  C   UNL d   1      58.906  -1.796  29.240  0.00  0.00     0.002 A 
ATOM     14  C   UNL d   1      59.324  -2.425  28.911  0.00  0.00     0.000 A 
ATOM     15  C   UNL d   1      60.120  -2.335  28.702  0.00  0.00     0.002 A 
ENDBRANCH   5   6
ENDBRANCH   4   5
ENDBRANCH   1   4
BRANCH   2  16
ATOM     16  C   UNL d   1      56.460   0.525  32.005  0.00  0.00     0.102 C 
BRANCH  16  17
ATOM     17  C   UNL d   1      56.244   0.549  32.796  0.00  0.00     0.021 A 
ATOM     18  C   UNL d   1      55.442   0.604  32.988  0.00  0.00     0.028 A 
ATOM     19  C   UNL d   1      55.214   0.628  33.793  0.00  0.00     0.119 A 
ATOM     20  O   UNL d   1      54.493   0.681  34.158  0.00  0.00    -0.300 OA
ATOM     21  C   UNL d   1      55.797   0.596  34.374  0.00  0.00     0.119 A 
ATOM     22  C   UNL d   1      54.608   0.682  34.967  0.00  0.00     0.304 A 
ATOM     23  O   UNL d   1      55.419   0.629  35.107  0.00  0.00    -0.300 OA
ATOM     24  C   UNL d   1      56.599   0.540  34.163  0.00  0.00     0.026 A 
ATOM     25  C   UNL d   1      56.807   0.518  33.370  0.00  0.00     0.004 A 
ENDBRANCH  16  17
ENDBRANCH   2  16
TORSDOF 5
ENDMDL
MODEL 2
REMARK VINA RESULT:      -1.8      9.383     10.568
REMARK  5 active torsions:
REMARK  status: ('A' for Active; 'I' for Inactive)
REMARK    1  A    between atoms: S_6  and  C_2 
REMARK    2  A    between atoms: C_16  and  S_6 
REMARK    3  A    between atoms: C_8  and  C_16 
REMARK       I    between atoms: N_13  and  C_8 
REMARK    4  A    between atoms: C_19  and  N_13 
REMARK    5  A    between atoms: C_18  and  C_19 
ROOT
ATOM      1  C   UNL d   1      59.780  -9.788  32.525  0.00  0.00     0.286 C 
ATOM      2  N   UNL d   1      59.134  -9.817  32.023  0.00  0.00    -0.206 NA
ATOM      3  O   UNL d   1      60.541  -9.738  32.214  0.00  0.00    -0.265 OA
ENDROOT
BRANCH   1   4
ATOM      4  C   UNL d   1      59.676  -9.810  33.344  0.00  0.00     0.098 C 
BRANCH   4   5
ATOM      5  S   UNL d   1      60.142  -9.331  33.833  0.00  0.00    -0.080 SA
BRANCH   5   6
ATOM      6  C   UNL d   1      59.854  -9.106  34.570  0.00  0.00     0.049 A 
ATOM      7  C   UNL d   1      59.286  -9.507  35.020  0.00  0.00     0.087 A 
ATOM      8  N   UNL d   1      59.163  -9.087  35.720  0.00  0.00    -0.302 N 
ATOM      9  C   UNL d   1      59.657  -8.423  35.703  0.00  0.00     0.065 A 
ATOM     10  C   UNL d   1      58.645  -9.283  36.329  0.00  0.00     0.100 C 
ATOM     11  C   UNL d   1      60.082  -8.437  34.992  0.00  0.00     0.024 A 
ATOM     12  C   UNL d   1      59.773  -7.805  36.247  0.00  0.00     0.018 A 
ATOM     13  C   UNL d   1      60.624  -7.834  34.825  0.00  0.00     0.002 A 
ATOM     14  C   UNL d   1      60.737  -7.224  35.366  0.00  0.00     0.000 A 
ATOM     15  C   UNL d   1      60.312  -7.209  36.076  0.00  0.00     0.002 A 
ENDBRANCH   5   6
ENDBRANCH   4   5
ENDBRANCH   1   4
BRANCH   2  16
ATOM     16  C   UNL d   1      59.241  -9.795  31.214  0.00  0.00     0.102 C 
BRANCH  16  17
ATOM     17  C   UNL d   1      58.614  -9.759  30.687  0.00  0.00     0.021 A 
ATOM     18  C   UNL d   1      57.843  -9.815  30.980  0.00  0.00     0.028 A 
ATOM     19  C   UNL d   1      57.198  -9.779  30.448  0.00  0.00     0.119 A 
ATOM     20  O   UNL d   1      56.396  -9.815  30.554  0.00  0.00    -0.300 OA
ATOM     21  C   UNL d   1      57.349  -9.689  29.644  0.00  0.00     0.119 A 
ATOM     22  C   UNL d   1      56.032  -9.750  29.826  0.00  0.00     0.304 A 
ATOM     23  O   UNL d   1      56.621  -9.671  29.254  0.00  0.00    -0.300 OA
ATOM     24  C   UNL d   1      58.131  -9.635  29.365  0.00  0.00     0.026 A 
ATOM     25  C   UNL d   1      58.752  -9.672  29.899  0.00  0.00     0.004 A 
ENDBRANCH  16  17
ENDBRANCH   2  16
TORSDOF 5
ENDMDL
