MODEL 1
REMARK VINA RESULT:      -3.7      0.000      0.000
REMARK  5 active torsions:
REMARK  status: ('A' for Active; 'I' for Inactive)
REMARK    1  A    between atoms: C_2  and  C_1 
REMARK    2  A    between atoms: C_3  and  C_1 
REMARK    3  A    between atoms: C_4  and  C_2 
REMARK    4  A    between atoms: O_9  and  C_6 
REMARK    5  A    between atoms: O_10  and  C_7 
ROOT
ATOM      1  C   UNL d   1      57.402  -0.065  31.718  0.00  0.00     0.236 C 
ATOM      2  O   UNL d   1      57.954   0.535  31.786  0.00  0.00    -0.283 OA
ENDROOT
BRANCH   1   3
ATOM      3  C   UNL d   1      57.387  -0.572  31.067  0.00  0.00     0.236 C 
ATOM      4  O   UNL d   1      57.023  -1.300  31.111  0.00  0.00    -0.283 OA
BRANCH   3   5
ATOM      5  C   UNL d   1      57.751  -0.335  30.350  0.00  0.00     0.065 A 
ATOM      6  C   UNL d   1      58.229  -0.829  29.935  0.00  0.00     0.097 A 
ATOM      7  C   UNL d   1      58.584  -0.581  29.226  0.00  0.00     0.024 A 
ATOM      8  C   UNL d   1      58.437   0.181  28.956  0.00  0.00     0.002 A 
ATOM      9  C   UNL d   1      57.957   0.681  29.372  0.00  0.00     0.000 A 
ATOM     10  C   UNL d   1      57.604   0.427  30.081  0.00  0.00     0.005 A 
BRANCH   6  11
ATOM     11  O   UNL d   1      58.376  -1.603  30.212  0.00  0.00    -0.328 OA
ATOM     12  C   UNL d   1      58.757  -2.092  29.816  0.00  0.00     0.181 C 
ENDBRANCH   6  11
ENDBRANCH   3   5
ENDBRANCH   1   3
BRANCH   1  13
ATOM     13  C   UNL d   1      56.841  -0.170  32.318  0.00  0.00     0.065 A 
ATOM     14  C   UNL d   1      57.004   0.098  33.079  0.00  0.00     0.097 A 
ATOM     15  C   UNL d   1      56.439  -0.011  33.671  0.00  0.00     0.024 A 
ATOM     16  C   UNL d   1      55.729  -0.379  33.506  0.00  0.00     0.002 A 
ATOM     17  C   UNL d   1      55.567  -0.642  32.764  0.00  0.00     0.000 A 
ATOM     18  C   UNL d   1      56.115  -0.546  32.151  0.00  0.00     0.005 A 
BRANCH  14  19
ATOM     19  O   UNL d   1      57.746   0.486  33.265  0.00  0.00    -0.328 OA
ATOM     20  C   UNL d   1      57.964   0.681  34.039  0.00  0.00     0.181 C 
ENDBRANCH  14  19
ENDBRANCH   1  13
TORSDOF 5
ENDMDL
MODEL 2
REMARK VINA RESULT:      -3.3      1.142      1.870
REMARK  5 active torsions:
REMARK  status: ('A' for Active; 'I' for Inactive)
REMARK    1  A    between atoms: C_2  and  C_1 
REMARK    2  A    between atoms: C_3  and  C_1 
REMARK    3  A    between atoms: C_4  and  C_2 
REMARK    4  A    between atoms: O_9  and  C_6 
REMARK    5  A    between atoms: O_10  and  C_7 
ROOT
ATOM      1  C   UNL d   1      56.939  -0.315  31.913  0.00  0.00     0.236 C 
ATOM      2  O   UNL d   1      56.908  -0.974  31.430  0.00  0.00    -0.283 OA
ENDROOT
BRANCH   1   3
ATOM      3  C   UNL d   1      57.553   0.234  31.863  0.00  0.00     0.236 C 
ATOM      4  O   UNL d   1      57.769   0.682  32.509  0.00  0.00    -0.283 OA
BRANCH   3   5
ATOM      5  C   UNL d   1      57.960   0.333  31.136  0.00  0.00     0.065 A 
ATOM      6  C   UNL d   1      58.744   0.504  31.111  0.00  0.00     0.097 A 
ATOM      7  C   UNL d   1      59.136   0.600  30.384  0.00  0.00     0.024 A 
ATOM      8  C   UNL d   1      58.704   0.516  29.690  0.00  0.00     0.002 A 
ATOM      9  C   UNL d   1      57.915   0.344  29.712  0.00  0.00     0.000 A 
ATOM     10  C   UNL d   1      57.529   0.250  30.442  0.00  0.00     0.005 A 
BRANCH   6  11
ATOM     11  O   UNL d   1      59.180   0.589  31.819  0.00  0.00    -0.328 OA
ATOM     12  C   UNL d   1      59.914   0.632  31.821  0.00  0.00     0.181 C 
ENDBRANCH   6  11
ENDBRANCH   3   5
ENDBRANCH   1   3
BRANCH   1  13
ATOM     13  C   UNL d   1      56.339  -0.192  32.471  0.00  0.00     0.065 A 
ATOM     14  C   UNL d   1      56.024  -0.834  32.878  0.00  0.00     0.097 A 
ATOM     15  C   UNL d   1      55.427  -0.702  33.431  0.00  0.00     0.024 A 
ATOM     16  C   UNL d   1      55.151   0.052  33.575  0.00  0.00     0.002 A 
ATOM     17  C   UNL d   1      55.457   0.682  33.179  0.00  0.00     0.000 A 
ATOM     18  C   UNL d   1      56.057   0.579  32.618  0.00  0.00     0.005 A 
BRANCH  14  19
ATOM     19  O   UNL d   1      56.305  -1.632  32.737  0.00  0.00    -0.328 OA
ATOM     20  C   UNL d   1      55.875  -2.301  32.963  0.00  0.00     0.181 C 
ENDBRANCH  14  19
ENDBRANCH   1  13
TORSDOF 5
ENDMDL
MODEL 3
REMARK VINA RESULT:      -3.3      1.183      3.357
REMARK  5 active torsions:
REMARK  status: ('A' for Active; 'I' for Inactive)
REMARK    1  A    between atoms: C_2  and  C_1 
REMARK    2  A    between atoms: C_3  and  C_1 
REMARK    3  A    between atoms: C_4  and  C_2 
REMARK    4  A    between atoms: O_9  and  C_6 
REMARK    5  A    between atoms: O_10  and  C_7 
ROOT
ATOM      1  C   UNL d   1      57.539   0.306  31.844  0.00  0.00     0.236 C 
ATOM      2  O   UNL d   1      57.773   0.660  32.543  0.00  0.00    -0.283 OA
ENDROOT
BRANCH   1   3
ATOM      3  C   UNL d   1      56.853  -0.151  31.794  0.00  0.00     0.236 C 
ATOM      4  O   UNL d   1      56.713  -0.627  31.148  0.00  0.00    -0.283 OA
BRANCH   3   5
ATOM      5  C   UNL d   1      56.293  -0.123  32.418  0.00  0.00     0.065 A 
ATOM      6  C   UNL d   1      55.991  -0.793  32.744  0.00  0.00     0.097 A 
ATOM      7  C   UNL d   1      55.437  -0.752  33.362  0.00  0.00     0.024 A 
ATOM      8  C   UNL d   1      55.203  -0.013  33.634  0.00  0.00     0.002 A 
ATOM      9  C   UNL d   1      55.505   0.662  33.308  0.00  0.00     0.000 A 
ATOM     10  C   UNL d   1      56.060   0.615  32.690  0.00  0.00     0.005 A 
BRANCH   6  11
ATOM     11  O   UNL d   1      56.231  -1.542  32.465  0.00  0.00    -0.328 OA
ATOM     12  C   UNL d   1      55.944  -2.166  32.728  0.00  0.00     0.181 C 
ENDBRANCH   6  11
ENDBRANCH   3   5
ENDBRANCH   1   3
BRANCH   1  13
ATOM     13  C   UNL d   1      58.001   0.407  31.164  0.00  0.00     0.065 A 
ATOM     14  C   UNL d   1      58.808   0.547  31.236  0.00  0.00     0.097 A 
ATOM     15  C   UNL d   1      59.260   0.646  30.554  0.00  0.00     0.024 A 
ATOM     16  C   UNL d   1      58.914   0.607  29.815  0.00  0.00     0.002 A 
ATOM     17  C   UNL d   1      58.125   0.470  29.740  0.00  0.00     0.000 A 
ATOM     18  C   UNL d   1      57.647   0.367  30.408  0.00  0.00     0.005 A 
BRANCH  14  19
ATOM     19  O   UNL d   1      59.184   0.591  32.006  0.00  0.00    -0.328 OA
ATOM     20  C   UNL d   1      60.005   0.644  32.097  0.00  0.00     0.181 C 
ENDBRANCH  14  19
ENDBRANCH   1  13
TORSDOF 5
ENDMDL
MODEL 4
REMARK VINA RESULT:      -3.1      1.200      1.540
REMARK  5 active torsions:
REMARK  status: ('A' for Active; 'I' for Inactive)
REMARK    1  A    between atoms: C_2  and  C_1 
REMARK    2  A    between atoms: C_3  and  C_1 
REMARK    3  A    between atoms: C_4  and  C_2 
REMARK    4  A    between atoms: O_9  and  C_6 
REMARK    5  A    between atoms: O_10  and  C_7 
ROOT
ATOM      1  C   UNL d   1      57.249   0.210  32.171  0.00  0.00     0.236 C 
ATOM      2  O   UNL d   1      57.666   0.679  32.695  0.00  0.00    -0.283 OA
ENDROOT
BRANCH   1   3
ATOM      3  C   UNL d   1      57.355   0.267  31.354  0.00  0.00     0.236 C 
ATOM      4  O   UNL d   1      56.726   0.188  30.843  0.00  0.00    -0.283 OA
BRANCH   3   5
ATOM      5  C   UNL d   1      58.123   0.408  31.047  0.00  0.00     0.065 A 
ATOM      6  C   UNL d   1      58.254   0.490  30.259  0.00  0.00     0.097 A 
ATOM      7  C   UNL d   1      59.020   0.630  29.967  0.00  0.00     0.024 A 
ATOM      8  C   UNL d   1      59.642   0.681  30.501  0.00  0.00     0.002 A 
ATOM      9  C   UNL d   1      59.513   0.598  31.295  0.00  0.00     0.000 A 
ATOM     10  C   UNL d   1      58.745   0.459  31.581  0.00  0.00     0.005 A 
BRANCH   6  11
ATOM     11  O   UNL d   1      57.619   0.438  29.719  0.00  0.00    -0.328 OA
ATOM     12  C   UNL d   1      57.691   0.631  29.013  0.00  0.00     0.181 C 
ENDBRANCH   6  11
ENDBRANCH   3   5
ENDBRANCH   1   3
BRANCH   1  13
ATOM     13  C   UNL d   1      56.702  -0.339  32.464  0.00  0.00     0.065 A 
ATOM     14  C   UNL d   1      56.330  -0.199  33.184  0.00  0.00     0.097 A 
ATOM     15  C   UNL d   1      55.787  -0.751  33.468  0.00  0.00     0.024 A 
ATOM     16  C   UNL d   1      55.620  -1.428  33.043  0.00  0.00     0.002 A 
ATOM     17  C   UNL d   1      55.982  -1.568  32.339  0.00  0.00     0.000 A 
ATOM     18  C   UNL d   1      56.531  -1.031  32.030  0.00  0.00     0.005 A 
BRANCH  14  19
ATOM     19  O   UNL d   1      56.496   0.509  33.640  0.00  0.00    -0.328 OA
ATOM     20  C   UNL d   1      56.107   0.682  34.349  0.00  0.00     0.181 C 
ENDBRANCH  14  19
ENDBRANCH   1  13
TORSDOF 5
ENDMDL
MODEL 5
REMARK VINA RESULT:      -1.6      2.853      4.240
REMARK  5 active torsions:
REMARK  status: ('A' for Active; 'I' for Inactive)
REMARK    1  A    between atoms: C_2  and  C_1 
REMARK    2  A    between atoms: C_3  and  C_1 
REMARK    3  A    between atoms: C_4  and  C_2 
REMARK    4  A    between atoms: O_9  and  C_6 
REMARK    5  A    between atoms: O_10  and  C_7 
ROOT
ATOM      1  C   UNL d   1      59.826  -1.567  29.278  0.00  0.00     0.236 C 
ATOM      2  O   UNL d   1      60.595  -1.602  29.557  0.00  0.00    -0.283 OA
ENDROOT
BRANCH   1   3
ATOM      3  C   UNL d   1      59.489  -2.187  28.849  0.00  0.00     0.236 C 
ATOM      4  O   UNL d   1      58.770  -2.097  28.477  0.00  0.00    -0.283 OA
BRANCH   3   5
ATOM      5  C   UNL d   1      59.894  -2.920  28.797  0.00  0.00     0.065 A 
ATOM      6  C   UNL d   1      59.500  -3.613  28.699  0.00  0.00     0.097 A 
ATOM      7  C   UNL d   1      59.913  -4.333  28.648  0.00  0.00     0.024 A 
ATOM      8  C   UNL d   1      60.733  -4.322  28.699  0.00  0.00     0.002 A 
ATOM      9  C   UNL d   1      61.131  -3.626  28.797  0.00  0.00     0.000 A 
ATOM     10  C   UNL d   1      60.713  -2.909  28.848  0.00  0.00     0.005 A 
BRANCH   6  11
ATOM     11  O   UNL d   1      58.667  -3.620  28.648  0.00  0.00    -0.328 OA
ATOM     12  C   UNL d   1      58.293  -4.224  28.455  0.00  0.00     0.181 C 
ENDBRANCH   6  11
ENDBRANCH   3   5
ENDBRANCH   1   3
BRANCH   1  13
ATOM     13  C   UNL d   1      59.370  -0.893  29.429  0.00  0.00     0.065 A 
ATOM     14  C   UNL d   1      59.666  -0.150  29.238  0.00  0.00     0.097 A 
ATOM     15  C   UNL d   1      59.205   0.517  29.391  0.00  0.00     0.024 A 
ATOM     16  C   UNL d   1      58.465   0.442  29.729  0.00  0.00     0.002 A 
ATOM     17  C   UNL d   1      58.173  -0.282  29.917  0.00  0.00     0.000 A 
ATOM     18  C   UNL d   1      58.614  -0.968  29.774  0.00  0.00     0.005 A 
BRANCH  14  19
ATOM     19  O   UNL d   1      60.442  -0.058  28.882  0.00  0.00    -0.328 OA
ATOM     20  C   UNL d   1      60.796   0.682  28.773  0.00  0.00     0.181 C 
ENDBRANCH  14  19
ENDBRANCH   1  13
TORSDOF 5
ENDMDL
