MODEL 1
REMARK VINA RESULT:      12.7      0.000      0.000
REMARK  5 active torsions:
REMARK  status: ('A' for Active; 'I' for Inactive)
REMARK    1  A    between atoms: C_6  and  C_1 
REMARK    2  A    between atoms: C_8  and  N_3 
REMARK    3  A    between atoms: C_7  and  C_6 
REMARK    4  A    between atoms: C_9  and  C_7 
REMARK    5  A    between atoms: C_14  and  C_8 
ROOT
ATOM      1  C   UNL d   1      46.049 -17.352  44.334  0.00  0.00     0.148 A 
ATOM      2  N   UNL d   1      46.205 -18.005  44.955  0.00  0.00    -0.227 NA
ATOM      3  N   UNL d   1      46.097 -17.758  43.518  0.00  0.00    -0.289 N 
ATOM      4  C   UNL d   1      46.280 -18.653  43.627  0.00  0.00     0.083 A 
ATOM      5  C   UNL d   1      46.348 -18.808  44.533  0.00  0.00     0.099 A 
ATOM      6  C   UNL d   1      46.393 -19.342  43.030  0.00  0.00     0.019 A 
ATOM      7  C   UNL d   1      46.528 -19.650  44.821  0.00  0.00     0.021 A 
ATOM      8  C   UNL d   1      46.572 -20.175  43.344  0.00  0.00     0.002 A 
ATOM      9  C   UNL d   1      46.640 -20.330  44.249  0.00  0.00     0.002 A 
ENDROOT
BRANCH   1  10
ATOM     10  C   UNL d   1      45.894 -16.626  44.091  0.00  0.00     0.037 C 
BRANCH  10  11
ATOM     11  C   UNL d   1      45.435 -16.096  44.501  0.00  0.00     0.003 C 
BRANCH  11  12
ATOM     12  C   UNL d   1      45.563 -15.292  44.493  0.00  0.00     0.000 A 
ATOM     13  C   UNL d   1      46.160 -14.954  44.930  0.00  0.00     0.000 A 
ATOM     14  C   UNL d   1      46.288 -14.151  44.922  0.00  0.00     0.000 A 
ATOM     15  C   UNL d   1      45.802 -13.669  44.461  0.00  0.00     0.000 A 
ATOM     16  C   UNL d   1      45.199 -14.001  44.018  0.00  0.00     0.000 A 
ATOM     17  C   UNL d   1      45.078 -14.810  44.032  0.00  0.00     0.000 A 
ENDBRANCH  11  12
ENDBRANCH  10  11
ENDBRANCH   1  10
BRANCH   3  18
ATOM     18  C   UNL d   1      46.123 -18.044  42.771  0.00  0.00     0.082 C 
BRANCH  18  19
ATOM     19  C   UNL d   1      46.365 -17.538  42.160  0.00  0.00     0.019 C 
ATOM     20  C   UNL d   1      46.615 -17.857  41.446  0.00  0.00     0.002 C 
ENDBRANCH  18  19
ENDBRANCH   3  18
TORSDOF 5
ENDMDL
