MODEL 1
REMARK VINA RESULT:      15.8      0.000      0.000
REMARK  2 active torsions:
REMARK  status: ('A' for Active; 'I' for Inactive)
REMARK    1  A    between atoms: C_9  and  C_4 
REMARK    2  A    between atoms: C_13  and  C_6 
ROOT
ATOM      1  N   UNL d   1      46.302 -18.258  43.797  0.00  0.00    -0.185 N 
ATOM      2  C   UNL d   1      46.333 -18.344  44.619  0.00  0.00     0.219 A 
ATOM      3  N   UNL d   1      46.091 -17.487  43.633  0.00  0.00    -0.153 NA
ATOM      4  C   UNL d   1      45.989 -17.088  44.342  0.00  0.00     0.156 A 
ATOM      5  S   UNL d   1      46.139 -17.616  44.953  0.00  0.00    -0.024 SA
ATOM      6  C   UNL d   1      46.495 -18.984  43.459  0.00  0.00     0.187 A 
ATOM      7  N   UNL d   1      46.647 -19.521  44.071  0.00  0.00    -0.127 NA
ATOM      8  N   UNL d   1      46.545 -19.121  44.786  0.00  0.00    -0.120 NA
ENDROOT
BRANCH   6   9
ATOM      9  C   UNL d   1      46.533 -19.153  42.657  0.00  0.00     0.038 A 
ATOM     10  C   UNL d   1      46.597 -18.543  42.105  0.00  0.00     0.004 A 
ATOM     11  C   UNL d   1      46.635 -18.713  41.302  0.00  0.00     0.011 A 
ATOM     12  C   UNL d   1      46.609 -19.498  41.051  0.00  0.00     0.058 A 
ATOM     13  C   UNL d   1      46.545 -20.112  41.605  0.00  0.00     0.011 A 
ATOM     14 CL   UNL d   1      46.647 -19.675  40.243  0.00  0.00    -0.082 Cl
ATOM     15  C   UNL d   1      46.508 -19.930  42.402  0.00  0.00     0.004 A 
ENDBRANCH   6   9
BRANCH   4  16
ATOM     16  C   UNL d   1      45.775 -16.295  44.434  0.00  0.00     0.126 A 
ATOM     17  O   UNL d   1      46.156 -15.653  44.081  0.00  0.00    -0.298 OA
ATOM     18  C   UNL d   1      45.763 -14.969  44.321  0.00  0.00     0.134 A 
ATOM     19 BR   UNL d   1      45.951 -14.199  44.105  0.00  0.00    -0.022 Br
ATOM     20  C   UNL d   1      45.139 -15.186  44.822  0.00  0.00     0.034 A 
ATOM     21  C   UNL d   1      45.148 -16.007  44.891  0.00  0.00     0.029 A 
ENDBRANCH   4  16
TORSDOF 2
ENDMDL
