MODEL 1
REMARK VINA RESULT:      66.3      0.000      0.000
REMARK  5 active torsions:
REMARK  status: ('A' for Active; 'I' for Inactive)
REMARK    1  A    between atoms: C_9  and  C_3 
REMARK    2  A    between atoms: N_11  and  C_4 
REMARK    3  A    between atoms: C_17  and  N_11 
REMARK    4  A    between atoms: O_19  and  C_13 
REMARK    5  A    between atoms: O_20  and  C_15 
ROOT
ATOM      1  N   UNL d   1      13.936  13.584  -2.700  0.00  0.00    -0.184 N 
ATOM      2  C   UNL d   1      13.899  14.178  -3.288  0.00  0.00     0.168 A 
ATOM      3  C   UNL d   1      13.530  14.032  -4.008  0.00  0.00     0.055 A 
ATOM      4  C   UNL d   1      14.311  13.751  -1.985  0.00  0.00     0.218 A 
ATOM      5  N   UNL d   1      13.229  12.690  -3.556  0.00  0.00    -0.162 NA
ATOM      6  C   UNL d   1      13.192  13.283  -4.145  0.00  0.00     0.104 A 
ATOM      7  N   UNL d   1      14.237  14.926  -3.151  0.00  0.00    -0.227 NA
ATOM      8  C   UNL d   1      14.650  14.487  -1.835  0.00  0.00     0.071 A 
ATOM      9  C   UNL d   1      14.612  15.080  -2.424  0.00  0.00     0.087 A 
ATOM     10  C   UNL d   1      12.822  13.125  -4.857  0.00  0.00     0.023 C 
ATOM     11  C   UNL d   1      14.962  15.854  -2.280  0.00  0.00     0.021 C 
ENDROOT
BRANCH   3  12
ATOM     12  C   UNL d   1      13.493  14.616  -4.588  0.00  0.00     0.007 A 
ATOM     13  C   UNL d   1      14.156  14.764  -5.056  0.00  0.00     0.026 A 
ATOM     14  C   UNL d   1      14.119  15.357  -5.645  0.00  0.00     0.116 A 
ATOM     15  C   UNL d   1      13.419  15.791  -5.754  0.00  0.00     0.116 A 
ATOM     16  C   UNL d   1      12.769  15.631  -5.278  0.00  0.00     0.026 A 
ATOM     17  C   UNL d   1      12.806  15.040  -4.692  0.00  0.00     0.002 A 
BRANCH  14  18
ATOM     18  O   UNL d   1      14.789  15.519  -6.133  0.00  0.00    -0.326 OA
ATOM     19  C   UNL d   1      15.307  14.868  -6.386  0.00  0.00     0.181 C 
ENDBRANCH  14  18
BRANCH  15  20
ATOM     20  O   UNL d   1      13.381  16.403  -6.361  0.00  0.00    -0.326 OA
ATOM     21  C   UNL d   1      12.816  17.053  -6.271  0.00  0.00     0.181 C 
ENDBRANCH  15  20
ENDBRANCH   3  12
BRANCH   4  22
ATOM     22  N   UNL d   1      14.349  13.141  -1.381  0.00  0.00    -0.383 NA
BRANCH  22  23
ATOM     23  C   UNL d   1      14.383  12.600  -0.844  0.00  0.00     0.134 A 
ATOM     24  C   UNL d   1      13.733  12.320  -0.551  0.00  0.00     0.032 A 
ATOM     25  C   UNL d   1      13.767  11.779  -0.014  0.00  0.00     0.003 A 
ATOM     26  C   UNL d   1      15.087  11.800  -0.065  0.00  0.00     0.003 A 
ATOM     27  C   UNL d   1      15.053  12.344  -0.605  0.00  0.00     0.032 A 
ENDBRANCH  22  23
ENDBRANCH   4  22
TORSDOF 5
ENDMDL
MODEL 2
REMARK VINA RESULT:      66.4      2.014      4.778
REMARK  5 active torsions:
REMARK  status: ('A' for Active; 'I' for Inactive)
REMARK    1  A    between atoms: C_9  and  C_3 
REMARK    2  A    between atoms: N_11  and  C_4 
REMARK    3  A    between atoms: C_17  and  N_11 
REMARK    4  A    between atoms: O_19  and  C_13 
REMARK    5  A    between atoms: O_20  and  C_15 
ROOT
ATOM      1  N   UNL d   1      13.873  14.862  -4.094  0.00  0.00    -0.184 N 
ATOM      2  C   UNL d   1      13.981  14.404  -3.402  0.00  0.00     0.168 A 
ATOM      3  C   UNL d   1      13.762  13.612  -3.385  0.00  0.00     0.055 A 
ATOM      4  C   UNL d   1      14.099  15.654  -4.090  0.00  0.00     0.218 A 
ATOM      5  N   UNL d   1      13.323  13.727  -4.760  0.00  0.00    -0.162 NA
ATOM      6  C   UNL d   1      13.431  13.269  -4.067  0.00  0.00     0.104 A 
ATOM      7  N   UNL d   1      14.311  14.747  -2.719  0.00  0.00    -0.227 NA
ATOM      8  C   UNL d   1      14.428  16.008  -3.422  0.00  0.00     0.071 A 
ATOM      9  C   UNL d   1      14.535  15.550  -2.730  0.00  0.00     0.087 A 
ATOM     10  C   UNL d   1      13.209  12.482  -4.064  0.00  0.00     0.023 C 
ATOM     11  C   UNL d   1      14.878  15.906  -2.025  0.00  0.00     0.021 C 
ENDROOT
BRANCH   3  12
ATOM     12  C   UNL d   1      13.868  13.161  -2.704  0.00  0.00     0.007 A 
ATOM     13  C   UNL d   1      14.620  12.878  -2.518  0.00  0.00     0.026 A 
ATOM     14  C   UNL d   1      14.728  12.420  -1.826  0.00  0.00     0.116 A 
ATOM     15  C   UNL d   1      14.080  12.254  -1.333  0.00  0.00     0.116 A 
ATOM     16  C   UNL d   1      13.338  12.544  -1.533  0.00  0.00     0.026 A 
ATOM     17  C   UNL d   1      13.231  13.000  -2.222  0.00  0.00     0.002 A 
BRANCH  14  18
ATOM     18  O   UNL d   1      15.492  12.123  -1.624  0.00  0.00    -0.326 OA
ATOM     19  C   UNL d   1      15.872  12.377  -0.884  0.00  0.00     0.181 C 
ENDBRANCH  14  18
BRANCH  15  20
ATOM     20  O   UNL d   1      14.191  11.782  -0.620  0.00  0.00    -0.326 OA
ATOM     21  C   UNL d   1      13.573  11.779  -0.014  0.00  0.00     0.181 C 
ENDBRANCH  15  20
ENDBRANCH   3  12
BRANCH   4  22
ATOM     22  N   UNL d   1      13.988  16.124  -4.800  0.00  0.00    -0.383 NA
BRANCH  22  23
ATOM     23  C   UNL d   1      13.890  16.542  -5.432  0.00  0.00     0.134 A 
ATOM     24  C   UNL d   1      14.488  16.913  -5.733  0.00  0.00     0.032 A 
ATOM     25  C   UNL d   1      14.390  17.331  -6.364  0.00  0.00     0.003 A 
ATOM     26  C   UNL d   1      13.110  17.007  -6.389  0.00  0.00     0.003 A 
ATOM     27  C   UNL d   1      13.208  16.588  -5.754  0.00  0.00     0.032 A 
ENDBRANCH  22  23
ENDBRANCH   4  22
TORSDOF 5
ENDMDL
MODEL 3
REMARK VINA RESULT:      68.7      2.354      5.187
REMARK  5 active torsions:
REMARK  status: ('A' for Active; 'I' for Inactive)
REMARK    1  A    between atoms: C_9  and  C_3 
REMARK    2  A    between atoms: N_11  and  C_4 
REMARK    3  A    between atoms: C_17  and  N_11 
REMARK    4  A    between atoms: O_19  and  C_13 
REMARK    5  A    between atoms: O_20  and  C_15 
ROOT
ATOM      1  N   UNL d   1      14.796  15.785  -2.718  0.00  0.00    -0.184 N 
ATOM      2  C   UNL d   1      14.606  15.067  -2.332  0.00  0.00     0.168 A 
ATOM      3  C   UNL d   1      14.838  14.935  -1.555  0.00  0.00     0.055 A 
ATOM      4  C   UNL d   1      14.555  15.898  -3.497  0.00  0.00     0.218 A 
ATOM      5  N   UNL d   1      15.455  16.244  -1.539  0.00  0.00    -0.162 NA
ATOM      6  C   UNL d   1      15.265  15.526  -1.154  0.00  0.00     0.104 A 
ATOM      7  N   UNL d   1      14.179  14.476  -2.733  0.00  0.00    -0.227 NA
ATOM      8  C   UNL d   1      14.131  15.323  -3.907  0.00  0.00     0.071 A 
ATOM      9  C   UNL d   1      13.941  14.604  -3.522  0.00  0.00     0.087 A 
ATOM     10  C   UNL d   1      15.502  15.407  -0.379  0.00  0.00     0.023 C 
ATOM     11  C   UNL d   1      13.499  13.994  -3.938  0.00  0.00     0.021 C 
ENDROOT
BRANCH   3  12
ATOM     12  C   UNL d   1      14.651  14.228  -1.175  0.00  0.00     0.007 A 
ATOM     13  C   UNL d   1      14.867  13.512  -1.524  0.00  0.00     0.026 A 
ATOM     14  C   UNL d   1      14.677  12.794  -1.138  0.00  0.00     0.116 A 
ATOM     15  C   UNL d   1      14.275  12.806  -0.412  0.00  0.00     0.116 A 
ATOM     16  C   UNL d   1      14.067  13.528  -0.079  0.00  0.00     0.026 A 
ATOM     17  C   UNL d   1      14.256  14.243  -0.462  0.00  0.00     0.002 A 
BRANCH  14  18
ATOM     18  O   UNL d   1      14.891  12.053  -1.483  0.00  0.00    -0.326 OA
ATOM     19  C   UNL d   1      15.730  11.829  -1.538  0.00  0.00     0.181 C 
ENDBRANCH  14  18
BRANCH  15  20
ATOM     20  O   UNL d   1      14.079  12.066  -0.014  0.00  0.00    -0.326 OA
ATOM     21  C   UNL d   1      13.263  11.779  -0.032  0.00  0.00     0.181 C 
ENDBRANCH  15  20
ENDBRANCH   3  12
BRANCH   4  22
ATOM     22  N   UNL d   1      14.750  16.635  -3.893  0.00  0.00    -0.383 NA
BRANCH  22  23
ATOM     23  C   UNL d   1      14.923  17.291  -4.245  0.00  0.00     0.134 A 
ATOM     24  C   UNL d   1      15.563  17.335  -4.662  0.00  0.00     0.032 A 
ATOM     25  C   UNL d   1      15.736  17.989  -5.013  0.00  0.00     0.003 A 
ATOM     26  C   UNL d   1      14.639  18.547  -4.533  0.00  0.00     0.003 A 
ATOM     27  C   UNL d   1      14.465  17.889  -4.179  0.00  0.00     0.032 A 
ENDBRANCH  22  23
ENDBRANCH   4  22
TORSDOF 5
ENDMDL
