MODEL 1
REMARK VINA RESULT:      -6.9      0.000      0.000
REMARK  1 active torsions:
REMARK  status: ('A' for Active; 'I' for Inactive)
REMARK    1  A    between atoms: C_4  and  C_1 
ROOT
ATOM      1  C   UNL d   1     -48.538  12.821  23.042  0.00  0.00     0.168 A 
ATOM      2  N   UNL d   1     -47.846  12.410  22.873  0.00  0.00    -0.225 NA
ATOM      3  N   UNL d   1     -48.354  13.630  23.077  0.00  0.00    -0.225 NA
ATOM      4  C   UNL d   1     -47.230  12.963  22.803  0.00  0.00     0.101 A 
ATOM      5  C   UNL d   1     -47.546  13.715  22.929  0.00  0.00     0.101 A 
ATOM      6  C   UNL d   1     -46.422  12.873  22.639  0.00  0.00     0.021 A 
ATOM      7  C   UNL d   1     -47.045  14.380  22.891  0.00  0.00     0.021 A 
ATOM      8  C   UNL d   1     -45.931  13.533  22.603  0.00  0.00     0.002 A 
ATOM      9  C   UNL d   1     -46.242  14.287  22.728  0.00  0.00     0.002 A 
ENDROOT
BRANCH   1  10
ATOM     10  C   UNL d   1     -49.285  12.493  23.157  0.00  0.00     0.065 A 
ATOM     11  S   UNL d   1     -49.615  12.145  23.698  0.00  0.00    -0.083 SA
ATOM     12  C   UNL d   1     -50.295  11.925  23.614  0.00  0.00     0.035 A 
ATOM     13  C   UNL d   1     -50.648  12.046  23.002  0.00  0.00     0.008 A 
ATOM     14  C   UNL d   1     -50.319  12.392  22.462  0.00  0.00     0.010 A 
ENDBRANCH   1  10
TORSDOF 1
ENDMDL
MODEL 2
REMARK VINA RESULT:      -6.8      1.017      3.400
REMARK  1 active torsions:
REMARK  status: ('A' for Active; 'I' for Inactive)
REMARK    1  A    between atoms: C_4  and  C_1 
ROOT
ATOM      1  C   UNL d   1     -47.983  13.058  22.898  0.00  0.00     0.168 A 
ATOM      2  N   UNL d   1     -48.190  12.466  23.430  0.00  0.00    -0.225 NA
ATOM      3  N   UNL d   1     -48.659  13.259  22.461  0.00  0.00    -0.225 NA
ATOM      4  C   UNL d   1     -48.996  12.297  23.323  0.00  0.00     0.101 A 
ATOM      5  C   UNL d   1     -49.284  12.787  22.725  0.00  0.00     0.101 A 
ATOM      6  C   UNL d   1     -49.503  11.757  23.698  0.00  0.00     0.021 A 
ATOM      7  C   UNL d   1     -50.086  12.733  22.503  0.00  0.00     0.021 A 
ATOM      8  C   UNL d   1     -50.294  11.707  23.475  0.00  0.00     0.002 A 
ATOM      9  C   UNL d   1     -50.585  12.195  22.877  0.00  0.00     0.002 A 
ENDROOT
BRANCH   1  10
ATOM     10  C   UNL d   1     -47.237  13.397  22.811  0.00  0.00     0.065 A 
ATOM     11  S   UNL d   1     -46.954  14.053  22.925  0.00  0.00    -0.083 SA
ATOM     12  C   UNL d   1     -46.258  14.166  22.787  0.00  0.00     0.035 A 
ATOM     13  C   UNL d   1     -45.841  13.639  22.538  0.00  0.00     0.008 A 
ATOM     14  C   UNL d   1     -46.122  12.985  22.424  0.00  0.00     0.010 A 
ENDBRANCH   1  10
TORSDOF 1
ENDMDL
MODEL 3
REMARK VINA RESULT:      -6.3      1.258      1.544
REMARK  1 active torsions:
REMARK  status: ('A' for Active; 'I' for Inactive)
REMARK    1  A    between atoms: C_4  and  C_1 
ROOT
ATOM      1  C   UNL d   1     -48.721  13.810  22.756  0.00  0.00     0.168 A 
ATOM      2  N   UNL d   1     -48.142  14.379  22.622  0.00  0.00    -0.225 NA
ATOM      3  N   UNL d   1     -48.344  13.116  23.013  0.00  0.00    -0.225 NA
ATOM      4  C   UNL d   1     -47.404  14.039  22.795  0.00  0.00     0.101 A 
ATOM      5  C   UNL d   1     -47.531  13.260  23.036  0.00  0.00     0.101 A 
ATOM      6  C   UNL d   1     -46.633  14.344  22.763  0.00  0.00     0.021 A 
ATOM      7  C   UNL d   1     -46.878  12.785  23.246  0.00  0.00     0.021 A 
ATOM      8  C   UNL d   1     -45.992  13.871  22.971  0.00  0.00     0.002 A 
ATOM      9  C   UNL d   1     -46.114  13.092  23.212  0.00  0.00     0.002 A 
ENDROOT
BRANCH   1  10
ATOM     10  C   UNL d   1     -49.533  13.907  22.655  0.00  0.00     0.065 A 
ATOM     11  S   UNL d   1     -50.100  13.977  23.097  0.00  0.00    -0.083 SA
ATOM     12  C   UNL d   1     -50.758  14.054  22.818  0.00  0.00     0.035 A 
ATOM     13  C   UNL d   1     -50.859  14.061  22.108  0.00  0.00     0.008 A 
ATOM     14  C   UNL d   1     -50.293  13.991  21.667  0.00  0.00     0.010 A 
ENDBRANCH   1  10
TORSDOF 1
ENDMDL
