MODEL 1
REMARK VINA RESULT:      -2.9      0.000      0.000
REMARK  6 active torsions:
REMARK  status: ('A' for Active; 'I' for Inactive)
REMARK    1  A    between atoms: C_22  and  C_3 
REMARK    2  A    between atoms: S_17  and  C_5 
REMARK    3  A    between atoms: C_11  and  C_16 
REMARK       I    between atoms: N_14  and  C_11 
REMARK    4  A    between atoms: C_19  and  N_14 
REMARK    5  A    between atoms: C_16  and  C_20 
REMARK    6  A    between atoms: C_20  and  S_17 
ROOT
ATOM      1  C   UNL d   1      33.234  20.538 -22.019  0.00  0.00     0.092 A 
ATOM      2  C   UNL d   1      33.230  21.788 -22.703  0.00  0.00     0.057 A 
ATOM      3  C   UNL d   1      33.231  21.361 -21.998  0.00  0.00     0.016 A 
ATOM      4  N   UNL d   1      33.236  20.568 -23.445  0.00  0.00    -0.239 NA
ATOM      5  C   UNL d   1      33.237  20.142 -22.742  0.00  0.00     0.120 A 
ATOM      6  C   UNL d   1      33.233  21.392 -23.427  0.00  0.00     0.081 A 
ATOM      7  C   UNL d   1      33.227  22.611 -22.683  0.00  0.00     0.193 A 
ATOM      8  C   UNL d   1      33.234  20.102 -21.305  0.00  0.00     0.103 C 
ATOM      9  N   UNL d   1      33.235  19.678 -20.587  0.00  0.00    -0.191 NA
ATOM     10  C   UNL d   1      33.229  22.648 -24.115  0.00  0.00     0.042 A 
ATOM     11  C   UNL d   1      33.227  23.045 -23.391  0.00  0.00     0.019 A 
ATOM     12  C   UNL d   1      33.233  21.818 -24.130  0.00  0.00    -0.003 A 
ATOM     13  O   UNL d   1      33.224  23.006 -21.960  0.00  0.00    -0.287 OA
ATOM     14  C   UNL d   1      33.231  22.517 -24.936  0.00  0.00     0.009 C 
ATOM     15  C   UNL d   1      33.226  23.471 -24.105  0.00  0.00     0.009 C 
ENDROOT
BRANCH   3  16
ATOM     16  C   UNL d   1      33.228  21.757 -21.276  0.00  0.00     0.001 C 
ATOM     17  C   UNL d   1      32.514  21.939 -20.908  0.00  0.00     0.000 C 
ENDBRANCH   3  16
BRANCH   5  18
ATOM     18  S   UNL d   1      33.240  19.308 -22.755  0.00  0.00    -0.067 SA
BRANCH  18  19
ATOM     19  C   UNL d   1      32.875  18.902 -23.374  0.00  0.00     0.042 C 
BRANCH  19  20
ATOM     20  C   UNL d   1      32.928  18.078 -23.414  0.00  0.00     0.070 C 
BRANCH  20  21
ATOM     21  C   UNL d   1      32.348  17.646 -23.834  0.00  0.00     0.280 C 
ATOM     22  N   UNL d   1      31.817  17.166 -23.418  0.00  0.00    -0.208 NA
ATOM     23  O   UNL d   1      32.310  17.704 -24.656  0.00  0.00    -0.265 OA
BRANCH  22  24
ATOM     24  C   UNL d   1      31.236  16.734 -23.838  0.00  0.00     0.085 A 
ATOM     25  C   UNL d   1      30.460  17.005 -23.847  0.00  0.00     0.021 A 
ATOM     26  C   UNL d   1      29.883  16.584 -24.257  0.00  0.00     0.031 A 
ATOM     27  C   UNL d   1      30.084  15.893 -24.659  0.00  0.00     0.140 A 
ATOM     28  C   UNL d   1      30.869  15.622 -24.648  0.00  0.00     0.031 A 
ATOM     29  F   UNL d   1      29.507  15.461 -25.078  0.00  0.00    -0.204 F 
ATOM     30  C   UNL d   1      31.445  16.043 -24.237  0.00  0.00     0.021 A 
ENDBRANCH  22  24
ENDBRANCH  20  21
ENDBRANCH  19  20
ENDBRANCH  18  19
ENDBRANCH   5  18
TORSDOF 6
ENDMDL
MODEL 2
REMARK VINA RESULT:      -0.5      1.239      2.524
REMARK  6 active torsions:
REMARK  status: ('A' for Active; 'I' for Inactive)
REMARK    1  A    between atoms: C_22  and  C_3 
REMARK    2  A    between atoms: S_17  and  C_5 
REMARK    3  A    between atoms: C_11  and  C_16 
REMARK       I    between atoms: N_14  and  C_11 
REMARK    4  A    between atoms: C_19  and  N_14 
REMARK    5  A    between atoms: C_16  and  C_20 
REMARK    6  A    between atoms: C_20  and  S_17 
ROOT
ATOM      1  C   UNL d   1      32.958  22.200 -23.317  0.00  0.00     0.092 A 
ATOM      2  C   UNL d   1      32.969  22.080 -21.897  0.00  0.00     0.057 A 
ATOM      3  C   UNL d   1      32.900  22.547 -22.573  0.00  0.00     0.016 A 
ATOM      4  N   UNL d   1      33.153  20.922 -22.712  0.00  0.00    -0.239 NA
ATOM      5  C   UNL d   1      33.085  21.388 -23.386  0.00  0.00     0.120 A 
ATOM      6  C   UNL d   1      33.095  21.268 -21.967  0.00  0.00     0.081 A 
ATOM      7  C   UNL d   1      32.910  22.427 -21.153  0.00  0.00     0.193 A 
ATOM      8  C   UNL d   1      32.889  22.671 -24.004  0.00  0.00     0.103 C 
ATOM      9  N   UNL d   1      32.819  23.150 -24.683  0.00  0.00    -0.191 NA
ATOM     10  C   UNL d   1      33.105  21.147 -20.539  0.00  0.00     0.042 A 
ATOM     11  C   UNL d   1      32.979  21.959 -20.469  0.00  0.00     0.019 A 
ATOM     12  C   UNL d   1      33.163  20.802 -21.292  0.00  0.00    -0.003 A 
ATOM     13  O   UNL d   1      32.784  23.238 -21.083  0.00  0.00    -0.287 OA
ATOM     14  C   UNL d   1      33.227  20.353 -20.327  0.00  0.00     0.009 C 
ATOM     15  C   UNL d   1      33.048  21.484 -19.790  0.00  0.00     0.009 C 
ENDROOT
BRANCH   3  16
ATOM     16  C   UNL d   1      32.774  23.358 -22.503  0.00  0.00     0.001 C 
ATOM     17  C   UNL d   1      32.073  23.640 -22.176  0.00  0.00     0.000 C 
ENDBRANCH   3  16
BRANCH   5  18
ATOM     18  S   UNL d   1      33.143  21.043 -24.144  0.00  0.00    -0.067 SA
BRANCH  18  19
ATOM     19  C   UNL d   1      33.240  20.227 -24.221  0.00  0.00     0.042 C 
BRANCH  19  20
ATOM     20  C   UNL d   1      32.927  19.836 -24.879  0.00  0.00     0.070 C 
BRANCH  20  21
ATOM     21  C   UNL d   1      32.715  19.030 -24.818  0.00  0.00     0.280 C 
ATOM     22  N   UNL d   1      31.989  18.825 -24.477  0.00  0.00    -0.208 NA
ATOM     23  O   UNL d   1      33.229  18.448 -25.096  0.00  0.00    -0.265 OA
BRANCH  22  24
ATOM     24  C   UNL d   1      31.775  18.018 -24.415  0.00  0.00     0.085 A 
ATOM     25  C   UNL d   1      31.595  17.594 -25.097  0.00  0.00     0.021 A 
ATOM     26  C   UNL d   1      31.384  16.800 -25.043  0.00  0.00     0.031 A 
ATOM     27  C   UNL d   1      31.354  16.430 -24.306  0.00  0.00     0.140 A 
ATOM     28  C   UNL d   1      31.537  16.861 -23.620  0.00  0.00     0.031 A 
ATOM     29  F   UNL d   1      31.142  15.627 -24.242  0.00  0.00    -0.204 F 
ATOM     30  C   UNL d   1      31.747  17.655 -23.675  0.00  0.00     0.021 A 
ENDBRANCH  22  24
ENDBRANCH  20  21
ENDBRANCH  19  20
ENDBRANCH  18  19
ENDBRANCH   5  18
TORSDOF 6
ENDMDL
