MODEL 1
REMARK VINA RESULT:     126.9      0.000      0.000
REMARK  5 active torsions:
REMARK  status: ('A' for Active; 'I' for Inactive)
REMARK    1  A    between atoms: C_5  and  N_1 
REMARK    2  A    between atoms: C_8  and  C_3 
REMARK    3  A    between atoms: C_7  and  C_4 
REMARK    4  A    between atoms: N_12  and  C_5 
REMARK    5  A    between atoms: N_11  and  C_10 
ROOT
ATOM      1  N   UNL d   1     -58.751 -99.663 -43.270  0.00  0.00    -0.203 N 
ATOM      2  N   UNL d   1     -59.223 -99.617 -42.595  0.00  0.00    -0.163 NA
ATOM      3  C   UNL d   1     -58.774 -99.592 -41.954  0.00  0.00     0.103 A 
ATOM      4  C   UNL d   1     -57.966 -99.666 -43.041  0.00  0.00     0.087 A 
ATOM      5  C   UNL d   1     -57.962 -99.621 -42.205  0.00  0.00     0.040 A 
ENDROOT
BRANCH   4   6
ATOM      6  C   UNL d   1     -57.346 -99.708 -43.603  0.00  0.00     0.018 A 
ATOM      7  C   UNL d   1     -57.306 -99.151 -44.204  0.00  0.00     0.003 A 
ATOM      8  C   UNL d   1     -56.715 -99.179 -44.751  0.00  0.00     0.018 A 
ATOM      9  C   UNL d   1     -56.133 -99.782 -44.711  0.00  0.00     0.064 A 
ATOM     10  C   UNL d   1     -56.173-100.339 -44.110  0.00  0.00     0.018 A 
ATOM     11  C   UNL d   1     -56.787-100.304 -43.547  0.00  0.00     0.003 A 
BRANCH   9  12
ATOM     12  N   UNL d   1     -55.524 -99.783 -45.304  0.00  0.00    -0.301 N 
ATOM     13  C   UNL d   1     -55.130 -99.060 -45.479  0.00  0.00     0.100 C 
ATOM     14  C   UNL d   1     -55.257-100.392 -45.739  0.00  0.00     0.100 C 
ENDBRANCH   9  12
ENDBRANCH   4   6
BRANCH   1  15
ATOM     15  C   UNL d   1     -59.030 -99.700 -44.071  0.00  0.00     0.222 C 
ATOM     16  S   UNL d   1     -59.198-100.462 -44.411  0.00  0.00    -0.037 SA
BRANCH  15  17
ATOM     17  N   UNL d   1     -59.130 -99.014 -44.500  0.00  0.00    -0.214 NA
ATOM     18  C   UNL d   1     -58.955 -98.987 -45.332  0.00  0.00     0.122 C 
ENDBRANCH  15  17
ENDBRANCH   1  15
BRANCH   3  19
ATOM     19  C   UNL d   1     -59.066 -99.545 -41.185  0.00  0.00     0.019 A 
ATOM     20  C   UNL d   1     -59.162-100.233 -40.712  0.00  0.00     0.002 A 
ATOM     21  C   UNL d   1     -59.455-100.186 -39.944  0.00  0.00     0.007 A 
ATOM     22  C   UNL d   1     -59.650 -99.448 -39.650  0.00  0.00     0.035 A 
ATOM     23  C   UNL d   1     -59.561 -98.756 -40.104  0.00  0.00     0.007 A 
ATOM     24 BR   UNL d   1     -59.956 -99.408 -38.843  0.00  0.00    -0.049 Br
ATOM     25  C   UNL d   1     -59.269 -98.810 -40.871  0.00  0.00     0.002 A 
ENDBRANCH   3  19
TORSDOF 5
ENDMDL
