MODEL 1
REMARK VINA RESULT:      -2.5      0.000      0.000
REMARK  5 active torsions:
REMARK  status: ('A' for Active; 'I' for Inactive)
REMARK    1  A    between atoms: N_10  and  C_2 
REMARK    2  A    between atoms: C_13  and  C_3 
REMARK    3  A    between atoms: C_5  and  S_14 
REMARK       I    between atoms: C_12  and  N_10 
REMARK    4  A    between atoms: C_18  and  C_12 
REMARK    5  A    between atoms: S_14  and  C_18 
ROOT
ATOM      1  N   UNL d   1      30.999  17.579 -24.507  0.00  0.00    -0.051 NA
ATOM      2  C   UNL d   1      31.812  17.649 -24.626  0.00  0.00     0.760 A 
ATOM      3  C   UNL d   1      30.863  16.908 -24.052  0.00  0.00     0.147 A 
ATOM      4  N   UNL d   1      32.181  17.029 -24.250  0.00  0.00    -0.019 NA
ATOM      5  S   UNL d   1      31.597  16.562 -23.889  0.00  0.00     0.052 SA
ENDROOT
BRANCH   2   6
ATOM      6  N   UNL d   1      32.181  18.248 -25.056  0.00  0.00    -0.018 NA
ATOM      7  C   UNL d   1      32.635  18.818 -24.671  0.00  0.00     0.302 C 
ATOM      8  O   UNL d   1      33.002  19.414 -25.096  0.00  0.00    -0.264 OA
BRANCH   7   9
ATOM      9  C   UNL d   1      32.721  18.788 -23.844  0.00  0.00     0.100 C 
BRANCH   9  10
ATOM     10  S   UNL d   1      33.237  19.303 -23.468  0.00  0.00    -0.054 SA
BRANCH  10  11
ATOM     11  C   UNL d   1      33.212  19.392 -22.653  0.00  0.00     0.164 A 
ATOM     12  S   UNL d   1      33.153  20.104 -22.249  0.00  0.00    -0.039 SA
ATOM     13  C   UNL d   1      33.146  19.939 -21.439  0.00  0.00     0.134 A 
ATOM     14  C   UNL d   1      33.092  20.503 -20.835  0.00  0.00     0.030 C 
ATOM     15  N   UNL d   1      33.199  19.126 -21.348  0.00  0.00    -0.140 NA
ATOM     16  N   UNL d   1      33.241  18.786 -22.101  0.00  0.00    -0.134 NA
ENDBRANCH  10  11
ENDBRANCH   9  10
ENDBRANCH   7   9
ENDBRANCH   2   6
BRANCH   3  17
ATOM     17  C   UNL d   1      30.141  16.598 -23.782  0.00  0.00     0.026 A 
ATOM     18  C   UNL d   1      30.134  15.903 -23.343  0.00  0.00     0.002 A 
ATOM     19  C   UNL d   1      29.423  15.592 -23.074  0.00  0.00     0.000 A 
ATOM     20  C   UNL d   1      28.714  15.980 -23.244  0.00  0.00     0.000 A 
ATOM     21  C   UNL d   1      28.721  16.688 -23.690  0.00  0.00     0.000 A 
ATOM     22  C   UNL d   1      27.999  15.671 -22.976  0.00  0.00     0.000 C 
ATOM     23  C   UNL d   1      29.440  16.995 -23.958  0.00  0.00     0.002 A 
ENDBRANCH   3  17
TORSDOF 5
ENDMDL
MODEL 2
REMARK VINA RESULT:      -1.8      1.510      1.996
REMARK  5 active torsions:
REMARK  status: ('A' for Active; 'I' for Inactive)
REMARK    1  A    between atoms: N_10  and  C_2 
REMARK    2  A    between atoms: C_13  and  C_3 
REMARK    3  A    between atoms: C_5  and  S_14 
REMARK       I    between atoms: C_12  and  N_10 
REMARK    4  A    between atoms: C_18  and  C_12 
REMARK    5  A    between atoms: S_14  and  C_18 
ROOT
ATOM      1  N   UNL d   1      30.488  15.715 -23.965  0.00  0.00    -0.051 NA
ATOM      2  C   UNL d   1      31.106  15.812 -24.502  0.00  0.00     0.760 A 
ATOM      3  C   UNL d   1      29.851  16.167 -24.221  0.00  0.00     0.147 A 
ATOM      4  N   UNL d   1      30.860  16.319 -25.087  0.00  0.00    -0.019 NA
ATOM      5  S   UNL d   1      30.079  16.546 -24.922  0.00  0.00     0.052 SA
ENDROOT
BRANCH   2   6
ATOM      6  N   UNL d   1      31.846  15.453 -24.447  0.00  0.00    -0.018 NA
ATOM      7  C   UNL d   1      32.506  15.888 -24.212  0.00  0.00     0.302 C 
ATOM      8  O   UNL d   1      33.241  15.532 -24.157  0.00  0.00    -0.264 OA
BRANCH   7   9
ATOM      9  C   UNL d   1      32.423  16.696 -24.031  0.00  0.00     0.100 C 
BRANCH   9  10
ATOM     10  S   UNL d   1      33.072  17.124 -23.770  0.00  0.00    -0.054 SA
BRANCH  10  11
ATOM     11  C   UNL d   1      32.995  17.919 -23.581  0.00  0.00     0.164 A 
ATOM     12  S   UNL d   1      32.951  18.230 -22.823  0.00  0.00    -0.039 SA
ATOM     13  C   UNL d   1      32.877  19.051 -22.889  0.00  0.00     0.134 A 
ATOM     14  C   UNL d   1      32.816  19.579 -22.253  0.00  0.00     0.030 C 
ATOM     15  N   UNL d   1      32.875  19.241 -23.686  0.00  0.00    -0.140 NA
ATOM     16  N   UNL d   1      32.948  18.538 -24.117  0.00  0.00    -0.134 NA
ENDBRANCH  10  11
ENDBRANCH   9  10
ENDBRANCH   7   9
ENDBRANCH   2   6
BRANCH   3  17
ATOM     17  C   UNL d   1      29.102  16.257 -23.875  0.00  0.00     0.026 A 
ATOM     18  C   UNL d   1      28.638  15.595 -23.727  0.00  0.00     0.002 A 
ATOM     19  C   UNL d   1      27.896  15.679 -23.385  0.00  0.00     0.000 A 
ATOM     20  C   UNL d   1      27.616  16.431 -23.189  0.00  0.00     0.000 A 
ATOM     21  C   UNL d   1      28.088  17.105 -23.340  0.00  0.00     0.000 A 
ATOM     22  C   UNL d   1      26.872  16.519 -22.846  0.00  0.00     0.000 C 
ATOM     23  C   UNL d   1      28.833  17.013 -23.684  0.00  0.00     0.002 A 
ENDBRANCH   3  17
TORSDOF 5
ENDMDL
MODEL 3
REMARK VINA RESULT:      -0.4      1.652      2.377
REMARK  5 active torsions:
REMARK  status: ('A' for Active; 'I' for Inactive)
REMARK    1  A    between atoms: N_10  and  C_2 
REMARK    2  A    between atoms: C_13  and  C_3 
REMARK    3  A    between atoms: C_5  and  S_14 
REMARK       I    between atoms: C_12  and  N_10 
REMARK    4  A    between atoms: C_18  and  C_12 
REMARK    5  A    between atoms: S_14  and  C_18 
ROOT
ATOM      1  N   UNL d   1      32.228  19.198 -24.388  0.00  0.00    -0.051 NA
ATOM      2  C   UNL d   1      32.818  19.696 -24.098  0.00  0.00     0.760 A 
ATOM      3  C   UNL d   1      32.258  18.492 -23.970  0.00  0.00     0.147 A 
ATOM      4  N   UNL d   1      33.214  19.305 -23.506  0.00  0.00    -0.019 NA
ATOM      5  S   UNL d   1      32.873  18.554 -23.417  0.00  0.00     0.052 SA
ENDROOT
BRANCH   2   6
ATOM      6  N   UNL d   1      32.974  20.458 -24.370  0.00  0.00    -0.018 NA
ATOM      7  C   UNL d   1      33.084  21.077 -23.836  0.00  0.00     0.302 C 
ATOM      8  O   UNL d   1      33.239  21.835 -24.104  0.00  0.00    -0.264 OA
BRANCH   7   9
ATOM      9  C   UNL d   1      33.036  20.929 -23.018  0.00  0.00     0.100 C 
BRANCH   9  10
ATOM     10  S   UNL d   1      33.237  21.519 -22.484  0.00  0.00    -0.054 SA
BRANCH  10  11
ATOM     11  C   UNL d   1      32.812  21.611 -21.789  0.00  0.00     0.164 A 
ATOM     12  S   UNL d   1      33.128  21.782 -21.052  0.00  0.00    -0.039 SA
ATOM     13  C   UNL d   1      32.504  21.825 -20.511  0.00  0.00     0.134 A 
ATOM     14  C   UNL d   1      32.582  21.987 -19.702  0.00  0.00     0.030 C 
ATOM     15  N   UNL d   1      31.808  21.681 -20.917  0.00  0.00    -0.140 NA
ATOM     16  N   UNL d   1      31.998  21.548 -21.712  0.00  0.00    -0.134 NA
ENDBRANCH  10  11
ENDBRANCH   9  10
ENDBRANCH   7   9
ENDBRANCH   2   6
BRANCH   3  17
ATOM     17  C   UNL d   1      31.783  17.816 -24.051  0.00  0.00     0.026 A 
ATOM     18  C   UNL d   1      32.021  17.106 -23.711  0.00  0.00     0.002 A 
ATOM     19  C   UNL d   1      31.554  16.435 -23.788  0.00  0.00     0.000 A 
ATOM     20  C   UNL d   1      30.845  16.473 -24.209  0.00  0.00     0.000 A 
ATOM     21  C   UNL d   1      30.603  17.196 -24.555  0.00  0.00     0.000 A 
ATOM     22  C   UNL d   1      30.374  15.801 -24.288  0.00  0.00     0.000 C 
ATOM     23  C   UNL d   1      31.076  17.867 -24.473  0.00  0.00     0.002 A 
ENDBRANCH   3  17
TORSDOF 5
ENDMDL
MODEL 4
REMARK VINA RESULT:      -0.2      2.155      3.155
REMARK  5 active torsions:
REMARK  status: ('A' for Active; 'I' for Inactive)
REMARK    1  A    between atoms: N_10  and  C_2 
REMARK    2  A    between atoms: C_13  and  C_3 
REMARK    3  A    between atoms: C_5  and  S_14 
REMARK       I    between atoms: C_12  and  N_10 
REMARK    4  A    between atoms: C_18  and  C_12 
REMARK    5  A    between atoms: S_14  and  C_18 
ROOT
ATOM      1  N   UNL d   1      32.820  19.453 -24.176  0.00  0.00    -0.051 NA
ATOM      2  C   UNL d   1      33.097  20.142 -23.816  0.00  0.00     0.760 A 
ATOM      3  C   UNL d   1      32.792  18.859 -23.609  0.00  0.00     0.147 A 
ATOM      4  N   UNL d   1      33.241  19.981 -23.032  0.00  0.00    -0.019 NA
ATOM      5  S   UNL d   1      33.054  19.184 -22.893  0.00  0.00     0.052 SA
ENDROOT
BRANCH   2   6
ATOM      6  N   UNL d   1      33.206  20.866 -24.193  0.00  0.00    -0.018 NA
ATOM      7  C   UNL d   1      33.131  21.572 -23.773  0.00  0.00     0.302 C 
ATOM      8  O   UNL d   1      33.240  22.292 -24.147  0.00  0.00    -0.264 OA
BRANCH   7   9
ATOM      9  C   UNL d   1      32.945  21.550 -22.962  0.00  0.00     0.100 C 
BRANCH   9  10
ATOM     10  S   UNL d   1      33.066  22.216 -22.498  0.00  0.00    -0.054 SA
BRANCH  10  11
ATOM     11  C   UNL d   1      32.672  22.299 -21.783  0.00  0.00     0.164 A 
ATOM     12  S   UNL d   1      32.821  22.875 -21.218  0.00  0.00    -0.039 SA
ATOM     13  C   UNL d   1      32.298  22.754 -20.588  0.00  0.00     0.134 A 
ATOM     14  C   UNL d   1      32.262  23.215 -19.900  0.00  0.00     0.030 C 
ATOM     15  N   UNL d   1      31.831  22.106 -20.769  0.00  0.00    -0.140 NA
ATOM     16  N   UNL d   1      32.063  21.822 -21.511  0.00  0.00    -0.134 NA
ENDBRANCH  10  11
ENDBRANCH   9  10
ENDBRANCH   7   9
ENDBRANCH   2   6
BRANCH   3  17
ATOM     17  C   UNL d   1      32.554  18.068 -23.692  0.00  0.00     0.026 A 
ATOM     18  C   UNL d   1      31.821  17.896 -24.022  0.00  0.00     0.002 A 
ATOM     19  C   UNL d   1      31.580  17.114 -24.106  0.00  0.00     0.000 A 
ATOM     20  C   UNL d   1      32.076  16.502 -23.858  0.00  0.00     0.000 A 
ATOM     21  C   UNL d   1      32.822  16.679 -23.522  0.00  0.00     0.000 A 
ATOM     22  C   UNL d   1      31.838  15.718 -23.941  0.00  0.00     0.000 C 
ATOM     23  C   UNL d   1      33.057  17.466 -23.440  0.00  0.00     0.002 A 
ENDBRANCH   3  17
TORSDOF 5
ENDMDL
MODEL 5
REMARK VINA RESULT:      -0.2      2.178      5.157
REMARK  5 active torsions:
REMARK  status: ('A' for Active; 'I' for Inactive)
REMARK    1  A    between atoms: N_10  and  C_2 
REMARK    2  A    between atoms: C_13  and  C_3 
REMARK    3  A    between atoms: C_5  and  S_14 
REMARK       I    between atoms: C_12  and  N_10 
REMARK    4  A    between atoms: C_18  and  C_12 
REMARK    5  A    between atoms: S_14  and  C_18 
ROOT
ATOM      1  N   UNL d   1      32.993  21.536 -22.570  0.00  0.00    -0.051 NA
ATOM      2  C   UNL d   1      33.158  20.868 -23.025  0.00  0.00     0.760 A 
ATOM      3  C   UNL d   1      32.972  21.311 -21.780  0.00  0.00     0.147 A 
ATOM      4  N   UNL d   1      33.239  20.232 -22.526  0.00  0.00    -0.019 NA
ATOM      5  S   UNL d   1      33.126  20.498 -21.747  0.00  0.00     0.052 SA
ENDROOT
BRANCH   2   6
ATOM      6  N   UNL d   1      33.227  20.856 -23.846  0.00  0.00    -0.018 NA
ATOM      7  C   UNL d   1      33.172  20.144 -24.259  0.00  0.00     0.302 C 
ATOM      8  O   UNL d   1      33.240  20.130 -25.075  0.00  0.00    -0.264 OA
BRANCH   7   9
ATOM      9  C   UNL d   1      33.047  19.435 -23.843  0.00  0.00     0.100 C 
BRANCH   9  10
ATOM     10  S   UNL d   1      33.078  18.717 -24.240  0.00  0.00    -0.054 SA
BRANCH  10  11
ATOM     11  C   UNL d   1      32.715  18.053 -23.924  0.00  0.00     0.164 A 
ATOM     12  S   UNL d   1      33.084  17.341 -23.752  0.00  0.00    -0.039 SA
ATOM     13  C   UNL d   1      32.514  16.827 -23.444  0.00  0.00     0.134 A 
ATOM     14  C   UNL d   1      32.654  16.048 -23.198  0.00  0.00     0.030 C 
ATOM     15  N   UNL d   1      31.798  17.225 -23.428  0.00  0.00    -0.140 NA
ATOM     16  N   UNL d   1      31.922  17.987 -23.727  0.00  0.00    -0.134 NA
ENDBRANCH  10  11
ENDBRANCH   9  10
ENDBRANCH   7   9
ENDBRANCH   2   6
BRANCH   3  17
ATOM     17  C   UNL d   1      32.828  21.777 -21.108  0.00  0.00     0.026 A 
ATOM     18  C   UNL d   1      33.029  21.492 -20.364  0.00  0.00     0.002 A 
ATOM     19  C   UNL d   1      32.888  21.949 -19.695  0.00  0.00     0.000 A 
ATOM     20  C   UNL d   1      32.545  22.696 -19.772  0.00  0.00     0.000 A 
ATOM     21  C   UNL d   1      32.342  22.986 -20.531  0.00  0.00     0.000 A 
ATOM     22  C   UNL d   1      32.403  23.157 -19.105  0.00  0.00     0.000 C 
ATOM     23  C   UNL d   1      32.485  22.521 -21.198  0.00  0.00     0.002 A 
ENDBRANCH   3  17
TORSDOF 5
ENDMDL
MODEL 6
REMARK VINA RESULT:       0.1      2.167      3.265
REMARK  5 active torsions:
REMARK  status: ('A' for Active; 'I' for Inactive)
REMARK    1  A    between atoms: N_10  and  C_2 
REMARK    2  A    between atoms: C_13  and  C_3 
REMARK    3  A    between atoms: C_5  and  S_14 
REMARK       I    between atoms: C_12  and  N_10 
REMARK    4  A    between atoms: C_18  and  C_12 
REMARK    5  A    between atoms: S_14  and  C_18 
ROOT
ATOM      1  N   UNL d   1      32.508  18.499 -22.354  0.00  0.00    -0.051 NA
ATOM      2  C   UNL d   1      32.964  19.154 -22.147  0.00  0.00     0.760 A 
ATOM      3  C   UNL d   1      32.502  18.437 -23.173  0.00  0.00     0.147 A 
ATOM      4  N   UNL d   1      33.241  19.499 -22.829  0.00  0.00    -0.019 NA
ATOM      5  S   UNL d   1      32.959  19.060 -23.474  0.00  0.00     0.052 SA
ENDROOT
BRANCH   2   6
ATOM      6  N   UNL d   1      33.109  19.409 -21.377  0.00  0.00    -0.018 NA
ATOM      7  C   UNL d   1      33.096  20.213 -21.194  0.00  0.00     0.302 C 
ATOM      8  O   UNL d   1      33.240  20.468 -20.429  0.00  0.00    -0.264 OA
BRANCH   7   9
ATOM      9  C   UNL d   1      32.935  20.769 -21.791  0.00  0.00     0.100 C 
BRANCH   9  10
ATOM     10  S   UNL d   1      33.122  21.559 -21.676  0.00  0.00    -0.054 SA
BRANCH  10  11
ATOM     11  C   UNL d   1      32.829  22.133 -22.183  0.00  0.00     0.164 A 
ATOM     12  S   UNL d   1      33.120  22.309 -22.929  0.00  0.00    -0.039 SA
ATOM     13  C   UNL d   1      32.662  22.921 -23.244  0.00  0.00     0.134 A 
ATOM     14  C   UNL d   1      32.771  23.266 -23.990  0.00  0.00     0.030 C 
ATOM     15  N   UNL d   1      32.091  23.119 -22.690  0.00  0.00    -0.140 NA
ATOM     16  N   UNL d   1      32.194  22.630 -22.030  0.00  0.00    -0.134 NA
ENDBRANCH  10  11
ENDBRANCH   9  10
ENDBRANCH   7   9
ENDBRANCH   2   6
BRANCH   3  17
ATOM     17  C   UNL d   1      32.125  17.874 -23.653  0.00  0.00     0.026 A 
ATOM     18  C   UNL d   1      32.360  17.087 -23.620  0.00  0.00     0.002 A 
ATOM     19  C   UNL d   1      31.988  16.526 -24.093  0.00  0.00     0.000 A 
ATOM     20  C   UNL d   1      31.379  16.754 -24.601  0.00  0.00     0.000 A 
ATOM     21  C   UNL d   1      31.140  17.556 -24.633  0.00  0.00     0.000 A 
ATOM     22  C   UNL d   1      31.005  16.195 -25.076  0.00  0.00     0.000 C 
ATOM     23  C   UNL d   1      31.517  18.114 -24.156  0.00  0.00     0.002 A 
ENDBRANCH   3  17
TORSDOF 5
ENDMDL
MODEL 7
REMARK VINA RESULT:       0.2      3.469      5.130
REMARK  5 active torsions:
REMARK  status: ('A' for Active; 'I' for Inactive)
REMARK    1  A    between atoms: N_10  and  C_2 
REMARK    2  A    between atoms: C_13  and  C_3 
REMARK    3  A    between atoms: C_5  and  S_14 
REMARK       I    between atoms: C_12  and  N_10 
REMARK    4  A    between atoms: C_18  and  C_12 
REMARK    5  A    between atoms: S_14  and  C_18 
ROOT
ATOM      1  N   UNL d   1      32.092  21.046 -21.977  0.00  0.00    -0.051 NA
ATOM      2  C   UNL d   1      32.267  21.675 -21.473  0.00  0.00     0.760 A 
ATOM      3  C   UNL d   1      32.691  20.489 -21.910  0.00  0.00     0.147 A 
ATOM      4  N   UNL d   1      32.968  21.514 -21.095  0.00  0.00    -0.019 NA
ATOM      5  S   UNL d   1      33.241  20.776 -21.361  0.00  0.00     0.052 SA
ENDROOT
BRANCH   2   6
ATOM      6  N   UNL d   1      31.804  22.350 -21.375  0.00  0.00    -0.018 NA
ATOM      7  C   UNL d   1      31.942  22.864 -20.745  0.00  0.00     0.302 C 
ATOM      8  O   UNL d   1      31.483  23.534 -20.646  0.00  0.00    -0.264 OA
BRANCH   7   9
ATOM      9  C   UNL d   1      32.553  22.698 -20.205  0.00  0.00     0.100 C 
BRANCH   9  10
ATOM     10  S   UNL d   1      32.835  23.291 -19.713  0.00  0.00    -0.054 SA
BRANCH  10  11
ATOM     11  C   UNL d   1      32.921  23.156 -18.909  0.00  0.00     0.164 A 
ATOM     12  S   UNL d   1      32.752  23.692 -18.311  0.00  0.00    -0.039 SA
ATOM     13  C   UNL d   1      32.918  23.327 -17.587  0.00  0.00     0.134 A 
ATOM     14  C   UNL d   1      32.823  23.677 -16.842  0.00  0.00     0.030 C 
ATOM     15  N   UNL d   1      33.188  22.570 -17.743  0.00  0.00    -0.140 NA
ATOM     16  N   UNL d   1      33.191  22.462 -18.564  0.00  0.00    -0.134 NA
ENDBRANCH  10  11
ENDBRANCH   9  10
ENDBRANCH   7   9
ENDBRANCH   2   6
BRANCH   3  17
ATOM     17  C   UNL d   1      32.773  19.760 -22.300  0.00  0.00     0.026 A 
ATOM     18  C   UNL d   1      32.472  19.667 -23.059  0.00  0.00     0.002 A 
ATOM     19  C   UNL d   1      32.550  18.948 -23.449  0.00  0.00     0.000 A 
ATOM     20  C   UNL d   1      32.933  18.318 -23.077  0.00  0.00     0.000 A 
ATOM     21  C   UNL d   1      33.240  18.413 -22.304  0.00  0.00     0.000 A 
ATOM     22  C   UNL d   1      33.013  17.596 -23.465  0.00  0.00     0.000 C 
ATOM     23  C   UNL d   1      33.157  19.138 -21.918  0.00  0.00     0.002 A 
ENDBRANCH   3  17
TORSDOF 5
ENDMDL
