MODEL 1
REMARK VINA RESULT:      73.7      0.000      0.000
REMARK  3 active torsions:
REMARK  status: ('A' for Active; 'I' for Inactive)
REMARK    1  A    between atoms: N_7  and  C_1 
REMARK       I    between atoms: C_11  and  N_6 
REMARK       I    between atoms: C_10  and  N_7 
REMARK    2  A    between atoms: C_17  and  C_10 
REMARK    3  A    between atoms: C_14  and  C_17 
ROOT
ATOM      1  C   UNL d   1     -50.635  27.404  33.328  0.00  0.00     0.124 A 
ATOM      2  C   UNL d   1     -51.307  26.927  33.320  0.00  0.00     0.093 A 
ATOM      3  C   UNL d   1     -50.244  26.118  33.327  0.00  0.00     0.049 A 
ATOM      4  C   UNL d   1     -51.066  26.133  33.320  0.00  0.00     0.021 A 
ATOM      5  S   UNL d   1     -49.967  26.907  33.332  0.00  0.00    -0.066 SA
ATOM      6  N   UNL d   1     -50.267  24.686  33.322  0.00  0.00    -0.272 N 
ATOM      7  C   UNL d   1     -49.842  25.399  33.329  0.00  0.00     0.089 A 
ATOM      8  C   UNL d   1     -52.086  27.195  33.313  0.00  0.00     0.103 C 
ATOM      9  C   UNL d   1     -49.866  23.960  33.324  0.00  0.00     0.265 C 
ATOM     10  N   UNL d   1     -52.866  27.467  33.307  0.00  0.00    -0.191 NA
ATOM     11  C   UNL d   1     -51.494  25.429  33.313  0.00  0.00     0.020 A 
ATOM     12  C   UNL d   1     -51.093  24.702  33.315  0.00  0.00     0.083 A 
ATOM     13  O   UNL d   1     -49.040  23.944  33.331  0.00  0.00    -0.267 OA
ATOM     14  C   UNL d   1     -50.291  23.247  33.317  0.00  0.00     0.066 C 
ENDROOT
BRANCH   1  15
ATOM     15  N   UNL d   1     -50.612  28.222  33.331  0.00  0.00    -0.201 NA
ATOM     16  C   UNL d   1     -50.049  28.606  33.789  0.00  0.00     0.280 C 
ATOM     17  O   UNL d   1     -50.022  29.440  33.794  0.00  0.00    -0.265 OA
BRANCH  16  18
ATOM     18  C   UNL d   1     -49.510  28.185  34.244  0.00  0.00     0.062 C 
BRANCH  18  19
ATOM     19  C   UNL d   1     -48.898  28.572  34.638  0.00  0.00     0.005 A 
ATOM     20  C   UNL d   1     -48.585  28.251  35.341  0.00  0.00     0.000 A 
ATOM     21  C   UNL d   1     -47.971  28.648  35.729  0.00  0.00     0.000 A 
ATOM     22  C   UNL d   1     -48.893  27.545  35.637  0.00  0.00     0.000 C 
ATOM     23  C   UNL d   1     -47.666  29.350  35.434  0.00  0.00     0.000 A 
ATOM     24  C   UNL d   1     -47.976  29.668  34.737  0.00  0.00     0.000 A 
ATOM     25  C   UNL d   1     -47.057  29.740  35.821  0.00  0.00     0.000 C 
ATOM     26  C   UNL d   1     -48.591  29.283  34.336  0.00  0.00     0.000 A 
ENDBRANCH  18  19
ENDBRANCH  16  18
ENDBRANCH   1  15
TORSDOF 3
ENDMDL
