MODEL 1
REMARK VINA RESULT:      -6.4      0.000      0.000
REMARK  1 active torsions:
REMARK  status: ('A' for Active; 'I' for Inactive)
REMARK    1  A    between atoms: C_11  and  C_4 
ROOT
ATOM      1  N   UNL d   1     -41.784-122.314 -52.817  0.00  0.00    -0.242 NA
ATOM      2  C   UNL d   1     -41.618-122.630 -52.085  0.00  0.00     0.099 A 
ATOM      3  N   UNL d   1     -41.123-123.818 -52.686  0.00  0.00    -0.241 NA
ATOM      4  C   UNL d   1     -41.618-122.751 -53.481  0.00  0.00     0.101 A 
ATOM      5  C   UNL d   1     -41.287-123.382 -52.020  0.00  0.00     0.099 A 
ATOM      6  C   UNL d   1     -41.784-122.192 -51.415  0.00  0.00     0.021 A 
ATOM      7  C   UNL d   1     -41.618-122.505 -50.654  0.00  0.00     0.002 A 
ATOM      8  C   UNL d   1     -41.287-123.258 -50.588  0.00  0.00     0.002 A 
ATOM      9  C   UNL d   1     -41.123-123.695 -51.284  0.00  0.00     0.021 A 
ATOM     10  C   UNL d   1     -41.287-123.504 -53.415  0.00  0.00     0.118 A 
ATOM     11  C   UNL d   1     -41.784-122.065 -49.963  0.00  0.00     0.000 C 
ATOM     12  C   UNL d   1     -41.123-123.569 -49.832  0.00  0.00     0.000 C 
ENDROOT
BRANCH   4  13
ATOM     13  C   UNL d   1     -41.784-122.435 -54.215  0.00  0.00     0.019 A 
ATOM     14  C   UNL d   1     -41.294-122.591 -54.854  0.00  0.00     0.002 A 
ATOM     15  C   UNL d   1     -41.456-122.268 -55.624  0.00  0.00     0.000 A 
ATOM     16  C   UNL d   1     -42.131-121.791 -55.690  0.00  0.00     0.000 A 
ATOM     17  C   UNL d   1     -42.620-121.636 -55.052  0.00  0.00     0.000 A 
ATOM     18  C   UNL d   1     -42.456-121.950 -54.319  0.00  0.00     0.002 A 
ENDBRANCH   4  13
TORSDOF 1
ENDMDL
MODEL 2
REMARK VINA RESULT:      -5.8      0.900      4.074
REMARK  1 active torsions:
REMARK  status: ('A' for Active; 'I' for Inactive)
REMARK    1  A    between atoms: C_11  and  C_4 
ROOT
ATOM      1  N   UNL d   1     -41.634-123.206 -51.707  0.00  0.00    -0.242 NA
ATOM      2  C   UNL d   1     -41.518-122.957 -52.473  0.00  0.00     0.099 A 
ATOM      3  N   UNL d   1     -41.367-121.614 -52.036  0.00  0.00    -0.241 NA
ATOM      4  C   UNL d   1     -41.616-122.658 -51.108  0.00  0.00     0.101 A 
ATOM      5  C   UNL d   1     -41.384-122.160 -52.638  0.00  0.00     0.099 A 
ATOM      6  C   UNL d   1     -41.536-123.507 -53.079  0.00  0.00     0.021 A 
ATOM      7  C   UNL d   1     -41.417-123.264 -53.873  0.00  0.00     0.002 A 
ATOM      8  C   UNL d   1     -41.284-122.466 -54.038  0.00  0.00     0.002 A 
ATOM      9  C   UNL d   1     -41.268-121.914 -53.408  0.00  0.00     0.021 A 
ATOM     10  C   UNL d   1     -41.483-121.861 -51.273  0.00  0.00     0.118 A 
ATOM     11  C   UNL d   1     -41.434-123.818 -54.498  0.00  0.00     0.000 C 
ATOM     12  C   UNL d   1     -41.166-122.225 -54.828  0.00  0.00     0.000 C 
ENDROOT
BRANCH   4  13
ATOM     13  C   UNL d   1     -41.733-122.907 -50.339  0.00  0.00     0.019 A 
ATOM     14  C   UNL d   1     -41.126-123.269 -49.924  0.00  0.00     0.002 A 
ATOM     15  C   UNL d   1     -41.234-123.533 -49.123  0.00  0.00     0.000 A 
ATOM     16  C   UNL d   1     -41.982-123.404 -48.789  0.00  0.00     0.000 A 
ATOM     17  C   UNL d   1     -42.589-123.041 -49.205  0.00  0.00     0.000 A 
ATOM     18  C   UNL d   1     -42.475-122.793 -49.971  0.00  0.00     0.002 A 
ENDBRANCH   4  13
TORSDOF 1
ENDMDL
MODEL 3
REMARK VINA RESULT:      -5.4      0.588      3.847
REMARK  1 active torsions:
REMARK  status: ('A' for Active; 'I' for Inactive)
REMARK    1  A    between atoms: C_11  and  C_4 
ROOT
ATOM      1  N   UNL d   1     -41.833-122.568 -52.370  0.00  0.00    -0.242 NA
ATOM      2  C   UNL d   1     -41.830-122.565 -53.185  0.00  0.00     0.099 A 
ATOM      3  N   UNL d   1     -41.124-123.798 -53.207  0.00  0.00    -0.241 NA
ATOM      4  C   UNL d   1     -41.482-123.185 -51.978  0.00  0.00     0.101 A 
ATOM      5  C   UNL d   1     -41.475-123.181 -53.604  0.00  0.00     0.099 A 
ATOM      6  C   UNL d   1     -42.183-121.944 -53.583  0.00  0.00     0.021 A 
ATOM      7  C   UNL d   1     -42.186-121.929 -54.423  0.00  0.00     0.002 A 
ATOM      8  C   UNL d   1     -41.832-122.544 -54.842  0.00  0.00     0.002 A 
ATOM      9  C   UNL d   1     -41.474-123.174 -54.420  0.00  0.00     0.021 A 
ATOM     10  C   UNL d   1     -41.127-123.801 -52.397  0.00  0.00     0.118 A 
ATOM     11  C   UNL d   1     -42.544-121.299 -54.839  0.00  0.00     0.000 C 
ATOM     12  C   UNL d   1     -41.835-122.529 -55.675  0.00  0.00     0.000 C 
ENDROOT
BRANCH   4  13
ATOM     13  C   UNL d   1     -41.485-123.189 -51.162  0.00  0.00     0.019 A 
ATOM     14  C   UNL d   1     -41.841-123.802 -50.751  0.00  0.00     0.002 A 
ATOM     15  C   UNL d   1     -41.851-123.817 -49.900  0.00  0.00     0.000 A 
ATOM     16  C   UNL d   1     -41.483-123.183 -49.515  0.00  0.00     0.000 A 
ATOM     17  C   UNL d   1     -41.126-122.569 -49.926  0.00  0.00     0.000 A 
ATOM     18  C   UNL d   1     -41.123-122.564 -50.740  0.00  0.00     0.002 A 
ENDBRANCH   4  13
TORSDOF 1
ENDMDL
