MODEL 1
REMARK VINA RESULT:      11.5      0.000      0.000
REMARK  2 active torsions:
REMARK  status: ('A' for Active; 'I' for Inactive)
REMARK    1  A    between atoms: C_5  and  C_1 
REMARK    2  A    between atoms: O_15  and  C_12 
ROOT
ATOM      1  C   UNL d   1     -52.133  24.676  33.349  0.00  0.00     0.042 A 
ATOM      2  C   UNL d   1     -52.953  24.777  33.326  0.00  0.00     0.045 A 
ATOM      3  C   UNL d   1     -51.811  23.916  33.374  0.00  0.00     0.196 A 
ATOM      4  C   UNL d   1     -52.309  23.259  33.376  0.00  0.00     0.045 A 
ATOM      5  C   UNL d   1     -53.451  24.120  33.328  0.00  0.00     0.196 A 
ATOM      6  C   UNL d   1     -53.129  23.360  33.353  0.00  0.00     0.045 A 
ATOM      7  O   UNL d   1     -50.991  23.815  33.396  0.00  0.00    -0.287 OA
ATOM      8  O   UNL d   1     -54.271  24.221  33.306  0.00  0.00    -0.287 OA
ENDROOT
BRANCH   1   9
ATOM      9  C   UNL d   1     -51.635  25.333  33.347  0.00  0.00     0.003 A 
ATOM     10  C   UNL d   1     -50.813  25.222  33.355  0.00  0.00     0.002 A 
ATOM     11  C   UNL d   1     -50.314  25.876  33.353  0.00  0.00     0.024 A 
ATOM     12  C   UNL d   1     -50.627  26.641  33.343  0.00  0.00     0.094 A 
ATOM     13  C   UNL d   1     -51.455  26.746  33.335  0.00  0.00     0.024 A 
ATOM     14  C   UNL d   1     -51.952  26.088  33.337  0.00  0.00     0.002 A 
BRANCH  12  15
ATOM     15  O   UNL d   1     -50.126  27.301  33.341  0.00  0.00    -0.328 OA
ATOM     16  C   UNL d   1     -50.447  28.063  33.329  0.00  0.00     0.181 C 
ENDBRANCH  12  15
ENDBRANCH   1   9
TORSDOF 2
ENDMDL
