MODEL 1
REMARK VINA RESULT:       1.9      0.000      0.000
REMARK  5 active torsions:
REMARK  status: ('A' for Active; 'I' for Inactive)
REMARK    1  A    between atoms: C_14  and  C_4 
REMARK    2  A    between atoms: S_11  and  C_5 
REMARK    3  A    between atoms: C_10  and  C_12 
REMARK    4  A    between atoms: C_15  and  S_11 
REMARK    5  A    between atoms: C_12  and  C_15 
ROOT
ATOM      1  N   UNL d   1     -42.233-122.805 -50.641  0.00  0.00    -0.206 N 
ATOM      2  C   UNL d   1     -42.614-122.805 -49.905  0.00  0.00     0.166 A 
ATOM      3  N   UNL d   1     -41.123-123.458 -50.062  0.00  0.00    -0.163 NA
ATOM      4  C   UNL d   1     -42.255-123.129 -49.252  0.00  0.00     0.055 A 
ATOM      5  C   UNL d   1     -42.610-122.477 -51.279  0.00  0.00     0.116 A 
ATOM      6  C   UNL d   1     -41.498-123.458 -49.338  0.00  0.00     0.104 A 
ATOM      7  N   UNL d   1     -43.363-122.478 -49.826  0.00  0.00    -0.227 NA
ATOM      8  C   UNL d   1     -43.357-122.146 -51.219  0.00  0.00     0.045 A 
ATOM      9  C   UNL d   1     -43.737-122.146 -50.487  0.00  0.00     0.085 A 
ATOM     10  C   UNL d   1     -41.141-123.780 -48.685  0.00  0.00     0.023 C 
ATOM     11  C   UNL d   1     -44.517-121.805 -50.404  0.00  0.00     0.021 C 
ENDROOT
BRANCH   5  12
ATOM     12  S   UNL d   1     -42.216-122.476 -52.040  0.00  0.00    -0.064 SA
BRANCH  12  13
ATOM     13  C   UNL d   1     -41.946-122.228 -52.804  0.00  0.00     0.079 C 
BRANCH  13  14
ATOM     14  C   UNL d   1     -41.984-122.755 -53.459  0.00  0.00     0.208 C 
ATOM     15  O   UNL d   1     -42.004-123.589 -53.332  0.00  0.00    -0.285 OA
BRANCH  14  16
ATOM     16  C   UNL d   1     -42.004-122.451 -54.251  0.00  0.00     0.069 A 
ATOM     17  S   UNL d   1     -41.487-122.695 -54.883  0.00  0.00    -0.083 SA
ATOM     18  C   UNL d   1     -41.702-122.250 -55.571  0.00  0.00     0.035 A 
ATOM     19  C   UNL d   1     -42.342-121.738 -55.371  0.00  0.00     0.008 A 
ATOM     20  C   UNL d   1     -42.526-121.867 -54.547  0.00  0.00     0.010 A 
ENDBRANCH  14  16
ENDBRANCH  13  14
ENDBRANCH  12  13
ENDBRANCH   5  12
BRANCH   4  21
ATOM     21  C   UNL d   1     -42.630-123.129 -48.527  0.00  0.00     0.004 A 
ATOM     22  C   UNL d   1     -43.063-123.771 -48.295  0.00  0.00     0.000 A 
ATOM     23  C   UNL d   1     -43.437-123.784 -47.583  0.00  0.00     0.000 A 
ATOM     24  C   UNL d   1     -43.381-123.130 -47.078  0.00  0.00     0.000 A 
ATOM     25  C   UNL d   1     -42.947-122.487 -47.314  0.00  0.00     0.000 A 
ATOM     26  C   UNL d   1     -42.571-122.487 -48.039  0.00  0.00     0.000 A 
ENDBRANCH   4  21
TORSDOF 5
ENDMDL
