MODEL 1
REMARK VINA RESULT:       2.9      0.000      0.000
REMARK  8 active torsions:
REMARK  status: ('A' for Active; 'I' for Inactive)
REMARK    1  A    between atoms: C_4  and  C_1 
REMARK    2  A    between atoms: C_10  and  C_2 
REMARK    3  A    between atoms: C_15  and  C_9 
REMARK    4  A    between atoms: O_21  and  C_10 
REMARK    5  A    between atoms: O_22  and  C_15 
REMARK    6  A    between atoms: C_24  and  C_17 
REMARK    7  A    between atoms: C_25  and  O_21 
REMARK    8  A    between atoms: C_26  and  O_22 
ROOT
ATOM      1  C   UNL d   1      32.681  20.613 -22.477  0.00  0.00     0.090 A 
ATOM      2  C   UNL d   1      32.710  20.914 -23.243  0.00  0.00     0.168 A 
ATOM      3  C   UNL d   1      32.640  19.798 -22.357  0.00  0.00     0.201 A 
ATOM      4  C   UNL d   1      32.628  19.289 -23.000  0.00  0.00     0.062 A 
ATOM      5  O   UNL d   1      32.698  20.400 -23.889  0.00  0.00    -0.301 OA
ATOM      6  C   UNL d   1      32.656  19.591 -23.766  0.00  0.00     0.106 A 
ATOM      7  C   UNL d   1      32.587  18.501 -22.869  0.00  0.00     0.008 A 
ATOM      8  C   UNL d   1      32.645  19.104 -24.401  0.00  0.00     0.067 A 
ATOM      9  C   UNL d   1      32.604  18.288 -24.280  0.00  0.00     0.198 A 
ATOM     10  C   UNL d   1      32.575  17.987 -23.514  0.00  0.00     0.039 A 
ATOM     11  O   UNL d   1      32.611  19.496 -21.591  0.00  0.00    -0.286 OA
ATOM     12  O   UNL d   1      32.591  17.757 -24.957  0.00  0.00    -0.286 OA
ENDROOT
BRANCH   1  13
ATOM     13  C   UNL d   1      32.693  21.101 -21.843  0.00  0.00     0.105 A 
ATOM     14  O   UNL d   1      32.139  21.668 -21.725  0.00  0.00    -0.302 OA
ATOM     15  C   UNL d   1      32.316  22.074 -21.015  0.00  0.00     0.163 A 
ATOM     16  C   UNL d   1      33.004  21.731 -20.700  0.00  0.00     0.032 A 
ATOM     17  C   UNL d   1      33.240  21.119 -21.223  0.00  0.00     0.027 A 
BRANCH  15  18
ATOM     18  C   UNL d   1      31.872  22.714 -20.683  0.00  0.00     0.323 C 
ATOM     19  O   UNL d   1      31.368  23.158 -21.145  0.00  0.00    -0.257 OA
BRANCH  18  20
ATOM     20  O   UNL d   1      31.949  22.899 -19.869  0.00  0.00    -0.270 OA
BRANCH  20  21
ATOM     21  C   UNL d   1      31.490  23.488 -19.530  0.00  0.00     0.126 C 
ATOM     22  C   UNL d   1      31.567  23.684 -18.745  0.00  0.00     0.029 C 
ENDBRANCH  20  21
ENDBRANCH  18  20
ENDBRANCH  15  18
ENDBRANCH   1  13
BRANCH   2  23
ATOM     23  C   UNL d   1      32.752  21.733 -23.387  0.00  0.00     0.323 C 
ATOM     24  O   UNL d   1      33.237  22.199 -22.901  0.00  0.00    -0.257 OA
BRANCH  23  25
ATOM     25  O   UNL d   1      32.325  22.085 -23.997  0.00  0.00    -0.270 OA
BRANCH  25  26
ATOM     26  C   UNL d   1      32.603  22.786 -24.343  0.00  0.00     0.126 C 
ATOM     27  C   UNL d   1      32.066  23.342 -24.628  0.00  0.00     0.029 C 
ENDBRANCH  25  26
ENDBRANCH  23  25
ENDBRANCH   2  23
BRANCH  10  28
ATOM     28  C   UNL d   1      32.532  17.146 -23.404  0.00  0.00     0.003 C 
ATOM     29  C   UNL d   1      33.133  16.736 -23.015  0.00  0.00     0.000 C 
ENDBRANCH  10  28
TORSDOF 8
ENDMDL
MODEL 2
REMARK VINA RESULT:       3.0      1.726      5.264
REMARK  8 active torsions:
REMARK  status: ('A' for Active; 'I' for Inactive)
REMARK    1  A    between atoms: C_4  and  C_1 
REMARK    2  A    between atoms: C_10  and  C_2 
REMARK    3  A    between atoms: C_15  and  C_9 
REMARK    4  A    between atoms: O_21  and  C_10 
REMARK    5  A    between atoms: O_22  and  C_15 
REMARK    6  A    between atoms: C_24  and  C_17 
REMARK    7  A    between atoms: C_25  and  O_21 
REMARK    8  A    between atoms: C_26  and  O_22 
ROOT
ATOM      1  C   UNL d   1      32.245  18.826 -23.189  0.00  0.00     0.090 A 
ATOM      2  C   UNL d   1      32.820  18.427 -22.754  0.00  0.00     0.168 A 
ATOM      3  C   UNL d   1      31.983  19.567 -22.941  0.00  0.00     0.201 A 
ATOM      4  C   UNL d   1      32.292  19.905 -22.262  0.00  0.00     0.062 A 
ATOM      5  O   UNL d   1      33.130  18.769 -22.070  0.00  0.00    -0.301 OA
ATOM      6  C   UNL d   1      32.867  19.506 -21.826  0.00  0.00     0.106 A 
ATOM      7  C   UNL d   1      32.029  20.625 -22.032  0.00  0.00     0.008 A 
ATOM      8  C   UNL d   1      33.176  19.826 -21.161  0.00  0.00     0.067 A 
ATOM      9  C   UNL d   1      32.913  20.568 -20.913  0.00  0.00     0.198 A 
ATOM     10  C   UNL d   1      32.339  20.967 -21.349  0.00  0.00     0.039 A 
ATOM     11  O   UNL d   1      31.408  19.967 -23.376  0.00  0.00    -0.286 OA
ATOM     12  O   UNL d   1      33.241  20.920 -20.199  0.00  0.00    -0.286 OA
ENDROOT
BRANCH   1  13
ATOM     13  C   UNL d   1      31.936  18.505 -23.854  0.00  0.00     0.105 A 
ATOM     14  O   UNL d   1      31.183  18.233 -23.892  0.00  0.00    -0.302 OA
ATOM     15  C   UNL d   1      31.043  17.936 -24.662  0.00  0.00     0.163 A 
ATOM     16  C   UNL d   1      31.743  18.037 -25.097  0.00  0.00     0.032 A 
ATOM     17  C   UNL d   1      32.305  18.395 -24.587  0.00  0.00     0.027 A 
BRANCH  15  18
ATOM     18  C   UNL d   1      30.319  17.596 -24.940  0.00  0.00     0.323 C 
ATOM     19  O   UNL d   1      29.662  18.061 -25.073  0.00  0.00    -0.257 OA
BRANCH  18  20
ATOM     20  O   UNL d   1      30.271  16.771 -25.083  0.00  0.00    -0.270 OA
BRANCH  20  21
ATOM     21  C   UNL d   1      29.875  16.280 -24.560  0.00  0.00     0.126 C 
ATOM     22  C   UNL d   1      30.068  15.494 -24.490  0.00  0.00     0.029 C 
ENDBRANCH  20  21
ENDBRANCH  18  20
ENDBRANCH  15  18
ENDBRANCH   1  13
BRANCH   2  23
ATOM     23  C   UNL d   1      33.099  17.678 -22.987  0.00  0.00     0.323 C 
ATOM     24  O   UNL d   1      33.240  17.538 -23.792  0.00  0.00    -0.257 OA
BRANCH  23  25
ATOM     25  O   UNL d   1      33.237  17.080 -22.437  0.00  0.00    -0.270 OA
BRANCH  25  26
ATOM     26  C   UNL d   1      33.221  16.287 -22.679  0.00  0.00     0.126 C 
ATOM     27  C   UNL d   1      33.107  15.691 -22.121  0.00  0.00     0.029 C 
ENDBRANCH  25  26
ENDBRANCH  23  25
ENDBRANCH   2  23
BRANCH  10  28
ATOM     28  C   UNL d   1      32.077  21.730 -21.082  0.00  0.00     0.003 C 
ATOM     29  C   UNL d   1      32.306  22.420 -21.471  0.00  0.00     0.000 C 
ENDBRANCH  10  28
TORSDOF 8
ENDMDL
MODEL 3
REMARK VINA RESULT:       3.5      1.075      4.431
REMARK  8 active torsions:
REMARK  status: ('A' for Active; 'I' for Inactive)
REMARK    1  A    between atoms: C_4  and  C_1 
REMARK    2  A    between atoms: C_10  and  C_2 
REMARK    3  A    between atoms: C_15  and  C_9 
REMARK    4  A    between atoms: O_21  and  C_10 
REMARK    5  A    between atoms: O_22  and  C_15 
REMARK    6  A    between atoms: C_24  and  C_17 
REMARK    7  A    between atoms: C_25  and  O_21 
REMARK    8  A    between atoms: C_26  and  O_22 
ROOT
ATOM      1  C   UNL d   1      32.866  21.227 -22.524  0.00  0.00     0.090 A 
ATOM      2  C   UNL d   1      32.765  21.991 -22.816  0.00  0.00     0.168 A 
ATOM      3  C   UNL d   1      32.979  21.108 -21.716  0.00  0.00     0.201 A 
ATOM      4  C   UNL d   1      32.992  21.748 -21.204  0.00  0.00     0.062 A 
ATOM      5  O   UNL d   1      32.778  22.634 -22.300  0.00  0.00    -0.301 OA
ATOM      6  C   UNL d   1      32.891  22.512 -21.497  0.00  0.00     0.106 A 
ATOM      7  C   UNL d   1      33.102  21.618 -20.423  0.00  0.00     0.008 A 
ATOM      8  C   UNL d   1      32.901  23.145 -21.007  0.00  0.00     0.067 A 
ATOM      9  C   UNL d   1      33.015  23.025 -20.199  0.00  0.00     0.198 A 
ATOM     10  C   UNL d   1      33.115  22.261 -19.907  0.00  0.00     0.039 A 
ATOM     11  O   UNL d   1      33.080  20.344 -21.423  0.00  0.00    -0.286 OA
ATOM     12  O   UNL d   1      33.027  23.700 -19.665  0.00  0.00    -0.286 OA
ENDROOT
BRANCH   1  13
ATOM     13  C   UNL d   1      32.855  20.594 -23.014  0.00  0.00     0.105 A 
ATOM     14  O   UNL d   1      32.594  19.873 -22.782  0.00  0.00    -0.302 OA
ATOM     15  C   UNL d   1      32.659  19.344 -23.427  0.00  0.00     0.163 A 
ATOM     16  C   UNL d   1      32.972  19.771 -24.067  0.00  0.00     0.032 A 
ATOM     17  C   UNL d   1      33.095  20.558 -23.805  0.00  0.00     0.027 A 
BRANCH  15  18
ATOM     18  C   UNL d   1      32.444  18.524 -23.423  0.00  0.00     0.323 C 
ATOM     19  O   UNL d   1      32.963  17.957 -23.151  0.00  0.00    -0.257 OA
BRANCH  18  20
ATOM     20  O   UNL d   1      31.689  18.288 -23.700  0.00  0.00    -0.270 OA
BRANCH  20  21
ATOM     21  C   UNL d   1      31.495  17.494 -23.757  0.00  0.00     0.126 C 
ATOM     22  C   UNL d   1      31.165  17.187 -24.433  0.00  0.00     0.029 C 
ENDBRANCH  20  21
ENDBRANCH  18  20
ENDBRANCH  15  18
ENDBRANCH   1  13
BRANCH   2  23
ATOM     23  C   UNL d   1      32.649  22.134 -23.628  0.00  0.00     0.323 C 
ATOM     24  O   UNL d   1      33.241  21.903 -24.162  0.00  0.00    -0.257 OA
BRANCH  23  25
ATOM     25  O   UNL d   1      31.965  22.497 -23.907  0.00  0.00    -0.270 OA
BRANCH  25  26
ATOM     26  C   UNL d   1      32.017  23.223 -24.304  0.00  0.00     0.126 C 
ATOM     27  C   UNL d   1      31.497  23.391 -24.921  0.00  0.00     0.029 C 
ENDBRANCH  25  26
ENDBRANCH  23  25
ENDBRANCH   2  23
BRANCH  10  28
ATOM     28  C   UNL d   1      33.231  22.152 -19.073  0.00  0.00     0.003 C 
ATOM     29  C   UNL d   1      32.792  21.597 -18.650  0.00  0.00     0.000 C 
ENDBRANCH  10  28
TORSDOF 8
ENDMDL
MODEL 4
REMARK VINA RESULT:       5.6      1.366      4.565
REMARK  8 active torsions:
REMARK  status: ('A' for Active; 'I' for Inactive)
REMARK    1  A    between atoms: C_4  and  C_1 
REMARK    2  A    between atoms: C_10  and  C_2 
REMARK    3  A    between atoms: C_15  and  C_9 
REMARK    4  A    between atoms: O_21  and  C_10 
REMARK    5  A    between atoms: O_22  and  C_15 
REMARK    6  A    between atoms: C_24  and  C_17 
REMARK    7  A    between atoms: C_25  and  O_21 
REMARK    8  A    between atoms: C_26  and  O_22 
ROOT
ATOM      1  C   UNL d   1      32.922  19.509 -23.391  0.00  0.00     0.090 A 
ATOM      2  C   UNL d   1      32.934  20.259 -23.733  0.00  0.00     0.168 A 
ATOM      3  C   UNL d   1      32.976  19.430 -22.572  0.00  0.00     0.201 A 
ATOM      4  C   UNL d   1      33.041  20.096 -22.099  0.00  0.00     0.062 A 
ATOM      5  O   UNL d   1      33.000  20.929 -23.255  0.00  0.00    -0.301 OA
ATOM      6  C   UNL d   1      33.053  20.846 -22.441  0.00  0.00     0.106 A 
ATOM      7  C   UNL d   1      33.092  20.005 -21.306  0.00  0.00     0.008 A 
ATOM      8  C   UNL d   1      33.116  21.504 -21.989  0.00  0.00     0.067 A 
ATOM      9  C   UNL d   1      33.170  21.424 -21.170  0.00  0.00     0.198 A 
ATOM     10  C   UNL d   1      33.158  20.674 -20.828  0.00  0.00     0.039 A 
ATOM     11  O   UNL d   1      32.964  18.681 -22.230  0.00  0.00    -0.286 OA
ATOM     12  O   UNL d   1      33.239  22.126 -20.676  0.00  0.00    -0.286 OA
ENDROOT
BRANCH   1  13
ATOM     13  C   UNL d   1      32.858  18.852 -23.843  0.00  0.00     0.105 A 
ATOM     14  O   UNL d   1      32.411  18.223 -23.629  0.00  0.00    -0.302 OA
ATOM     15  C   UNL d   1      32.468  17.637 -24.224  0.00  0.00     0.163 A 
ATOM     16  C   UNL d   1      32.972  17.934 -24.815  0.00  0.00     0.032 A 
ATOM     17  C   UNL d   1      33.217  18.699 -24.573  0.00  0.00     0.027 A 
BRANCH  15  18
ATOM     18  C   UNL d   1      32.083  16.883 -24.220  0.00  0.00     0.323 C 
ATOM     19  O   UNL d   1      32.499  16.199 -24.375  0.00  0.00    -0.257 OA
BRANCH  18  20
ATOM     20  O   UNL d   1      31.262  16.833 -24.055  0.00  0.00    -0.270 OA
BRANCH  20  21
ATOM     21  C   UNL d   1      30.771  16.369 -24.518  0.00  0.00     0.126 C 
ATOM     22  C   UNL d   1      30.153  16.692 -24.935  0.00  0.00     0.029 C 
ENDBRANCH  20  21
ENDBRANCH  18  20
ENDBRANCH  15  18
ENDBRANCH   1  13
BRANCH   2  23
ATOM     23  C   UNL d   1      32.881  20.362 -24.557  0.00  0.00     0.323 C 
ATOM     24  O   UNL d   1      32.454  19.807 -25.002  0.00  0.00    -0.257 OA
BRANCH  23  25
ATOM     25  O   UNL d   1      33.241  20.998 -24.935  0.00  0.00    -0.270 OA
BRANCH  25  26
ATOM     26  C   UNL d   1      32.804  21.686 -25.090  0.00  0.00     0.126 C 
ATOM     27  C   UNL d   1      33.167  22.423 -25.032  0.00  0.00     0.029 C 
ENDBRANCH  25  26
ENDBRANCH  23  25
ENDBRANCH   2  23
BRANCH  10  28
ATOM     28  C   UNL d   1      33.214  20.607 -19.983  0.00  0.00     0.003 C 
ATOM     29  C   UNL d   1      32.618  20.894 -19.492  0.00  0.00     0.000 C 
ENDBRANCH  10  28
TORSDOF 8
ENDMDL
