MODEL 1
REMARK VINA RESULT:       9.4      0.000      0.000
REMARK  4 active torsions:
REMARK  status: ('A' for Active; 'I' for Inactive)
REMARK    1  A    between atoms: N_2  and  S_1 
REMARK    2  A    between atoms: C_3  and  S_1 
REMARK    3  A    between atoms: C_6  and  N_2 
REMARK    4  A    between atoms: C_13  and  N_2 
ROOT
ATOM      1  S   UNL d   1      45.417 -13.708  44.381  0.00  0.00     0.271 S 
ATOM      2  O   UNL d   1      46.159 -13.730  44.259  0.00  0.00    -0.200 OA
ATOM      3  O   UNL d   1      44.608 -13.716  44.519  0.00  0.00    -0.200 OA
ENDROOT
BRANCH   1   4
ATOM      4  N   UNL d   1      45.384 -12.891  44.228  0.00  0.00    -0.231 N 
BRANCH   4   5
ATOM      5  C   UNL d   1      45.178 -12.621  43.472  0.00  0.00     0.075 A 
ATOM      6  C   UNL d   1      45.754 -12.606  42.871  0.00  0.00     0.018 A 
ATOM      7  C   UNL d   1      45.553 -12.336  42.111  0.00  0.00     0.002 A 
ATOM      8  C   UNL d   1      44.777 -12.081  41.951  0.00  0.00     0.000 A 
ATOM      9  C   UNL d   1      44.204 -12.097  42.556  0.00  0.00     0.002 A 
ATOM     10  C   UNL d   1      44.404 -12.367  43.316  0.00  0.00     0.018 A 
ENDBRANCH   4   5
BRANCH   4  11
ATOM     11  C   UNL d   1      45.557 -12.350  44.832  0.00  0.00     0.092 C 
ATOM     12  C   UNL d   1      46.330 -12.082  44.940  0.00  0.00     0.021 C 
ENDBRANCH   4  11
ENDBRANCH   1   4
BRANCH   1  13
ATOM     13  C   UNL d   1      45.416 -14.447  44.524  0.00  0.00     0.104 A 
ATOM     14  C   UNL d   1      44.798 -14.784  44.811  0.00  0.00     0.015 A 
ATOM     15  C   UNL d   1      44.805 -15.516  44.950  0.00  0.00     0.022 A 
ATOM     16  C   UNL d   1      45.415 -15.925  44.810  0.00  0.00     0.103 A 
ATOM     17  C   UNL d   1      46.030 -15.604  44.527  0.00  0.00     0.022 A 
ATOM     18  N   UNL d   1      45.411 -16.663  44.954  0.00  0.00    -0.148 N 
ATOM     19  C   UNL d   1      46.035 -14.865  44.382  0.00  0.00     0.015 A 
ENDBRANCH   1  13
TORSDOF 4
ENDMDL
