MODEL 1
REMARK VINA RESULT:      54.3      0.000      0.000
REMARK  7 active torsions:
REMARK  status: ('A' for Active; 'I' for Inactive)
REMARK    1  A    between atoms: C_5  and  C_1 
REMARK    2  A    between atoms: N_6  and  C_2 
REMARK    3  A    between atoms: C_7  and  C_5 
REMARK    4  A    between atoms: C_8  and  C_5 
REMARK       I    between atoms: N_13  and  C_7 
REMARK    5  A    between atoms: C_17  and  N_13 
REMARK    6  A    between atoms: C_23  and  C_17 
REMARK    7  A    between atoms: C_18  and  C_23 
ROOT
ATOM      1  C   UNL d   1      13.950  13.317  -2.675  0.00  0.00     0.117 A 
ATOM      2  C   UNL d   1      14.101  12.509  -2.608  0.00  0.00     0.145 A 
ATOM      3  N   UNL d   1      13.880  11.996  -3.218  0.00  0.00    -0.230 NA
ATOM      4  N   UNL d   1      13.578  13.612  -3.353  0.00  0.00    -0.241 NA
ATOM      5  C   UNL d   1      13.511  12.291  -3.891  0.00  0.00     0.100 A 
ATOM      6  C   UNL d   1      13.361  13.099  -3.959  0.00  0.00     0.099 A 
ATOM      7  C   UNL d   1      13.293  11.779  -4.497  0.00  0.00     0.021 A 
ATOM      8  C   UNL d   1      12.991  13.396  -4.632  0.00  0.00     0.021 A 
ATOM      9  C   UNL d   1      12.921  12.073  -5.179  0.00  0.00     0.002 A 
ATOM     10  C   UNL d   1      12.770  12.881  -5.246  0.00  0.00     0.002 A 
ENDROOT
BRANCH   1  11
ATOM     11  C   UNL d   1      14.227  13.681  -1.993  0.00  0.00     0.099 C 
BRANCH  11  12
ATOM     12  C   UNL d   1      14.745  14.327  -1.876  0.00  0.00     0.282 C 
ATOM     13  O   UNL d   1      15.362  14.270  -1.320  0.00  0.00    -0.265 OA
ATOM     14  N   UNL d   1      14.639  15.021  -2.315  0.00  0.00    -0.206 NA
BRANCH  14  15
ATOM     15  C   UNL d   1      15.157  15.664  -2.196  0.00  0.00     0.102 C 
BRANCH  15  16
ATOM     16  C   UNL d   1      15.000  16.474  -2.253  0.00  0.00     0.021 C 
BRANCH  16  17
ATOM     17  C   UNL d   1      15.071  16.860  -2.975  0.00  0.00     0.002 A 
ATOM     18  C   UNL d   1      14.724  17.595  -3.070  0.00  0.00     0.000 A 
ATOM     19  C   UNL d   1      14.796  17.984  -3.798  0.00  0.00     0.000 A 
ATOM     20  C   UNL d   1      15.212  17.634  -4.416  0.00  0.00     0.000 A 
ATOM     21  C   UNL d   1      15.556  16.891  -4.302  0.00  0.00     0.000 A 
ATOM     22  C   UNL d   1      15.485  16.509  -3.586  0.00  0.00     0.000 A 
ENDBRANCH  16  17
ENDBRANCH  15  16
ENDBRANCH  14  15
ENDBRANCH  11  12
BRANCH  11  23
ATOM     23  C   UNL d   1      13.970  13.384  -1.276  0.00  0.00     0.129 C 
ATOM     24  N   UNL d   1      13.859  13.695  -0.520  0.00  0.00    -0.146 N 
ENDBRANCH  11  23
ENDBRANCH   1  11
BRANCH   2  25
ATOM     25  N   UNL d   1      14.471  12.375  -1.883  0.00  0.00    -0.188 NA
ATOM     26  C   UNL d   1      14.213  11.815  -1.343  0.00  0.00     0.083 A 
ATOM     27  C   UNL d   1      15.011  12.052  -0.621  0.00  0.00     0.136 A 
ATOM     28  O   UNL d   1      15.134  11.779  -0.015  0.00  0.00    -0.301 OA
ATOM     29  C   UNL d   1      15.381  12.377  -0.631  0.00  0.00     0.136 A 
ATOM     30  C   UNL d   1      14.627  12.137  -1.286  0.00  0.00     0.083 A 
ENDBRANCH   2  25
TORSDOF 7
ENDMDL
MODEL 2
REMARK VINA RESULT:      56.7      1.455      3.143
REMARK  7 active torsions:
REMARK  status: ('A' for Active; 'I' for Inactive)
REMARK    1  A    between atoms: C_5  and  C_1 
REMARK    2  A    between atoms: N_6  and  C_2 
REMARK    3  A    between atoms: C_7  and  C_5 
REMARK    4  A    between atoms: C_8  and  C_5 
REMARK       I    between atoms: N_13  and  C_7 
REMARK    5  A    between atoms: C_17  and  N_13 
REMARK    6  A    between atoms: C_23  and  C_17 
REMARK    7  A    between atoms: C_18  and  C_23 
ROOT
ATOM      1  C   UNL d   1      13.960  13.418  -2.593  0.00  0.00     0.117 A 
ATOM      2  C   UNL d   1      13.910  12.610  -2.751  0.00  0.00     0.145 A 
ATOM      3  N   UNL d   1      14.164  12.063  -2.184  0.00  0.00    -0.230 NA
ATOM      4  N   UNL d   1      14.264  13.680  -1.869  0.00  0.00    -0.241 NA
ATOM      5  C   UNL d   1      14.465  12.325  -1.465  0.00  0.00     0.100 A 
ATOM      6  C   UNL d   1      14.515  13.133  -1.307  0.00  0.00     0.099 A 
ATOM      7  C   UNL d   1      14.716  11.779  -0.903  0.00  0.00     0.021 A 
ATOM      8  C   UNL d   1      14.816  13.396  -0.588  0.00  0.00     0.021 A 
ATOM      9  C   UNL d   1      15.021  12.040  -0.175  0.00  0.00     0.002 A 
ATOM     10  C   UNL d   1      15.071  12.848  -0.018  0.00  0.00     0.002 A 
ENDROOT
BRANCH   1  11
ATOM     11  C   UNL d   1      13.672  13.819  -3.250  0.00  0.00     0.099 C 
BRANCH  11  12
ATOM     12  C   UNL d   1      13.856  14.568  -3.572  0.00  0.00     0.282 C 
ATOM     13  O   UNL d   1      13.379  14.893  -4.172  0.00  0.00    -0.265 OA
ATOM     14  N   UNL d   1      14.516  14.984  -3.290  0.00  0.00    -0.206 NA
BRANCH  14  15
ATOM     15  C   UNL d   1      14.697  15.731  -3.613  0.00  0.00     0.102 C 
BRANCH  15  16
ATOM     16  C   UNL d   1      15.138  16.347  -3.280  0.00  0.00     0.021 C 
BRANCH  16  17
ATOM     17  C   UNL d   1      15.111  16.484  -2.470  0.00  0.00     0.002 A 
ATOM     18  C   UNL d   1      14.386  16.489  -2.090  0.00  0.00     0.000 A 
ATOM     19  C   UNL d   1      14.360  16.627  -1.274  0.00  0.00     0.000 A 
ATOM     20  C   UNL d   1      15.055  16.759  -0.852  0.00  0.00     0.000 A 
ATOM     21  C   UNL d   1      15.778  16.751  -1.253  0.00  0.00     0.000 A 
ATOM     22  C   UNL d   1      15.804  16.614  -2.056  0.00  0.00     0.000 A 
ENDBRANCH  16  17
ENDBRANCH  15  16
ENDBRANCH  14  15
ENDBRANCH  11  12
BRANCH  11  23
ATOM     23  C   UNL d   1      13.097  13.448  -3.696  0.00  0.00     0.129 C 
ATOM     24  N   UNL d   1      12.769  13.566  -4.444  0.00  0.00    -0.146 N 
ENDBRANCH  11  23
ENDBRANCH   1  11
BRANCH   2  25
ATOM     25  N   UNL d   1      13.591  12.513  -3.504  0.00  0.00    -0.188 NA
ATOM     26  C   UNL d   1      13.464  11.779  -3.849  0.00  0.00     0.083 A 
ATOM     27  C   UNL d   1      13.056  12.215  -4.776  0.00  0.00     0.136 A 
ATOM     28  O   UNL d   1      12.828  11.903  -5.330  0.00  0.00    -0.301 OA
ATOM     29  C   UNL d   1      12.982  12.681  -4.918  0.00  0.00     0.136 A 
ATOM     30  C   UNL d   1      13.359  12.249  -4.065  0.00  0.00     0.083 A 
ENDBRANCH   2  25
TORSDOF 7
ENDMDL
