MODEL 1
REMARK VINA RESULT:      60.9      0.000      0.000
REMARK  4 active torsions:
REMARK  status: ('A' for Active; 'I' for Inactive)
REMARK    1  A    between atoms: C_8  and  C_6 
REMARK    2  A    between atoms: C_9  and  C_8 
REMARK       I    between atoms: N_11  and  C_9 
REMARK       I    between atoms: C_10  and  N_12 
REMARK    3  A    between atoms: C_17  and  N_11 
REMARK    4  A    between atoms: N_12  and  C_18 
ROOT
ATOM      1  N   UNL d   1      46.091 -17.398  42.857  0.00  0.00    -0.207 NA
ATOM      2  N   UNL d   1      46.250 -18.862  42.054  0.00  0.00    -0.240 NA
ATOM      3  C   UNL d   1      46.045 -17.597  42.070  0.00  0.00     0.297 A 
ATOM      4  C   UNL d   1      46.234 -17.874  43.516  0.00  0.00     0.086 A 
ATOM      5  C   UNL d   1      46.370 -19.127  42.821  0.00  0.00     0.083 A 
ATOM      6  C   UNL d   1      46.099 -18.094  41.801  0.00  0.00     0.144 A 
ATOM      7  C   UNL d   1      46.370 -18.697  43.529  0.00  0.00     0.035 A 
ATOM      8  O   UNL d   1      45.891 -16.973  41.556  0.00  0.00    -0.264 OA
ATOM      9  C   UNL d   1      46.504 -19.074  44.253  0.00  0.00     0.003 A 
ATOM     10  C   UNL d   1      46.504 -19.942  42.834  0.00  0.00     0.019 A 
ATOM     11  C   UNL d   1      46.234 -17.443  44.221  0.00  0.00     0.019 A 
ATOM     12  C   UNL d   1      46.640 -20.330  43.565  0.00  0.00     0.002 A 
ATOM     13  C   UNL d   1      46.369 -17.826  44.940  0.00  0.00     0.002 A 
ATOM     14  C   UNL d   1      46.503 -18.641  44.955  0.00  0.00     0.000 A 
ATOM     15  C   UNL d   1      46.640 -19.898  44.267  0.00  0.00     0.000 A 
ENDROOT
BRANCH   6  16
ATOM     16  C   UNL d   1      46.007 -18.032  40.984  0.00  0.00     0.086 C 
BRANCH  16  17
ATOM     17  C   UNL d   1      46.235 -18.669  40.499  0.00  0.00     0.281 C 
ATOM     18  N   UNL d   1      46.055 -18.656  39.691  0.00  0.00    -0.208 NA
ATOM     19  O   UNL d   1      46.641 -19.313  40.819  0.00  0.00    -0.265 OA
BRANCH  18  20
ATOM     20  C   UNL d   1      45.649 -18.014  39.366  0.00  0.00     0.085 A 
ATOM     21  C   UNL d   1      44.854 -17.906  39.541  0.00  0.00     0.021 A 
ATOM     22  C   UNL d   1      44.444 -17.268  39.220  0.00  0.00     0.021 A 
ATOM     23  C   UNL d   1      44.836 -16.735  38.719  0.00  0.00     0.085 A 
ATOM     24  C   UNL d   1      45.635 -16.847  38.546  0.00  0.00     0.021 A 
ATOM     25  C   UNL d   1      46.041 -17.486  38.869  0.00  0.00     0.021 A 
BRANCH  23  26
ATOM     26  N   UNL d   1      44.437 -16.108  38.402  0.00  0.00    -0.208 NA
ATOM     27  C   UNL d   1      44.439 -15.989  37.596  0.00  0.00     0.279 C 
ATOM     28  O   UNL d   1      44.840 -16.497  37.109  0.00  0.00    -0.265 OA
ATOM     29  C   UNL d   1      44.036 -15.355  37.274  0.00  0.00     0.068 C 
ENDBRANCH  23  26
ENDBRANCH  18  20
ENDBRANCH  16  17
ENDBRANCH   6  16
TORSDOF 4
ENDMDL
MODEL 2
REMARK VINA RESULT:      61.2      1.226      5.613
REMARK  4 active torsions:
REMARK  status: ('A' for Active; 'I' for Inactive)
REMARK    1  A    between atoms: C_8  and  C_6 
REMARK    2  A    between atoms: C_9  and  C_8 
REMARK       I    between atoms: N_11  and  C_9 
REMARK       I    between atoms: C_10  and  N_12 
REMARK    3  A    between atoms: C_17  and  N_11 
REMARK    4  A    between atoms: N_12  and  C_18 
ROOT
ATOM      1  N   UNL d   1      44.205 -16.803  38.425  0.00  0.00    -0.207 NA
ATOM      2  N   UNL d   1      45.861 -16.675  38.660  0.00  0.00    -0.240 NA
ATOM      3  C   UNL d   1      44.714 -17.172  38.941  0.00  0.00     0.297 A 
ATOM      4  C   UNL d   1      44.360 -16.236  37.845  0.00  0.00     0.086 A 
ATOM      5  C   UNL d   1      45.780 -16.131  38.052  0.00  0.00     0.083 A 
ATOM      6  C   UNL d   1      45.275 -17.127  39.018  0.00  0.00     0.144 A 
ATOM      7  C   UNL d   1      45.096 -15.899  37.645  0.00  0.00     0.035 A 
ATOM      8  O   UNL d   1      44.366 -17.715  39.452  0.00  0.00    -0.264 OA
ATOM      9  C   UNL d   1      45.133 -15.335  37.042  0.00  0.00     0.003 A 
ATOM     10  C   UNL d   1      46.509 -15.797  37.854  0.00  0.00     0.019 A 
ATOM     11  C   UNL d   1      43.676 -16.006  37.441  0.00  0.00     0.019 A 
ATOM     12  C   UNL d   1      46.553 -15.225  37.243  0.00  0.00     0.002 A 
ATOM     13  C   UNL d   1      43.721 -15.442  36.839  0.00  0.00     0.002 A 
ATOM     14  C   UNL d   1      44.449 -15.108  36.641  0.00  0.00     0.000 A 
ATOM     15  C   UNL d   1      45.870 -14.997  36.842  0.00  0.00     0.000 A 
ENDROOT
BRANCH   6  16
ATOM     16  C   UNL d   1      45.560 -17.617  39.615  0.00  0.00     0.086 C 
BRANCH  16  17
ATOM     17  C   UNL d   1      45.904 -18.349  39.413  0.00  0.00     0.281 C 
ATOM     18  N   UNL d   1      46.246 -18.820  40.002  0.00  0.00    -0.208 NA
ATOM     19  O   UNL d   1      45.906 -18.606  38.629  0.00  0.00    -0.265 OA
BRANCH  18  20
ATOM     20  C   UNL d   1      46.247 -18.567  40.788  0.00  0.00     0.085 A 
ATOM     21  C   UNL d   1      45.848 -19.007  41.356  0.00  0.00     0.021 A 
ATOM     22  C   UNL d   1      45.845 -18.761  42.141  0.00  0.00     0.021 A 
ATOM     23  C   UNL d   1      46.246 -18.067  42.358  0.00  0.00     0.085 A 
ATOM     24  C   UNL d   1      46.645 -17.628  41.785  0.00  0.00     0.021 A 
ATOM     25  C   UNL d   1      46.645 -17.878  41.001  0.00  0.00     0.021 A 
BRANCH  23  26
ATOM     26  N   UNL d   1      46.245 -17.823  43.129  0.00  0.00    -0.208 NA
ATOM     27  C   UNL d   1      46.317 -18.369  43.729  0.00  0.00     0.279 C 
ATOM     28  O   UNL d   1      46.390 -19.157  43.559  0.00  0.00    -0.265 OA
ATOM     29  C   UNL d   1      46.316 -18.123  44.509  0.00  0.00     0.068 C 
ENDBRANCH  23  26
ENDBRANCH  18  20
ENDBRANCH  16  17
ENDBRANCH   6  16
TORSDOF 4
ENDMDL
MODEL 3
REMARK VINA RESULT:      62.4      4.867      6.826
REMARK  4 active torsions:
REMARK  status: ('A' for Active; 'I' for Inactive)
REMARK    1  A    between atoms: C_8  and  C_6 
REMARK    2  A    between atoms: C_9  and  C_8 
REMARK       I    between atoms: N_11  and  C_9 
REMARK       I    between atoms: C_10  and  N_12 
REMARK    3  A    between atoms: C_17  and  N_11 
REMARK    4  A    between atoms: N_12  and  C_18 
ROOT
ATOM      1  N   UNL d   1      43.528 -14.492  38.154  0.00  0.00    -0.207 NA
ATOM      2  N   UNL d   1      45.154 -14.087  38.247  0.00  0.00    -0.240 NA
ATOM      3  C   UNL d   1      43.936 -13.973  38.631  0.00  0.00     0.297 A 
ATOM      4  C   UNL d   1      43.804 -14.988  37.556  0.00  0.00     0.086 A 
ATOM      5  C   UNL d   1      45.197 -14.637  37.640  0.00  0.00     0.083 A 
ATOM      6  C   UNL d   1      44.487 -13.838  38.660  0.00  0.00     0.144 A 
ATOM      7  C   UNL d   1      44.589 -15.079  37.290  0.00  0.00     0.035 A 
ATOM      8  O   UNL d   1      43.479 -13.561  39.176  0.00  0.00    -0.264 OA
ATOM      9  C   UNL d   1      44.751 -15.610  36.678  0.00  0.00     0.003 A 
ATOM     10  C   UNL d   1      45.975 -14.727  37.377  0.00  0.00     0.019 A 
ATOM     11  C   UNL d   1      43.196 -15.427  37.208  0.00  0.00     0.019 A 
ATOM     12  C   UNL d   1      46.145 -15.264  36.757  0.00  0.00     0.002 A 
ATOM     13  C   UNL d   1      43.366 -15.957  36.597  0.00  0.00     0.002 A 
ATOM     14  C   UNL d   1      44.143 -16.047  36.333  0.00  0.00     0.000 A 
ATOM     15  C   UNL d   1      45.538 -15.701  36.411  0.00  0.00     0.000 A 
ENDROOT
BRANCH   6  16
ATOM     16  C   UNL d   1      44.653 -13.275  39.237  0.00  0.00     0.086 C 
BRANCH  16  17
ATOM     17  C   UNL d   1      45.081 -12.591  39.029  0.00  0.00     0.281 C 
ATOM     18  N   UNL d   1      45.359 -12.084  39.621  0.00  0.00    -0.208 NA
ATOM     19  O   UNL d   1      45.230 -12.418  38.236  0.00  0.00    -0.265 OA
BRANCH  18  20
ATOM     20  C   UNL d   1      45.212 -12.253  40.417  0.00  0.00     0.085 A 
ATOM     21  C   UNL d   1      44.476 -12.081  40.738  0.00  0.00     0.021 A 
ATOM     22  C   UNL d   1      44.323 -12.247  41.530  0.00  0.00     0.021 A 
ATOM     23  C   UNL d   1      44.915 -12.588  42.002  0.00  0.00     0.085 A 
ATOM     24  C   UNL d   1      45.653 -12.759  41.675  0.00  0.00     0.021 A 
ATOM     25  C   UNL d   1      45.801 -12.591  40.883  0.00  0.00     0.021 A 
BRANCH  23  26
ATOM     26  N   UNL d   1      44.769 -12.752  42.780  0.00  0.00    -0.208 NA
ATOM     27  C   UNL d   1      45.385 -12.944  43.278  0.00  0.00     0.279 C 
ATOM     28  O   UNL d   1      46.144 -12.971  42.999  0.00  0.00    -0.265 OA
ATOM     29  C   UNL d   1      45.238 -13.110  44.065  0.00  0.00     0.068 C 
ENDBRANCH  23  26
ENDBRANCH  18  20
ENDBRANCH  16  17
ENDBRANCH   6  16
TORSDOF 4
ENDMDL
