MODEL 1
REMARK VINA RESULT:      -2.8      0.000      0.000
REMARK  1 active torsions:
REMARK  status: ('A' for Active; 'I' for Inactive)
REMARK    1  A    between atoms: C_11  and  C_9 
ROOT
ATOM      1  C   UNL d   1      32.695  20.950 -21.290  0.00  0.00     0.215 A 
ATOM      2  N   UNL d   1      32.199  21.587 -21.434  0.00  0.00    -0.219 NA
ATOM      3  S   UNL d   1      33.164  21.128 -20.642  0.00  0.00    -0.045 SA
ATOM      4  C   UNL d   1      32.956  21.887 -20.380  0.00  0.00     0.050 A 
ATOM      5  C   UNL d   1      32.361  22.170 -20.868  0.00  0.00     0.090 A 
ATOM      6  C   UNL d   1      33.238  22.348 -19.756  0.00  0.00     0.008 A 
ATOM      7  N   UNL d   1      32.718  20.245 -21.727  0.00  0.00    -0.120 N 
ATOM      8  C   UNL d   1      32.037  22.919 -20.741  0.00  0.00     0.020 A 
ATOM      9  C   UNL d   1      32.916  23.083 -19.638  0.00  0.00     0.001 A 
ATOM     10  C   UNL d   1      32.318  23.368 -20.129  0.00  0.00     0.002 A 
ENDROOT
BRANCH   9  11
ATOM     11  C   UNL d   1      33.195  23.550 -19.015  0.00  0.00     0.000 C 
ATOM     12  C   UNL d   1      32.712  23.702 -18.370  0.00  0.00     0.000 C 
ENDBRANCH   9  11
TORSDOF 1
ENDMDL
MODEL 2
REMARK VINA RESULT:      -2.7      1.522      1.910
REMARK  1 active torsions:
REMARK  status: ('A' for Active; 'I' for Inactive)
REMARK    1  A    between atoms: C_11  and  C_9 
ROOT
ATOM      1  C   UNL d   1      33.041  19.898 -22.037  0.00  0.00     0.215 A 
ATOM      2  N   UNL d   1      32.689  20.038 -21.310  0.00  0.00    -0.219 NA
ATOM      3  S   UNL d   1      33.164  20.618 -22.408  0.00  0.00    -0.045 SA
ATOM      4  C   UNL d   1      32.884  21.214 -21.903  0.00  0.00     0.050 A 
ATOM      5  C   UNL d   1      32.591  20.856 -21.226  0.00  0.00     0.090 A 
ATOM      6  C   UNL d   1      32.864  22.035 -21.983  0.00  0.00     0.008 A 
ATOM      7  N   UNL d   1      33.239  19.153 -22.345  0.00  0.00    -0.120 N 
ATOM      8  C   UNL d   1      32.272  21.313 -20.616  0.00  0.00     0.020 A 
ATOM      9  C   UNL d   1      32.549  22.478 -21.380  0.00  0.00     0.001 A 
ATOM     10  C   UNL d   1      32.254  22.117 -20.699  0.00  0.00     0.002 A 
ENDROOT
BRANCH   9  11
ATOM     11  C   UNL d   1      32.525  23.301 -21.454  0.00  0.00     0.000 C 
ATOM     12  C   UNL d   1      31.816  23.700 -21.354  0.00  0.00     0.000 C 
ENDBRANCH   9  11
TORSDOF 1
ENDMDL
MODEL 3
REMARK VINA RESULT:      -2.6      6.452      7.414
REMARK  1 active torsions:
REMARK  status: ('A' for Active; 'I' for Inactive)
REMARK    1  A    between atoms: C_11  and  C_9 
ROOT
ATOM      1  C   UNL d   1      28.720  15.811 -23.761  0.00  0.00     0.215 A 
ATOM      2  N   UNL d   1      28.874  16.459 -24.238  0.00  0.00    -0.219 NA
ATOM      3  S   UNL d   1      29.421  15.576 -23.409  0.00  0.00    -0.045 SA
ATOM      4  C   UNL d   1      30.020  16.086 -23.672  0.00  0.00     0.050 A 
ATOM      5  C   UNL d   1      29.683  16.631 -24.183  0.00  0.00     0.090 A 
ATOM      6  C   UNL d   1      30.828  16.116 -23.504  0.00  0.00     0.008 A 
ATOM      7  N   UNL d   1      27.979  15.453 -23.653  0.00  0.00    -0.120 N 
ATOM      8  C   UNL d   1      30.147  17.216 -24.536  0.00  0.00     0.020 A 
ATOM      9  C   UNL d   1      31.277  16.693 -23.855  0.00  0.00     0.001 A 
ATOM     10  C   UNL d   1      30.938  17.241 -24.369  0.00  0.00     0.002 A 
ENDROOT
BRANCH   9  11
ATOM     11  C   UNL d   1      32.087  16.728 -23.691  0.00  0.00     0.000 C 
ATOM     12  C   UNL d   1      32.420  17.429 -23.425  0.00  0.00     0.000 C 
ENDBRANCH   9  11
TORSDOF 1
ENDMDL
MODEL 4
REMARK VINA RESULT:      -2.6      6.616      7.406
REMARK  1 active torsions:
REMARK  status: ('A' for Active; 'I' for Inactive)
REMARK    1  A    between atoms: C_11  and  C_9 
ROOT
ATOM      1  C   UNL d   1      32.188  16.891 -23.905  0.00  0.00     0.215 A 
ATOM      2  N   UNL d   1      31.945  16.241 -23.469  0.00  0.00    -0.219 NA
ATOM      3  S   UNL d   1      31.529  17.232 -24.253  0.00  0.00    -0.045 SA
ATOM      4  C   UNL d   1      30.866  16.786 -24.029  0.00  0.00     0.050 A 
ATOM      5  C   UNL d   1      31.122  16.175 -23.545  0.00  0.00     0.090 A 
ATOM      6  C   UNL d   1      30.065  16.867 -24.209  0.00  0.00     0.008 A 
ATOM      7  N   UNL d   1      32.970  17.158 -23.982  0.00  0.00    -0.120 N 
ATOM      8  C   UNL d   1      30.582  15.635 -23.233  0.00  0.00     0.020 A 
ATOM      9  C   UNL d   1      29.539  16.332 -23.898  0.00  0.00     0.001 A 
ATOM     10  C   UNL d   1      29.797  15.718 -23.412  0.00  0.00     0.002 A 
ENDROOT
BRANCH   9  11
ATOM     11  C   UNL d   1      28.735  16.408 -24.075  0.00  0.00     0.000 C 
ATOM     12  C   UNL d   1      28.184  16.432 -23.468  0.00  0.00     0.000 C 
ENDBRANCH   9  11
TORSDOF 1
ENDMDL
MODEL 5
REMARK VINA RESULT:      -2.5      1.405      3.006
REMARK  1 active torsions:
REMARK  status: ('A' for Active; 'I' for Inactive)
REMARK    1  A    between atoms: C_11  and  C_9 
ROOT
ATOM      1  C   UNL d   1      32.490  23.043 -20.429  0.00  0.00     0.215 A 
ATOM      2  N   UNL d   1      32.714  23.065 -21.217  0.00  0.00    -0.219 NA
ATOM      3  S   UNL d   1      32.479  22.262 -20.183  0.00  0.00    -0.045 SA
ATOM      4  C   UNL d   1      32.700  21.791 -20.829  0.00  0.00     0.050 A 
ATOM      5  C   UNL d   1      32.845  22.286 -21.467  0.00  0.00     0.090 A 
ATOM      6  C   UNL d   1      32.785  20.974 -20.908  0.00  0.00     0.008 A 
ATOM      7  N   UNL d   1      32.305  23.702 -19.959  0.00  0.00    -0.120 N 
ATOM      8  C   UNL d   1      33.077  21.973 -22.195  0.00  0.00     0.020 A 
ATOM      9  C   UNL d   1      33.014  20.673 -21.626  0.00  0.00     0.001 A 
ATOM     10  C   UNL d   1      33.159  21.171 -22.268  0.00  0.00     0.002 A 
ENDROOT
BRANCH   9  11
ATOM     11  C   UNL d   1      33.101  19.855 -21.712  0.00  0.00     0.000 C 
ATOM     12  C   UNL d   1      33.042  19.514 -22.455  0.00  0.00     0.000 C 
ENDBRANCH   9  11
TORSDOF 1
ENDMDL
MODEL 6
REMARK VINA RESULT:      -2.5      5.898      6.915
REMARK  1 active torsions:
REMARK  status: ('A' for Active; 'I' for Inactive)
REMARK    1  A    between atoms: C_11  and  C_9 
ROOT
ATOM      1  C   UNL d   1      32.478  18.013 -24.177  0.00  0.00     0.215 A 
ATOM      2  N   UNL d   1      31.750  18.078 -24.548  0.00  0.00    -0.219 NA
ATOM      3  S   UNL d   1      32.465  17.351 -23.693  0.00  0.00    -0.045 SA
ATOM      4  C   UNL d   1      31.716  17.001 -23.766  0.00  0.00     0.050 A 
ATOM      5  C   UNL d   1      31.276  17.449 -24.293  0.00  0.00     0.090 A 
ATOM      6  C   UNL d   1      31.389  16.330 -23.414  0.00  0.00     0.008 A 
ATOM      7  N   UNL d   1      33.121  18.529 -24.275  0.00  0.00    -0.120 N 
ATOM      8  C   UNL d   1      30.500  17.234 -24.478  0.00  0.00     0.020 A 
ATOM      9  C   UNL d   1      30.626  16.125 -23.600  0.00  0.00     0.001 A 
ATOM     10  C   UNL d   1      30.183  16.575 -24.130  0.00  0.00     0.002 A 
ENDROOT
BRANCH   9  11
ATOM     11  C   UNL d   1      30.293  15.453 -23.251  0.00  0.00     0.000 C 
ATOM     12  C   UNL d   1      29.518  15.475 -22.982  0.00  0.00     0.000 C 
ENDBRANCH   9  11
TORSDOF 1
ENDMDL
MODEL 7
REMARK VINA RESULT:      -2.4      1.787      2.751
REMARK  1 active torsions:
REMARK  status: ('A' for Active; 'I' for Inactive)
REMARK    1  A    between atoms: C_11  and  C_9 
ROOT
ATOM      1  C   UNL d   1      33.001  22.950 -18.925  0.00  0.00     0.215 A 
ATOM      2  N   UNL d   1      33.020  22.281 -19.397  0.00  0.00    -0.219 NA
ATOM      3  S   UNL d   1      32.789  23.590 -19.390  0.00  0.00    -0.045 SA
ATOM      4  C   UNL d   1      32.673  23.313 -20.164  0.00  0.00     0.050 A 
ATOM      5  C   UNL d   1      32.815  22.506 -20.168  0.00  0.00     0.090 A 
ATOM      6  C   UNL d   1      32.456  23.702 -20.858  0.00  0.00     0.008 A 
ATOM      7  N   UNL d   1      33.170  22.975 -18.113  0.00  0.00    -0.120 N 
ATOM      8  C   UNL d   1      32.743  22.073 -20.867  0.00  0.00     0.020 A 
ATOM      9  C   UNL d   1      32.387  23.271 -21.542  0.00  0.00     0.001 A 
ATOM     10  C   UNL d   1      32.530  22.458 -21.546  0.00  0.00     0.002 A 
ENDROOT
BRANCH   9  11
ATOM     11  C   UNL d   1      32.170  23.655 -22.241  0.00  0.00     0.000 C 
ATOM     12  C   UNL d   1      32.474  23.400 -22.959  0.00  0.00     0.000 C 
ENDBRANCH   9  11
TORSDOF 1
ENDMDL
MODEL 8
REMARK VINA RESULT:      -2.3      1.501      2.799
REMARK  1 active torsions:
REMARK  status: ('A' for Active; 'I' for Inactive)
REMARK    1  A    between atoms: C_11  and  C_9 
ROOT
ATOM      1  C   UNL d   1      32.873  23.184 -19.170  0.00  0.00     0.215 A 
ATOM      2  N   UNL d   1      32.617  23.369 -19.926  0.00  0.00    -0.219 NA
ATOM      3  S   UNL d   1      33.141  22.410 -19.168  0.00  0.00    -0.045 SA
ATOM      4  C   UNL d   1      33.050  22.110 -19.936  0.00  0.00     0.050 A 
ATOM      5  C   UNL d   1      32.727  22.701 -20.404  0.00  0.00     0.090 A 
ATOM      6  C   UNL d   1      33.224  21.371 -20.260  0.00  0.00     0.008 A 
ATOM      7  N   UNL d   1      32.862  23.695 -18.516  0.00  0.00    -0.120 N 
ATOM      8  C   UNL d   1      32.572  22.564 -21.203  0.00  0.00     0.020 A 
ATOM      9  C   UNL d   1      33.069  21.243 -21.046  0.00  0.00     0.001 A 
ATOM     10  C   UNL d   1      32.744  21.838 -21.516  0.00  0.00     0.002 A 
ENDROOT
BRANCH   9  11
ATOM     11  C   UNL d   1      33.241  20.505 -21.376  0.00  0.00     0.000 C 
ATOM     12  C   UNL d   1      32.830  20.248 -22.038  0.00  0.00     0.000 C 
ENDBRANCH   9  11
TORSDOF 1
ENDMDL
MODEL 9
REMARK VINA RESULT:      -2.3      1.522      3.512
REMARK  1 active torsions:
REMARK  status: ('A' for Active; 'I' for Inactive)
REMARK    1  A    between atoms: C_11  and  C_9 
ROOT
ATOM      1  C   UNL d   1      32.774  21.898 -20.645  0.00  0.00     0.215 A 
ATOM      2  N   UNL d   1      32.967  22.074 -21.422  0.00  0.00    -0.219 NA
ATOM      3  S   UNL d   1      32.720  21.084 -20.568  0.00  0.00    -0.045 SA
ATOM      4  C   UNL d   1      32.883  20.749 -21.310  0.00  0.00     0.050 A 
ATOM      5  C   UNL d   1      33.035  21.360 -21.836  0.00  0.00     0.090 A 
ATOM      6  C   UNL d   1      32.909  19.964 -21.563  0.00  0.00     0.008 A 
ATOM      7  N   UNL d   1      32.653  22.451 -20.038  0.00  0.00    -0.120 N 
ATOM      8  C   UNL d   1      33.216  21.196 -22.625  0.00  0.00     0.020 A 
ATOM      9  C   UNL d   1      33.088  19.811 -22.339  0.00  0.00     0.001 A 
ATOM     10  C   UNL d   1      33.241  20.425 -22.869  0.00  0.00     0.002 A 
ENDROOT
BRANCH   9  11
ATOM     11  C   UNL d   1      33.116  19.026 -22.599  0.00  0.00     0.000 C 
ATOM     12  C   UNL d   1      32.799  18.826 -23.328  0.00  0.00     0.000 C 
ENDBRANCH   9  11
TORSDOF 1
ENDMDL
