MODEL 1
REMARK VINA RESULT:      21.7      0.000      0.000
REMARK  5 active torsions:
REMARK  status: ('A' for Active; 'I' for Inactive)
REMARK    1  A    between atoms: C_2  and  C_1 
REMARK       I    between atoms: N_4  and  C_2 
REMARK    2  A    between atoms: C_7  and  N_4 
REMARK    3  A    between atoms: C_12  and  C_6 
REMARK    4  A    between atoms: S_11  and  C_12 
REMARK    5  A    between atoms: C_14  and  S_11 
ROOT
ATOM      1  C   UNL d   1      14.830  12.205  -0.699  0.00  0.00     0.158 A 
ATOM      2  O   UNL d   1      14.637  12.099  -1.494  0.00  0.00    -0.302 OA
ATOM      3  C   UNL d   1      14.137  12.094  -0.259  0.00  0.00     0.032 A 
ATOM      4  C   UNL d   1      13.840  11.926  -1.547  0.00  0.00     0.107 A 
ATOM      5  C   UNL d   1      13.524  11.921  -0.783  0.00  0.00     0.027 A 
ENDROOT
BRANCH   1   6
ATOM      6  C   UNL d   1      15.575  12.388  -0.390  0.00  0.00     0.302 C 
ATOM      7  N   UNL d   1      15.724  13.133  -0.075  0.00  0.00    -0.204 NA
ATOM      8  O   UNL d   1      16.165  11.817  -0.400  0.00  0.00    -0.263 OA
BRANCH   7   9
ATOM      9  C   UNL d   1      15.116  13.703  -0.072  0.00  0.00     0.112 A 
ATOM     10  C   UNL d   1      15.321  14.502  -0.122  0.00  0.00     0.158 A 
ATOM     11  F   UNL d   1      16.109  14.725  -0.175  0.00  0.00    -0.203 F 
ATOM     12  C   UNL d   1      14.724  15.069  -0.119  0.00  0.00     0.031 A 
ATOM     13  C   UNL d   1      13.929  14.841  -0.066  0.00  0.00     0.002 A 
ATOM     14  C   UNL d   1      13.732  14.043  -0.016  0.00  0.00     0.002 A 
ATOM     15  C   UNL d   1      14.332  13.473  -0.019  0.00  0.00     0.021 A 
ENDBRANCH   7   9
ENDBRANCH   1   6
BRANCH   4  16
ATOM     16  C   UNL d   1      13.414  11.780  -2.240  0.00  0.00     0.060 C 
BRANCH  16  17
ATOM     17  S   UNL d   1      13.784  11.849  -2.972  0.00  0.00    -0.084 SA
BRANCH  17  18
ATOM     18  C   UNL d   1      13.467  12.330  -3.556  0.00  0.00     0.029 A 
ATOM     19  C   UNL d   1      13.482  13.148  -3.475  0.00  0.00     0.006 A 
ATOM     20  C   UNL d   1      13.165  13.629  -4.059  0.00  0.00     0.001 A 
ATOM     21  C   UNL d   1      12.829  13.282  -4.733  0.00  0.00     0.000 A 
ATOM     22  C   UNL d   1      12.816  12.462  -4.811  0.00  0.00     0.001 A 
ATOM     23  C   UNL d   1      13.134  11.981  -4.226  0.00  0.00     0.006 A 
ENDBRANCH  17  18
ENDBRANCH  16  17
ENDBRANCH   4  16
TORSDOF 5
ENDMDL
