MODEL 1
REMARK VINA RESULT:      27.3      0.000      0.000
REMARK  1 active torsions:
REMARK  status: ('A' for Active; 'I' for Inactive)
REMARK    1  A    between atoms: C_12  and  N_2 
ROOT
ATOM      1  C   UNL d   1     -54.713-100.832 -38.198  0.00  0.00     0.267 A 
ATOM      2  N   UNL d   1     -54.713-100.643 -37.420  0.00  0.00    -0.271 N 
ATOM      3  C   UNL d   1     -54.712-101.467 -38.468  0.00  0.00     0.081 A 
ATOM      4  C   UNL d   1     -54.712-102.226 -38.151  0.00  0.00     0.105 A 
ATOM      5  O   UNL d   1     -54.712-102.482 -37.491  0.00  0.00    -0.305 OA
ATOM      6  C   UNL d   1     -54.713-101.190 -36.788  0.00  0.00     0.090 A 
ATOM      7  C   UNL d   1     -54.712-102.038 -36.817  0.00  0.00     0.116 A 
ATOM      8  C   UNL d   1     -54.712-101.354 -39.285  0.00  0.00     0.028 A 
ATOM      9  O   UNL d   1     -54.713-100.203 -38.730  0.00  0.00    -0.267 OA
ATOM     10  C   UNL d   1     -54.711-102.879 -38.649  0.00  0.00     0.026 A 
ATOM     11  C   UNL d   1     -54.712-102.008 -39.786  0.00  0.00     0.103 A 
ATOM     12  N   UNL d   1     -54.712-101.902 -40.600  0.00  0.00    -0.148 N 
ATOM     13  C   UNL d   1     -54.711-102.775 -39.466  0.00  0.00     0.023 A 
ATOM     14  C   UNL d   1     -54.713-100.794 -36.034  0.00  0.00     0.020 A 
ATOM     15  C   UNL d   1     -54.712-102.492 -36.101  0.00  0.00     0.026 A 
ATOM     16  C   UNL d   1     -54.713-101.251 -35.317  0.00  0.00     0.002 A 
ATOM     17  C   UNL d   1     -54.712-102.104 -35.354  0.00  0.00     0.002 A 
ENDROOT
BRANCH   2  18
ATOM     18  C   UNL d   1     -54.714 -99.846 -37.227  0.00  0.00     0.083 C 
ATOM     19  C   UNL d   1     -54.944 -99.292 -37.780  0.00  0.00     0.021 C 
ENDBRANCH   2  18
TORSDOF 1
ENDMDL
