MODEL 1
REMARK VINA RESULT:      17.9      0.000      0.000
REMARK  4 active torsions:
REMARK  status: ('A' for Active; 'I' for Inactive)
REMARK       I    between atoms: N_2  and  C_1 
REMARK    1  A    between atoms: C_3  and  C_1 
REMARK    2  A    between atoms: C_7  and  N_2 
REMARK    3  A    between atoms: O_17  and  C_9 
REMARK    4  A    between atoms: C_18  and  O_17 
ROOT
ATOM      1  C   UNL d   1      46.101 -12.799  44.664  0.00  0.00     0.279 C 
ATOM      2  N   UNL d   1      46.447 -13.508  44.925  0.00  0.00    -0.208 NA
ATOM      3  O   UNL d   1      46.397 -12.085  44.952  0.00  0.00    -0.265 OA
ENDROOT
BRANCH   2   4
ATOM      4  C   UNL d   1      46.162 -14.230  44.646  0.00  0.00     0.085 A 
ATOM      5  C   UNL d   1      46.574 -14.645  44.082  0.00  0.00     0.021 A 
ATOM      6  C   UNL d   1      46.290 -15.367  43.803  0.00  0.00     0.026 A 
ATOM      7  C   UNL d   1      45.594 -15.674  44.088  0.00  0.00     0.100 A 
ATOM      8  C   UNL d   1      45.148 -15.256  44.678  0.00  0.00     0.026 A 
ATOM      9  C   UNL d   1      45.450 -14.535  44.944  0.00  0.00     0.021 A 
BRANCH   7  10
ATOM     10  O   UNL d   1      45.323 -16.397  43.798  0.00  0.00    -0.305 OA
BRANCH  10  11
ATOM     11  C   UNL d   1      45.587 -17.085  44.133  0.00  0.00     0.123 C 
ATOM     12  C   UNL d   1      45.764 -17.726  43.647  0.00  0.00     0.029 C 
ENDBRANCH  10  11
ENDBRANCH   7  10
ENDBRANCH   2   4
BRANCH   1  13
ATOM     13  C   UNL d   1      45.471 -12.812  44.122  0.00  0.00     0.058 A 
ATOM     14  C   UNL d   1      45.602 -12.604  43.335  0.00  0.00     0.006 A 
ATOM     15  C   UNL d   1      44.987 -12.615  42.797  0.00  0.00     0.021 A 
ATOM     16  C   UNL d   1      44.209 -12.840  43.039  0.00  0.00     0.103 A 
ATOM     17  C   UNL d   1      44.094 -13.046  43.830  0.00  0.00     0.021 A 
ATOM     18  N   UNL d   1      43.717 -12.834  42.544  0.00  0.00    -0.148 N 
ATOM     19  C   UNL d   1      44.724 -13.032  44.372  0.00  0.00     0.006 A 
ENDBRANCH   1  13
TORSDOF 4
ENDMDL
MODEL 2
REMARK VINA RESULT:      20.6      2.696      5.493
REMARK  4 active torsions:
REMARK  status: ('A' for Active; 'I' for Inactive)
REMARK       I    between atoms: N_2  and  C_1 
REMARK    1  A    between atoms: C_3  and  C_1 
REMARK    2  A    between atoms: C_7  and  N_2 
REMARK    3  A    between atoms: O_17  and  C_9 
REMARK    4  A    between atoms: C_18  and  O_17 
ROOT
ATOM      1  C   UNL d   1      46.270 -19.017  42.065  0.00  0.00     0.279 C 
ATOM      2  N   UNL d   1      46.203 -18.196  41.956  0.00  0.00    -0.208 NA
ATOM      3  O   UNL d   1      46.433 -19.490  41.410  0.00  0.00    -0.265 OA
ENDROOT
BRANCH   2   4
ATOM      4  C   UNL d   1      46.040 -17.709  42.601  0.00  0.00     0.085 A 
ATOM      5  C   UNL d   1      46.625 -17.251  42.929  0.00  0.00     0.021 A 
ATOM      6  C   UNL d   1      46.462 -16.763  43.575  0.00  0.00     0.026 A 
ATOM      7  C   UNL d   1      45.715 -16.734  43.891  0.00  0.00     0.100 A 
ATOM      8  C   UNL d   1      45.089 -17.205  43.562  0.00  0.00     0.026 A 
ATOM      9  C   UNL d   1      45.272 -17.686  42.917  0.00  0.00     0.021 A 
BRANCH   7  10
ATOM     10  O   UNL d   1      45.568 -16.242  44.537  0.00  0.00    -0.305 OA
BRANCH  10  11
ATOM     11  C   UNL d   1      45.626 -15.439  44.447  0.00  0.00     0.123 C 
ATOM     12  C   UNL d   1      45.129 -14.949  44.885  0.00  0.00     0.029 C 
ENDBRANCH  10  11
ENDBRANCH   7  10
ENDBRANCH   2   4
BRANCH   1  13
ATOM     13  C   UNL d   1      46.175 -19.351  42.821  0.00  0.00     0.058 A 
ATOM     14  C   UNL d   1      45.603 -19.933  42.942  0.00  0.00     0.006 A 
ATOM     15  C   UNL d   1      45.504 -20.265  43.681  0.00  0.00     0.021 A 
ATOM     16  C   UNL d   1      45.984 -20.018  44.332  0.00  0.00     0.103 A 
ATOM     17  C   UNL d   1      46.551 -19.434  44.193  0.00  0.00     0.021 A 
ATOM     18  N   UNL d   1      45.862 -20.330  44.944  0.00  0.00    -0.148 N 
ATOM     19  C   UNL d   1      46.647 -19.100  43.439  0.00  0.00     0.006 A 
ENDBRANCH   1  13
TORSDOF 4
ENDMDL
