MODEL 1
REMARK VINA RESULT:      82.7      0.000      0.000
REMARK  10 active torsions:
REMARK  status: ('A' for Active; 'I' for Inactive)
REMARK    1  A    between atoms: C_4  and  N_1 
REMARK    2  A    between atoms: C_10  and  C_2 
REMARK    3  A    between atoms: N_16  and  C_4 
REMARK    4  A    between atoms: O_22  and  C_8 
REMARK    5  A    between atoms: O_15  and  C_10 
REMARK    6  A    between atoms: O_23  and  C_11 
REMARK    7  A    between atoms: C_14  and  O_15 
REMARK    8  A    between atoms: C_25  and  N_16 
REMARK    9  A    between atoms: O_24  and  C_28 
REMARK   10  A    between atoms: C_28  and  C_25 
ROOT
ATOM      1  N   UNL d   1     -50.519  26.598  33.999  0.00  0.00    -0.280 N 
ATOM      2  C   UNL d   1     -50.350  26.954  34.724  0.00  0.00     0.091 A 
ATOM      3  C   UNL d   1     -49.701  27.445  34.792  0.00  0.00     0.020 A 
ATOM      4  C   UNL d   1     -49.215  27.586  34.141  0.00  0.00     0.005 A 
ATOM      5  C   UNL d   1     -49.535  27.798  35.514  0.00  0.00     0.028 A 
ATOM      6  C   UNL d   1     -50.033  26.738  33.348  0.00  0.00     0.082 A 
ATOM      7  C   UNL d   1     -48.880  28.295  35.588  0.00  0.00     0.116 A 
ATOM      8  C   UNL d   1     -48.563  28.080  34.212  0.00  0.00     0.026 A 
ATOM      9  C   UNL d   1     -48.395  28.436  34.937  0.00  0.00     0.116 A 
ATOM     10  C   UNL d   1     -49.378  27.235  33.421  0.00  0.00     0.019 A 
ENDROOT
BRANCH   2  11
ATOM     11  C   UNL d   1     -50.836  26.813  35.375  0.00  0.00     0.140 C 
BRANCH  11  12
ATOM     12  O   UNL d   1     -50.534  26.426  36.038  0.00  0.00    -0.304 OA
BRANCH  12  13
ATOM     13  C   UNL d   1     -50.944  26.453  36.754  0.00  0.00     0.100 A 
ATOM     14  C   UNL d   1     -51.609  25.979  36.865  0.00  0.00     0.025 A 
ATOM     15  C   UNL d   1     -52.019  26.006  37.580  0.00  0.00     0.002 A 
ATOM     16  C   UNL d   1     -52.689  25.531  37.699  0.00  0.00     0.000 C 
ATOM     17  C   UNL d   1     -51.765  26.507  38.183  0.00  0.00     0.000 A 
ATOM     18  C   UNL d   1     -51.099  26.983  38.071  0.00  0.00     0.002 A 
ATOM     19  C   UNL d   1     -50.689  26.956  37.356  0.00  0.00     0.025 A 
ATOM     20  C   UNL d   1     -50.851  27.486  38.686  0.00  0.00     0.000 C 
ENDBRANCH  12  13
ENDBRANCH  11  12
ENDBRANCH   2  11
BRANCH   1  21
ATOM     21  C   UNL d   1     -51.178  26.096  33.920  0.00  0.00     0.206 C 
ATOM     22  S   UNL d   1     -51.945  26.399  34.043  0.00  0.00    -0.038 SA
BRANCH  21  23
ATOM     23  N   UNL d   1     -51.072  25.309  33.723  0.00  0.00    -0.215 NA
BRANCH  23  24
ATOM     24  C   UNL d   1     -51.659  24.902  33.312  0.00  0.00     0.128 C 
BRANCH  24  25
ATOM     25  C   UNL d   1     -52.035  24.256  33.661  0.00  0.00     0.137 C 
BRANCH  25  26
ATOM     26  O   UNL d   1     -52.711  23.947  33.326  0.00  0.00    -0.325 OA
ATOM     27  C   UNL d   1     -52.956  23.188  33.519  0.00  0.00     0.182 C 
ENDBRANCH  25  26
ENDBRANCH  24  25
ENDBRANCH  23  24
ENDBRANCH  21  23
ENDBRANCH   1  21
BRANCH   7  28
ATOM     28  O   UNL d   1     -48.709  28.654  36.315  0.00  0.00    -0.326 OA
ATOM     29  C   UNL d   1     -47.994  29.067  36.425  0.00  0.00     0.181 C 
ENDBRANCH   7  28
BRANCH   9  30
ATOM     30  O   UNL d   1     -47.737  28.936  35.013  0.00  0.00    -0.326 OA
ATOM     31  C   UNL d   1     -47.712  29.664  34.608  0.00  0.00     0.181 C 
ENDBRANCH   9  30
TORSDOF 10
ENDMDL
