MODEL 1
REMARK VINA RESULT:      -6.7      0.000      0.000
REMARK  5 active torsions:
REMARK  status: ('A' for Active; 'I' for Inactive)
REMARK    1  A    between atoms: N_2  and  S_1 
REMARK    2  A    between atoms: C_3  and  S_1 
REMARK    3  A    between atoms: C_4  and  N_2 
REMARK    4  A    between atoms: C_5  and  C_4 
REMARK       I    between atoms: C_8  and  N_9 
REMARK    5  A    between atoms: N_9  and  C_14 
ROOT
ATOM      1  C   UNL d   1     -47.583  13.686  22.768  0.00  0.00     0.105 A 
ATOM      2  C   UNL d   1     -47.433  13.154  22.145  0.00  0.00     0.015 A 
ATOM      3  C   UNL d   1     -46.962  14.095  23.120  0.00  0.00     0.015 A 
ATOM      4  C   UNL d   1     -46.041  13.445  22.232  0.00  0.00     0.085 A 
ATOM      5  C   UNL d   1     -46.190  13.972  22.849  0.00  0.00     0.020 A 
ATOM      6  C   UNL d   1     -46.663  13.035  21.880  0.00  0.00     0.020 A 
ENDROOT
BRANCH   1   7
ATOM      7  S   UNL d   1     -48.354  13.803  23.032  0.00  0.00     0.285 S 
ATOM      8  O   UNL d   1     -48.761  13.190  23.405  0.00  0.00    -0.198 OA
ATOM      9  O   UNL d   1     -48.138  14.526  22.696  0.00  0.00    -0.198 OA
BRANCH   7  10
ATOM     10  N   UNL d   1     -48.728  14.535  22.926  0.00  0.00    -0.150 NA
BRANCH  10  11
ATOM     11  C   UNL d   1     -49.504  14.646  23.175  0.00  0.00     0.182 C 
BRANCH  11  12
ATOM     12  C   UNL d   1     -49.872  15.377  23.081  0.00  0.00     0.232 C 
ATOM     13  O   UNL d   1     -50.235  15.559  22.363  0.00  0.00    -0.643 OA
ATOM     14  O   UNL d   1     -49.880  15.922  23.698  0.00  0.00    -0.643 OA
ENDBRANCH  11  12
ENDBRANCH  10  11
ENDBRANCH   7  10
ENDBRANCH   1   7
BRANCH   4  15
ATOM     15  N   UNL d   1     -45.266  13.328  21.967  0.00  0.00    -0.208 NA
ATOM     16  C   UNL d   1     -44.815  12.711  22.274  0.00  0.00     0.279 C 
ATOM     17  O   UNL d   1     -45.136  12.209  22.846  0.00  0.00    -0.265 OA
ATOM     18  C   UNL d   1     -44.037  12.592  22.010  0.00  0.00     0.068 C 
ENDBRANCH   4  15
TORSDOF 5
ENDMDL
MODEL 2
REMARK VINA RESULT:      -6.7      1.896      4.183
REMARK  5 active torsions:
REMARK  status: ('A' for Active; 'I' for Inactive)
REMARK    1  A    between atoms: N_2  and  S_1 
REMARK    2  A    between atoms: C_3  and  S_1 
REMARK    3  A    between atoms: C_4  and  N_2 
REMARK    4  A    between atoms: C_5  and  C_4 
REMARK       I    between atoms: C_8  and  N_9 
REMARK    5  A    between atoms: N_9  and  C_14 
ROOT
ATOM      1  C   UNL d   1     -47.018  13.316  23.004  0.00  0.00     0.105 A 
ATOM      2  C   UNL d   1     -47.602  13.814  22.681  0.00  0.00     0.015 A 
ATOM      3  C   UNL d   1     -47.236  12.640  23.418  0.00  0.00     0.015 A 
ATOM      4  C   UNL d   1     -48.618  12.955  23.191  0.00  0.00     0.085 A 
ATOM      5  C   UNL d   1     -48.039  12.461  23.511  0.00  0.00     0.020 A 
ATOM      6  C   UNL d   1     -48.399  13.632  22.776  0.00  0.00     0.020 A 
ENDROOT
BRANCH   1   7
ATOM      7  S   UNL d   1     -46.221  13.499  22.908  0.00  0.00     0.285 S 
ATOM      8  O   UNL d   1     -45.898  14.151  23.297  0.00  0.00    -0.198 OA
ATOM      9  O   UNL d   1     -46.335  12.826  22.443  0.00  0.00    -0.198 OA
BRANCH   7  10
ATOM     10  N   UNL d   1     -45.738  13.033  22.423  0.00  0.00    -0.150 NA
BRANCH  10  11
ATOM     11  C   UNL d   1     -44.971  13.273  22.244  0.00  0.00     0.182 C 
BRANCH  11  12
ATOM     12  C   UNL d   1     -44.459  12.770  21.842  0.00  0.00     0.232 C 
ATOM     13  O   UNL d   1     -44.380  12.843  21.024  0.00  0.00    -0.643 OA
ATOM     14  O   UNL d   1     -44.029  12.199  22.249  0.00  0.00    -0.643 OA
ENDBRANCH  11  12
ENDBRANCH  10  11
ENDBRANCH   7  10
ENDBRANCH   1   7
BRANCH   4  15
ATOM     15  N   UNL d   1     -49.418  12.770  23.288  0.00  0.00    -0.208 NA
ATOM     16  C   UNL d   1     -49.799  12.292  22.736  0.00  0.00     0.279 C 
ATOM     17  O   UNL d   1     -49.384  11.999  22.086  0.00  0.00    -0.265 OA
ATOM     18  C   UNL d   1     -50.603  12.105  22.831  0.00  0.00     0.068 C 
ENDBRANCH   4  15
TORSDOF 5
ENDMDL
MODEL 3
REMARK VINA RESULT:      -6.5      1.191      4.240
REMARK  5 active torsions:
REMARK  status: ('A' for Active; 'I' for Inactive)
REMARK    1  A    between atoms: N_2  and  S_1 
REMARK    2  A    between atoms: C_3  and  S_1 
REMARK    3  A    between atoms: C_4  and  N_2 
REMARK    4  A    between atoms: C_5  and  C_4 
REMARK       I    between atoms: C_8  and  N_9 
REMARK    5  A    between atoms: N_9  and  C_14 
ROOT
ATOM      1  C   UNL d   1     -47.087  13.569  22.781  0.00  0.00     0.105 A 
ATOM      2  C   UNL d   1     -47.187  14.396  22.799  0.00  0.00     0.015 A 
ATOM      3  C   UNL d   1     -47.719  13.081  22.586  0.00  0.00     0.015 A 
ATOM      4  C   UNL d   1     -48.553  14.238  22.425  0.00  0.00     0.085 A 
ATOM      5  C   UNL d   1     -48.454  13.419  22.408  0.00  0.00     0.020 A 
ATOM      6  C   UNL d   1     -47.920  14.727  22.621  0.00  0.00     0.020 A 
ENDROOT
BRANCH   1   7
ATOM      7  S   UNL d   1     -46.353  13.239  22.959  0.00  0.00     0.285 S 
ATOM      8  O   UNL d   1     -46.224  12.895  23.698  0.00  0.00    -0.198 OA
ATOM      9  O   UNL d   1     -46.271  13.523  22.187  0.00  0.00    -0.198 OA
BRANCH   7  10
ATOM     10  N   UNL d   1     -45.741  13.250  22.401  0.00  0.00    -0.150 NA
BRANCH  10  11
ATOM     11  C   UNL d   1     -45.037  12.851  22.547  0.00  0.00     0.182 C 
BRANCH  11  12
ATOM     12  C   UNL d   1     -44.412  12.895  22.013  0.00  0.00     0.232 C 
ATOM     13  O   UNL d   1     -44.057  12.200  21.747  0.00  0.00    -0.643 OA
ATOM     14  O   UNL d   1     -44.143  13.626  21.745  0.00  0.00    -0.643 OA
ENDBRANCH  11  12
ENDBRANCH  10  11
ENDBRANCH   7  10
ENDBRANCH   1   7
BRANCH   4  15
ATOM     15  N   UNL d   1     -49.291  14.568  22.246  0.00  0.00    -0.208 NA
ATOM     16  C   UNL d   1     -49.827  14.726  22.850  0.00  0.00     0.279 C 
ATOM     17  O   UNL d   1     -49.632  14.556  23.633  0.00  0.00    -0.265 OA
ATOM     18  C   UNL d   1     -50.568  15.058  22.672  0.00  0.00     0.068 C 
ENDBRANCH   4  15
TORSDOF 5
ENDMDL
MODEL 4
REMARK VINA RESULT:      -6.3      1.230      4.239
REMARK  5 active torsions:
REMARK  status: ('A' for Active; 'I' for Inactive)
REMARK    1  A    between atoms: N_2  and  S_1 
REMARK    2  A    between atoms: C_3  and  S_1 
REMARK    3  A    between atoms: C_4  and  N_2 
REMARK    4  A    between atoms: C_5  and  C_4 
REMARK       I    between atoms: C_8  and  N_9 
REMARK    5  A    between atoms: N_9  and  C_14 
ROOT
ATOM      1  C   UNL d   1     -48.430  13.460  22.408  0.00  0.00     0.105 A 
ATOM      2  C   UNL d   1     -48.865  13.928  21.872  0.00  0.00     0.015 A 
ATOM      3  C   UNL d   1     -48.671  13.401  23.192  0.00  0.00     0.015 A 
ATOM      4  C   UNL d   1     -49.777  14.271  22.912  0.00  0.00     0.085 A 
ATOM      5  C   UNL d   1     -49.347  13.808  23.442  0.00  0.00     0.020 A 
ATOM      6  C   UNL d   1     -49.536  14.331  22.126  0.00  0.00     0.020 A 
ENDROOT
BRANCH   1   7
ATOM      7  S   UNL d   1     -47.759  13.058  22.152  0.00  0.00     0.285 S 
ATOM      8  O   UNL d   1     -47.813  12.518  21.531  0.00  0.00    -0.198 OA
ATOM      9  O   UNL d   1     -47.491  13.537  22.770  0.00  0.00    -0.198 OA
BRANCH   7  10
ATOM     10  N   UNL d   1     -47.026  13.189  22.516  0.00  0.00    -0.150 NA
BRANCH  10  11
ATOM     11  C   UNL d   1     -46.360  12.772  22.274  0.00  0.00     0.182 C 
BRANCH  11  12
ATOM     12  C   UNL d   1     -45.635  12.891  22.645  0.00  0.00     0.232 C 
ATOM     13  O   UNL d   1     -45.132  13.484  22.369  0.00  0.00    -0.643 OA
ATOM     14  O   UNL d   1     -45.411  12.423  23.284  0.00  0.00    -0.643 OA
ENDBRANCH  11  12
ENDBRANCH  10  11
ENDBRANCH   7  10
ENDBRANCH   1   7
BRANCH   4  15
ATOM     15  N   UNL d   1     -50.452  14.675  23.169  0.00  0.00    -0.208 NA
ATOM     16  C   UNL d   1     -50.388  15.451  23.439  0.00  0.00     0.279 C 
ATOM     17  O   UNL d   1     -49.653  15.825  23.452  0.00  0.00    -0.265 OA
ATOM     18  C   UNL d   1     -51.064  15.858  23.698  0.00  0.00     0.068 C 
ENDBRANCH   4  15
TORSDOF 5
ENDMDL
