MODEL 1
REMARK VINA RESULT:      31.1      0.000      0.000
REMARK  4 active torsions:
REMARK  status: ('A' for Active; 'I' for Inactive)
REMARK    1  A    between atoms: S_2  and  N_1 
REMARK    2  A    between atoms: C_10  and  S_2 
REMARK    3  A    between atoms: C_7  and  C_4 
REMARK    4  A    between atoms: C_11  and  C_5 
ROOT
ATOM      1  N   UNL d   1      46.113 -17.775  43.291  0.00  0.00    -0.152 N 
ATOM      2  N   UNL d   1      46.037 -16.938  43.254  0.00  0.00    -0.155 NA
ATOM      3  C   UNL d   1      45.943 -18.015  44.068  0.00  0.00     0.099 A 
ATOM      4  C   UNL d   1      45.821 -16.653  44.004  0.00  0.00     0.104 A 
ATOM      5  C   UNL d   1      45.761 -17.313  44.509  0.00  0.00     0.041 A 
ENDROOT
BRANCH   1   6
ATOM      6  S   UNL d   1      46.316 -18.274  42.686  0.00  0.00     0.286 S 
ATOM      7  O   UNL d   1      46.647 -18.905  43.263  0.00  0.00    -0.198 OA
ATOM      8  O   UNL d   1      46.019 -17.712  42.144  0.00  0.00    -0.198 OA
BRANCH   6   9
ATOM      9  C   UNL d   1      46.421 -18.586  41.934  0.00  0.00     0.105 A 
ATOM     10  C   UNL d   1      46.496 -19.402  41.833  0.00  0.00     0.013 A 
ATOM     11  C   UNL d   1      46.603 -19.716  41.076  0.00  0.00     0.001 A 
ATOM     12  C   UNL d   1      46.631 -19.205  40.444  0.00  0.00     0.000 A 
ATOM     13  C   UNL d   1      46.559 -18.398  40.522  0.00  0.00     0.001 A 
ATOM     14  C   UNL d   1      46.453 -18.084  41.279  0.00  0.00     0.013 A 
ENDBRANCH   6   9
ENDBRANCH   1   6
BRANCH   3  15
ATOM     15  C   UNL d   1      45.948 -18.786  44.363  0.00  0.00     0.058 A 
ATOM     16  C   UNL d   1      45.244 -19.191  44.394  0.00  0.00     0.197 A 
ATOM     17  O   UNL d   1      44.536 -18.876  44.151  0.00  0.00    -0.286 OA
ATOM     18  C   UNL d   1      45.249 -19.988  44.699  0.00  0.00     0.042 A 
ATOM     19  C   UNL d   1      45.958 -20.329  44.952  0.00  0.00     0.003 A 
ATOM     20  C   UNL d   1      46.640 -19.874  44.898  0.00  0.00     0.000 A 
ATOM     21  C   UNL d   1      46.635 -19.128  44.613  0.00  0.00     0.005 A 
ENDBRANCH   3  15
BRANCH   4  22
ATOM     22  C   UNL d   1      45.695 -15.877  44.190  0.00  0.00     0.019 A 
ATOM     23  C   UNL d   1      45.087 -15.674  44.716  0.00  0.00     0.002 A 
ATOM     24  C   UNL d   1      44.960 -14.896  44.904  0.00  0.00     0.000 A 
ATOM     25  C   UNL d   1      45.416 -14.337  44.584  0.00  0.00     0.000 A 
ATOM     26  C   UNL d   1      46.012 -14.503  44.071  0.00  0.00     0.000 A 
ATOM     27  C   UNL d   1      45.269 -13.551  44.789  0.00  0.00     0.000 C 
ATOM     28  C   UNL d   1      46.160 -15.291  43.865  0.00  0.00     0.002 A 
ENDBRANCH   4  22
TORSDOF 4
ENDMDL
