MODEL 1
REMARK VINA RESULT:      -2.7      0.000      0.000
REMARK  8 active torsions:
REMARK  status: ('A' for Active; 'I' for Inactive)
REMARK    1  A    between atoms: C_6  and  N_1 
REMARK    2  A    between atoms: C_7  and  C_6 
REMARK    3  A    between atoms: C_12  and  C_7 
REMARK    4  A    between atoms: C_8  and  C_19 
REMARK    5  A    between atoms: C_9  and  C_20 
REMARK    6  A    between atoms: N_13  and  C_12 
REMARK    7  A    between atoms: C_19  and  N_13 
REMARK    8  A    between atoms: C_20  and  N_13 
ROOT
ATOM      1  N   UNL d   1      58.862  -0.840  29.104  0.00  0.00    -0.303 N 
ATOM      2  C   UNL d   1      59.047  -1.649  29.139  0.00  0.00     0.064 A 
ATOM      3  C   UNL d   1      59.564  -0.426  28.938  0.00  0.00     0.064 A 
ATOM      4  C   UNL d   1      60.180  -0.974  28.871  0.00  0.00     0.018 A 
ATOM      5  C   UNL d   1      59.866  -1.735  28.995  0.00  0.00     0.018 A 
ATOM      6  C   UNL d   1      59.716   0.379  28.841  0.00  0.00     0.018 A 
ATOM      7  C   UNL d   1      58.583  -2.316  29.283  0.00  0.00     0.018 A 
ATOM      8  C   UNL d   1      60.949  -0.717  28.707  0.00  0.00     0.002 A 
ATOM      9  C   UNL d   1      60.205  -2.480  28.997  0.00  0.00     0.002 A 
ATOM     10  C   UNL d   1      59.746  -3.145  29.139  0.00  0.00     0.000 A 
ATOM     11  C   UNL d   1      58.934  -3.064  29.282  0.00  0.00     0.002 A 
ATOM     12  C   UNL d   1      60.492   0.640  28.675  0.00  0.00     0.002 A 
ATOM     13  C   UNL d   1      61.103   0.086  28.609  0.00  0.00     0.000 A 
ENDROOT
BRANCH   1  14
ATOM     14  C   UNL d   1      58.119  -0.505  29.213  0.00  0.00     0.124 C 
BRANCH  14  15
ATOM     15  C   UNL d   1      58.076  -0.237  29.989  0.00  0.00     0.231 C 
ATOM     16  O   UNL d   1      58.285   0.562  30.053  0.00  0.00    -0.283 OA
BRANCH  15  17
ATOM     17  C   UNL d   1      57.876  -0.569  30.717  0.00  0.00     0.124 C 
BRANCH  17  18
ATOM     18  N   UNL d   1      57.568  -0.096  31.314  0.00  0.00    -0.300 N 
BRANCH  18  19
ATOM     19  C   UNL d   1      56.810  -0.245  31.606  0.00  0.00     0.080 C 
BRANCH  19  20
ATOM     20  C   UNL d   1      56.633  -0.977  31.949  0.00  0.00     0.019 C 
ATOM     21  C   UNL d   1      56.033  -1.258  32.438  0.00  0.00     0.002 C 
ENDBRANCH  19  20
ENDBRANCH  18  19
BRANCH  18  22
ATOM     22  C   UNL d   1      58.009   0.524  31.621  0.00  0.00     0.080 C 
BRANCH  22  23
ATOM     23  C   UNL d   1      58.170   0.557  32.428  0.00  0.00     0.019 C 
ATOM     24  C   UNL d   1      58.850   0.680  32.878  0.00  0.00     0.002 C 
ENDBRANCH  22  23
ENDBRANCH  18  22
ENDBRANCH  17  18
ENDBRANCH  15  17
ENDBRANCH  14  15
ENDBRANCH   1  14
TORSDOF 8
ENDMDL
MODEL 2
REMARK VINA RESULT:      -2.6      0.487      2.315
REMARK  8 active torsions:
REMARK  status: ('A' for Active; 'I' for Inactive)
REMARK    1  A    between atoms: C_6  and  N_1 
REMARK    2  A    between atoms: C_7  and  C_6 
REMARK    3  A    between atoms: C_12  and  C_7 
REMARK    4  A    between atoms: C_8  and  C_19 
REMARK    5  A    between atoms: C_9  and  C_20 
REMARK    6  A    between atoms: N_13  and  C_12 
REMARK    7  A    between atoms: C_19  and  N_13 
REMARK    8  A    between atoms: C_20  and  N_13 
ROOT
ATOM      1  N   UNL d   1      58.767  -0.591  29.486  0.00  0.00    -0.303 N 
ATOM      2  C   UNL d   1      59.508  -0.259  29.307  0.00  0.00     0.064 A 
ATOM      3  C   UNL d   1      58.839  -1.417  29.425  0.00  0.00     0.064 A 
ATOM      4  C   UNL d   1      59.617  -1.597  29.210  0.00  0.00     0.018 A 
ATOM      5  C   UNL d   1      60.038  -0.882  29.135  0.00  0.00     0.018 A 
ATOM      6  C   UNL d   1      58.293  -2.025  29.538  0.00  0.00     0.018 A 
ATOM      7  C   UNL d   1      59.769   0.523  29.277  0.00  0.00     0.018 A 
ATOM      8  C   UNL d   1      59.850  -2.384  29.108  0.00  0.00     0.002 A 
ATOM      9  C   UNL d   1      60.815  -0.714  28.938  0.00  0.00     0.002 A 
ATOM     10  C   UNL d   1      61.078   0.062  28.907  0.00  0.00     0.000 A 
ATOM     11  C   UNL d   1      60.556   0.682  29.077  0.00  0.00     0.002 A 
ATOM     12  C   UNL d   1      58.525  -2.820  29.436  0.00  0.00     0.002 A 
ATOM     13  C   UNL d   1      59.306  -2.992  29.221  0.00  0.00     0.000 A 
ENDROOT
BRANCH   1  14
ATOM     14  C   UNL d   1      58.085  -0.180  29.687  0.00  0.00     0.124 C 
BRANCH  14  15
ATOM     15  C   UNL d   1      58.111  -0.031  30.496  0.00  0.00     0.231 C 
ATOM     16  O   UNL d   1      58.512   0.673  30.668  0.00  0.00    -0.283 OA
BRANCH  15  17
ATOM     17  C   UNL d   1      57.837  -0.411  31.174  0.00  0.00     0.124 C 
BRANCH  17  18
ATOM     18  N   UNL d   1      57.528   0.028  31.795  0.00  0.00    -0.300 N 
BRANCH  18  19
ATOM     19  C   UNL d   1      58.033   0.480  32.269  0.00  0.00     0.080 C 
BRANCH  19  20
ATOM     20  C   UNL d   1      57.913   0.518  33.086  0.00  0.00     0.019 C 
ATOM     21  C   UNL d   1      58.392   0.682  33.736  0.00  0.00     0.002 C 
ENDBRANCH  19  20
ENDBRANCH  18  19
BRANCH  18  22
ATOM     22  C   UNL d   1      56.723   0.022  31.948  0.00  0.00     0.080 C 
BRANCH  22  23
ATOM     23  C   UNL d   1      56.354  -0.672  32.195  0.00  0.00     0.019 C 
ATOM     24  C   UNL d   1      55.736  -0.846  32.713  0.00  0.00     0.002 C 
ENDBRANCH  22  23
ENDBRANCH  18  22
ENDBRANCH  17  18
ENDBRANCH  15  17
ENDBRANCH  14  15
ENDBRANCH   1  14
TORSDOF 8
ENDMDL
MODEL 3
REMARK VINA RESULT:      -1.4      1.258      4.783
REMARK  8 active torsions:
REMARK  status: ('A' for Active; 'I' for Inactive)
REMARK    1  A    between atoms: C_6  and  N_1 
REMARK    2  A    between atoms: C_7  and  C_6 
REMARK    3  A    between atoms: C_12  and  C_7 
REMARK    4  A    between atoms: C_8  and  C_19 
REMARK    5  A    between atoms: C_9  and  C_20 
REMARK    6  A    between atoms: N_13  and  C_12 
REMARK    7  A    between atoms: C_19  and  N_13 
REMARK    8  A    between atoms: C_20  and  N_13 
ROOT
ATOM      1  N   UNL d   1      57.262   0.677  32.064  0.00  0.00    -0.303 N 
ATOM      2  C   UNL d   1      57.877   0.678  32.623  0.00  0.00     0.064 A 
ATOM      3  C   UNL d   1      56.542   0.674  32.479  0.00  0.00     0.064 A 
ATOM      4  C   UNL d   1      56.708   0.673  33.290  0.00  0.00     0.018 A 
ATOM      5  C   UNL d   1      57.535   0.675  33.385  0.00  0.00     0.018 A 
ATOM      6  C   UNL d   1      55.759   0.673  32.220  0.00  0.00     0.018 A 
ATOM      7  C   UNL d   1      58.698   0.680  32.540  0.00  0.00     0.018 A 
ATOM      8  C   UNL d   1      56.091   0.670  33.841  0.00  0.00     0.002 A 
ATOM      9  C   UNL d   1      58.016   0.675  34.048  0.00  0.00     0.002 A 
ATOM     10  C   UNL d   1      58.833   0.677  33.970  0.00  0.00     0.000 A 
ATOM     11  C   UNL d   1      59.175   0.680  33.215  0.00  0.00     0.002 A 
ATOM     12  C   UNL d   1      55.135   0.670  32.775  0.00  0.00     0.002 A 
ATOM     13  C   UNL d   1      55.309   0.668  33.584  0.00  0.00     0.000 A 
ENDROOT
BRANCH   1  14
ATOM     14  C   UNL d   1      57.346   0.680  31.246  0.00  0.00     0.124 C 
BRANCH  14  15
ATOM     15  C   UNL d   1      57.658  -0.049  31.024  0.00  0.00     0.231 C 
ATOM     16  O   UNL d   1      57.146  -0.673  31.208  0.00  0.00    -0.283 OA
BRANCH  15  17
ATOM     17  C   UNL d   1      58.354  -0.307  30.665  0.00  0.00     0.124 C 
BRANCH  17  18
ATOM     18  N   UNL d   1      58.330  -0.638  29.914  0.00  0.00    -0.300 N 
BRANCH  18  19
ATOM     19  C   UNL d   1      58.463  -0.162  29.251  0.00  0.00     0.080 C 
BRANCH  19  20
ATOM     20  C   UNL d   1      59.137   0.314  29.209  0.00  0.00     0.019 C 
ATOM     21  C   UNL d   1      59.610   0.597  28.597  0.00  0.00     0.002 C 
ENDBRANCH  19  20
ENDBRANCH  18  19
BRANCH  18  22
ATOM     22  C   UNL d   1      58.175  -1.437  29.818  0.00  0.00     0.080 C 
BRANCH  22  23
ATOM     23  C   UNL d   1      58.706  -1.915  29.408  0.00  0.00     0.019 C 
ATOM     24  C   UNL d   1      58.709  -2.705  29.170  0.00  0.00     0.002 C 
ENDBRANCH  22  23
ENDBRANCH  18  22
ENDBRANCH  17  18
ENDBRANCH  15  17
ENDBRANCH  14  15
ENDBRANCH   1  14
TORSDOF 8
ENDMDL
MODEL 4
REMARK VINA RESULT:      -0.8      1.792      5.268
REMARK  8 active torsions:
REMARK  status: ('A' for Active; 'I' for Inactive)
REMARK    1  A    between atoms: C_6  and  N_1 
REMARK    2  A    between atoms: C_7  and  C_6 
REMARK    3  A    between atoms: C_12  and  C_7 
REMARK    4  A    between atoms: C_8  and  C_19 
REMARK    5  A    between atoms: C_9  and  C_20 
REMARK    6  A    between atoms: N_13  and  C_12 
REMARK    7  A    between atoms: C_19  and  N_13 
REMARK    8  A    between atoms: C_20  and  N_13 
ROOT
ATOM      1  N   UNL d   1      56.475   0.606  32.759  0.00  0.00    -0.303 N 
ATOM      2  C   UNL d   1      57.099   0.633  33.308  0.00  0.00     0.064 A 
ATOM      3  C   UNL d   1      55.762   0.589  33.186  0.00  0.00     0.064 A 
ATOM      4  C   UNL d   1      55.941   0.606  33.994  0.00  0.00     0.018 A 
ATOM      5  C   UNL d   1      56.769   0.633  34.076  0.00  0.00     0.018 A 
ATOM      6  C   UNL d   1      54.975   0.561  32.940  0.00  0.00     0.018 A 
ATOM      7  C   UNL d   1      57.918   0.657  33.212  0.00  0.00     0.018 A 
ATOM      8  C   UNL d   1      55.333   0.594  34.555  0.00  0.00     0.002 A 
ATOM      9  C   UNL d   1      57.260   0.657  34.731  0.00  0.00     0.002 A 
ATOM     10  C   UNL d   1      58.075   0.681  34.639  0.00  0.00     0.000 A 
ATOM     11  C   UNL d   1      58.405   0.681  33.879  0.00  0.00     0.002 A 
ATOM     12  C   UNL d   1      54.360   0.550  33.504  0.00  0.00     0.002 A 
ATOM     13  C   UNL d   1      54.547   0.566  34.311  0.00  0.00     0.000 A 
ENDROOT
BRANCH   1  14
ATOM     14  C   UNL d   1      56.547   0.597  31.940  0.00  0.00     0.124 C 
BRANCH  14  15
ATOM     15  C   UNL d   1      56.861  -0.131  31.724  0.00  0.00     0.231 C 
ATOM     16  O   UNL d   1      56.348  -0.756  31.904  0.00  0.00    -0.283 OA
BRANCH  15  17
ATOM     17  C   UNL d   1      57.561  -0.390  31.372  0.00  0.00     0.124 C 
BRANCH  17  18
ATOM     18  N   UNL d   1      57.623  -0.420  30.554  0.00  0.00    -0.300 N 
BRANCH  18  19
ATOM     19  C   UNL d   1      57.676   0.282  30.120  0.00  0.00     0.080 C 
BRANCH  19  20
ATOM     20  C   UNL d   1      58.385   0.488  29.749  0.00  0.00     0.019 C 
ATOM     21  C   UNL d   1      58.601   0.679  28.977  0.00  0.00     0.002 C 
ENDBRANCH  19  20
ENDBRANCH  18  19
BRANCH  18  22
ATOM     22  C   UNL d   1      57.633  -1.142  30.165  0.00  0.00     0.080 C 
BRANCH  22  23
ATOM     23  C   UNL d   1      58.310  -1.612  30.182  0.00  0.00     0.019 C 
ATOM     24  C   UNL d   1      58.550  -2.296  29.788  0.00  0.00     0.002 C 
ENDBRANCH  22  23
ENDBRANCH  18  22
ENDBRANCH  17  18
ENDBRANCH  15  17
ENDBRANCH  14  15
ENDBRANCH   1  14
TORSDOF 8
ENDMDL
MODEL 5
REMARK VINA RESULT:      -0.5      1.786      2.568
REMARK  8 active torsions:
REMARK  status: ('A' for Active; 'I' for Inactive)
REMARK    1  A    between atoms: C_6  and  N_1 
REMARK    2  A    between atoms: C_7  and  C_6 
REMARK    3  A    between atoms: C_12  and  C_7 
REMARK    4  A    between atoms: C_8  and  C_19 
REMARK    5  A    between atoms: C_9  and  C_20 
REMARK    6  A    between atoms: N_13  and  C_12 
REMARK    7  A    between atoms: C_19  and  N_13 
REMARK    8  A    between atoms: C_20  and  N_13 
ROOT
ATOM      1  N   UNL d   1      58.355   0.609  30.767  0.00  0.00    -0.303 N 
ATOM      2  C   UNL d   1      58.523   0.534  29.957  0.00  0.00     0.064 A 
ATOM      3  C   UNL d   1      59.079   0.618  31.176  0.00  0.00     0.064 A 
ATOM      4  C   UNL d   1      59.692   0.549  30.624  0.00  0.00     0.018 A 
ATOM      5  C   UNL d   1      59.353   0.496  29.865  0.00  0.00     0.018 A 
ATOM      6  C   UNL d   1      59.255   0.680  31.979  0.00  0.00     0.018 A 
ATOM      7  C   UNL d   1      58.034   0.495  29.293  0.00  0.00     0.018 A 
ATOM      8  C   UNL d   1      60.480   0.542  30.875  0.00  0.00     0.002 A 
ATOM      9  C   UNL d   1      59.678   0.420  29.117  0.00  0.00     0.002 A 
ATOM     10  C   UNL d   1      59.195   0.381  28.456  0.00  0.00     0.000 A 
ATOM     11  C   UNL d   1      58.372   0.418  28.543  0.00  0.00     0.002 A 
ATOM     12  C   UNL d   1      60.049   0.673  32.235  0.00  0.00     0.002 A 
ATOM     13  C   UNL d   1      60.657   0.604  31.677  0.00  0.00     0.000 A 
ENDROOT
BRANCH   1  14
ATOM     14  C   UNL d   1      57.609   0.665  31.107  0.00  0.00     0.124 C 
BRANCH  14  15
ATOM     15  C   UNL d   1      57.381  -0.091  31.338  0.00  0.00     0.231 C 
ATOM     16  O   UNL d   1      57.359  -0.617  30.699  0.00  0.00    -0.283 OA
BRANCH  15  17
ATOM     17  C   UNL d   1      57.171  -0.451  32.049  0.00  0.00     0.124 C 
BRANCH  17  18
ATOM     18  N   UNL d   1      56.385  -0.460  32.289  0.00  0.00    -0.300 N 
BRANCH  18  19
ATOM     19  C   UNL d   1      56.007  -1.181  32.431  0.00  0.00     0.080 C 
BRANCH  19  20
ATOM     20  C   UNL d   1      55.950  -1.475  33.202  0.00  0.00     0.019 C 
ATOM     21  C   UNL d   1      55.514  -2.074  33.563  0.00  0.00     0.002 C 
ENDBRANCH  19  20
ENDBRANCH  18  19
BRANCH  18  22
ATOM     22  C   UNL d   1      55.974   0.243  32.387  0.00  0.00     0.080 C 
BRANCH  22  23
ATOM     23  C   UNL d   1      55.811   0.524  33.144  0.00  0.00     0.019 C 
ATOM     24  C   UNL d   1      55.127   0.592  33.601  0.00  0.00     0.002 C 
ENDBRANCH  22  23
ENDBRANCH  18  22
ENDBRANCH  17  18
ENDBRANCH  15  17
ENDBRANCH  14  15
ENDBRANCH   1  14
TORSDOF 8
ENDMDL
