MODEL 1
REMARK VINA RESULT:      -3.6      0.000      0.000
REMARK  1 active torsions:
REMARK  status: ('A' for Active; 'I' for Inactive)
REMARK    1  A    between atoms: C_9  and  C_5 
ROOT
ATOM      1  C   UNL d   1     -41.614-122.416 -53.195  0.00  0.00     0.062 A 
ATOM      2  C   UNL d   1     -41.444-123.066 -52.743  0.00  0.00     0.197 A 
ATOM      3  C   UNL d   1     -41.719-121.665 -52.810  0.00  0.00     0.044 A 
ATOM      4  C   UNL d   1     -41.681-122.496 -54.021  0.00  0.00     0.112 A 
ATOM      5  C   UNL d   1     -41.857-121.806 -54.453  0.00  0.00     0.084 A 
ATOM      6  C   UNL d   1     -41.651-121.598 -51.991  0.00  0.00     0.196 A 
ATOM      7  C   UNL d   1     -41.369-123.012 -51.897  0.00  0.00     0.042 A 
ATOM      8  C   UNL d   1     -41.472-122.288 -51.527  0.00  0.00     0.042 A 
ATOM      9  C   UNL d   1     -41.893-120.988 -53.249  0.00  0.00     0.004 A 
ATOM     10  C   UNL d   1     -41.967-121.023 -54.052  0.00  0.00     0.008 A 
ATOM     11  O   UNL d   1     -41.338-123.817 -53.127  0.00  0.00    -0.286 OA
ATOM     12  O   UNL d   1     -41.757-120.841 -51.604  0.00  0.00    -0.287 OA
ATOM     13  N   UNL d   1     -41.581-123.207 -54.385  0.00  0.00    -0.148 N 
ATOM     14  C   UNL d   1     -41.196-123.688 -51.459  0.00  0.00     0.003 A 
ATOM     15  C   UNL d   1     -41.403-122.220 -50.708  0.00  0.00     0.003 A 
ATOM     16  C   UNL d   1     -41.123-123.648 -50.653  0.00  0.00     0.000 A 
ATOM     17  C   UNL d   1     -41.229-122.897 -50.269  0.00  0.00     0.000 A 
ENDROOT
BRANCH   5  18
ATOM     18  C   UNL d   1     -41.919-121.902 -55.262  0.00  0.00     0.212 C 
ATOM     19  O   UNL d   1     -41.228-121.949 -55.684  0.00  0.00    -0.644 OA
ATOM     20  O   UNL d   1     -42.674-121.948 -55.618  0.00  0.00    -0.644 OA
ENDBRANCH   5  18
TORSDOF 1
ENDMDL
MODEL 2
REMARK VINA RESULT:      -2.6      1.279      3.352
REMARK  1 active torsions:
REMARK  status: ('A' for Active; 'I' for Inactive)
REMARK    1  A    between atoms: C_9  and  C_5 
ROOT
ATOM      1  C   UNL d   1     -41.680-122.596 -52.534  0.00  0.00     0.062 A 
ATOM      2  C   UNL d   1     -41.443-123.042 -53.167  0.00  0.00     0.197 A 
ATOM      3  C   UNL d   1     -41.999-121.821 -52.674  0.00  0.00     0.044 A 
ATOM      4  C   UNL d   1     -41.607-122.904 -51.763  0.00  0.00     0.112 A 
ATOM      5  C   UNL d   1     -41.860-122.417 -51.138  0.00  0.00     0.084 A 
ATOM      6  C   UNL d   1     -42.067-121.526 -53.441  0.00  0.00     0.196 A 
ATOM      7  C   UNL d   1     -41.507-122.751 -53.964  0.00  0.00     0.042 A 
ATOM      8  C   UNL d   1     -41.815-122.003 -54.099  0.00  0.00     0.042 A 
ATOM      9  C   UNL d   1     -42.247-121.347 -52.045  0.00  0.00     0.004 A 
ATOM     10  C   UNL d   1     -42.193-121.608 -51.284  0.00  0.00     0.008 A 
ATOM     11  O   UNL d   1     -41.124-123.817 -53.027  0.00  0.00    -0.286 OA
ATOM     12  O   UNL d   1     -42.388-120.744 -53.583  0.00  0.00    -0.287 OA
ATOM     13  N   UNL d   1     -41.304-123.638 -51.630  0.00  0.00    -0.148 N 
ATOM     14  C   UNL d   1     -41.258-123.224 -54.592  0.00  0.00     0.003 A 
ATOM     15  C   UNL d   1     -41.882-121.708 -54.866  0.00  0.00     0.003 A 
ATOM     16  C   UNL d   1     -41.315-122.956 -55.355  0.00  0.00     0.000 A 
ATOM     17  C   UNL d   1     -41.634-122.181 -55.495  0.00  0.00     0.000 A 
ENDROOT
BRANCH   5  18
ATOM     18  C   UNL d   1     -41.782-122.735 -50.389  0.00  0.00     0.212 C 
ATOM     19  O   UNL d   1     -42.358-123.249 -50.143  0.00  0.00    -0.644 OA
ATOM     20  O   UNL d   1     -41.126-122.524 -49.915  0.00  0.00    -0.644 OA
ENDBRANCH   5  18
TORSDOF 1
ENDMDL
