MODEL 1
REMARK VINA RESULT:      24.1      0.000      0.000
REMARK  4 active torsions:
REMARK  status: ('A' for Active; 'I' for Inactive)
REMARK    1  A    between atoms: C_2  and  C_1 
REMARK       I    between atoms: N_9  and  C_2 
REMARK    2  A    between atoms: C_16  and  N_9 
REMARK    3  A    between atoms: C_13  and  C_16 
REMARK    4  A    between atoms: O_17  and  C_13 
ROOT
ATOM      1  C   UNL d   1      14.240  12.406  -1.605  0.00  0.00     0.073 A 
ATOM      2  C   UNL d   1      14.381  13.752  -1.847  0.00  0.00     0.001 A 
ATOM      3  C   UNL d   1      15.039  12.563  -0.685  0.00  0.00     0.001 A 
ATOM      4  C   UNL d   1      15.078  13.163  -0.821  0.00  0.00     0.001 A 
ATOM      5  C   UNL d   1      14.769  11.964  -0.828  0.00  0.00     0.009 A 
ATOM      6  C   UNL d   1      14.054  13.050  -2.028  0.00  0.00     0.009 A 
ATOM      7  C   UNL d   1      14.754  12.460  -0.998  0.00  0.00     0.009 A 
ATOM      8  C   UNL d   1      15.530  12.828  -0.170  0.00  0.00     0.000 A 
ATOM      9  C   UNL d   1      14.792  13.418  -1.246  0.00  0.00     0.000 A 
ATOM     10  C   UNL d   1      14.891  13.807  -1.244  0.00  0.00     0.000 A 
ATOM     11  C   UNL d   1      15.210  13.980  -0.910  0.00  0.00     0.000 C 
ATOM     12  C   UNL d   1      15.072  11.784  -0.406  0.00  0.00     0.000 C 
ATOM     13  C   UNL d   1      14.059  14.288  -2.401  0.00  0.00     0.000 C 
ENDROOT
BRANCH   1  14
ATOM     14  C   UNL d   1      13.699  12.237  -2.210  0.00  0.00     0.255 C 
ATOM     15  N   UNL d   1      13.971  11.947  -2.945  0.00  0.00    -0.205 NA
ATOM     16  O   UNL d   1      12.888  12.354  -2.094  0.00  0.00    -0.270 OA
BRANCH  15  17
ATOM     17  C   UNL d   1      13.430  11.780  -3.546  0.00  0.00     0.170 C 
BRANCH  17  18
ATOM     18  C   UNL d   1      13.470  12.181  -4.266  0.00  0.00     0.316 C 
ATOM     19  O   UNL d   1      13.250  12.976  -4.312  0.00  0.00    -0.257 OA
BRANCH  18  20
ATOM     20  O   UNL d   1      13.734  11.782  -4.944  0.00  0.00    -0.295 OA
ATOM     21  C   UNL d   1      13.309  11.839  -5.650  0.00  0.00     0.185 C 
ENDBRANCH  18  20
ENDBRANCH  17  18
ENDBRANCH  15  17
ENDBRANCH   1  14
TORSDOF 4
ENDMDL
MODEL 2
REMARK VINA RESULT:      26.3      2.910      3.612
REMARK  4 active torsions:
REMARK  status: ('A' for Active; 'I' for Inactive)
REMARK    1  A    between atoms: C_2  and  C_1 
REMARK       I    between atoms: N_9  and  C_2 
REMARK    2  A    between atoms: C_16  and  N_9 
REMARK    3  A    between atoms: C_13  and  C_16 
REMARK    4  A    between atoms: O_17  and  C_13 
ROOT
ATOM      1  C   UNL d   1      14.613  13.724  -0.042  0.00  0.00     0.073 A 
ATOM      2  C   UNL d   1      15.665  12.839  -0.078  0.00  0.00     0.001 A 
ATOM      3  C   UNL d   1      13.880  12.738  -0.040  0.00  0.00     0.001 A 
ATOM      4  C   UNL d   1      14.375  12.371  -0.056  0.00  0.00     0.001 A 
ATOM      5  C   UNL d   1      13.639  13.365  -0.026  0.00  0.00     0.009 A 
ATOM      6  C   UNL d   1      15.394  13.586  -0.061  0.00  0.00     0.009 A 
ATOM      7  C   UNL d   1      14.099  13.115  -0.039  0.00  0.00     0.009 A 
ATOM      8  C   UNL d   1      13.579  12.041  -0.043  0.00  0.00     0.000 A 
ATOM      9  C   UNL d   1      14.916  12.555  -0.066  0.00  0.00     0.000 A 
ATOM     10  C   UNL d   1      15.155  12.233  -0.076  0.00  0.00     0.000 A 
ATOM     11  C   UNL d   1      14.961  11.780  -0.078  0.00  0.00     0.000 C 
ATOM     12  C   UNL d   1      13.147  13.121  -0.018  0.00  0.00     0.000 C 
ATOM     13  C   UNL d   1      16.496  12.912  -0.096  0.00  0.00     0.000 C 
ENDROOT
BRANCH   1  14
ATOM     14  C   UNL d   1      15.055  14.426  -0.042  0.00  0.00     0.255 C 
ATOM     15  N   UNL d   1      14.665  15.164  -0.064  0.00  0.00    -0.205 NA
ATOM     16  O   UNL d   1      15.881  14.403  -0.019  0.00  0.00    -0.270 OA
BRANCH  15  17
ATOM     17  C   UNL d   1      15.106  15.863  -0.064  0.00  0.00     0.170 C 
BRANCH  17  18
ATOM     18  C   UNL d   1      15.174  16.312  -0.752  0.00  0.00     0.316 C 
ATOM     19  O   UNL d   1      15.706  16.943  -0.787  0.00  0.00    -0.257 OA
BRANCH  18  20
ATOM     20  O   UNL d   1      14.705  16.126  -1.412  0.00  0.00    -0.295 OA
ATOM     21  C   UNL d   1      14.910  16.410  -2.159  0.00  0.00     0.185 C 
ENDBRANCH  18  20
ENDBRANCH  17  18
ENDBRANCH  15  17
ENDBRANCH   1  14
TORSDOF 4
ENDMDL
MODEL 3
REMARK VINA RESULT:      26.6      1.857      3.857
REMARK  4 active torsions:
REMARK  status: ('A' for Active; 'I' for Inactive)
REMARK    1  A    between atoms: C_2  and  C_1 
REMARK       I    between atoms: N_9  and  C_2 
REMARK    2  A    between atoms: C_16  and  N_9 
REMARK    3  A    between atoms: C_13  and  C_16 
REMARK    4  A    between atoms: O_17  and  C_13 
ROOT
ATOM      1  C   UNL d   1      13.805  13.481  -3.179  0.00  0.00     0.073 A 
ATOM      2  C   UNL d   1      13.617  12.201  -2.713  0.00  0.00     0.001 A 
ATOM      3  C   UNL d   1      13.172  13.133  -4.173  0.00  0.00     0.001 A 
ATOM      4  C   UNL d   1      13.107  12.569  -3.933  0.00  0.00     0.001 A 
ATOM      5  C   UNL d   1      13.417  13.755  -4.103  0.00  0.00     0.009 A 
ATOM      6  C   UNL d   1      13.913  12.933  -2.616  0.00  0.00     0.009 A 
ATOM      7  C   UNL d   1      13.400  13.301  -3.842  0.00  0.00     0.009 A 
ATOM      8  C   UNL d   1      12.773  12.763  -4.703  0.00  0.00     0.000 A 
ATOM      9  C   UNL d   1      13.315  12.406  -3.426  0.00  0.00     0.000 A 
ATOM     10  C   UNL d   1      13.215  12.021  -3.371  0.00  0.00     0.000 A 
ATOM     11  C   UNL d   1      12.956  11.780  -3.714  0.00  0.00     0.000 C 
ATOM     12  C   UNL d   1      13.191  13.844  -4.596  0.00  0.00     0.000 C 
ATOM     13  C   UNL d   1      13.837  11.788  -2.022  0.00  0.00     0.000 C 
ENDROOT
BRANCH   1  14
ATOM     14  C   UNL d   1      14.238  13.775  -2.536  0.00  0.00     0.255 C 
ATOM     15  N   UNL d   1      14.335  14.599  -2.439  0.00  0.00    -0.205 NA
ATOM     16  O   UNL d   1      14.575  13.258  -1.985  0.00  0.00    -0.270 OA
BRANCH  15  17
ATOM     17  C   UNL d   1      14.766  14.890  -1.798  0.00  0.00     0.170 C 
BRANCH  17  18
ATOM     18  C   UNL d   1      14.784  15.700  -1.642  0.00  0.00     0.316 C 
ATOM     19  O   UNL d   1      14.355  16.225  -2.112  0.00  0.00    -0.257 OA
BRANCH  18  20
ATOM     20  O   UNL d   1      15.238  15.985  -1.007  0.00  0.00    -0.295 OA
ATOM     21  C   UNL d   1      15.539  16.753  -1.025  0.00  0.00     0.185 C 
ENDBRANCH  18  20
ENDBRANCH  17  18
ENDBRANCH  15  17
ENDBRANCH   1  14
TORSDOF 4
ENDMDL
