MODEL 1
REMARK VINA RESULT:       9.9      0.000      0.000
REMARK  5 active torsions:
REMARK  status: ('A' for Active; 'I' for Inactive)
REMARK    1  A    between atoms: C_3  and  S_1 
REMARK    2  A    between atoms: N_2  and  C_4 
REMARK    3  A    between atoms: N_5  and  C_16 
REMARK    4  A    between atoms: C_11  and  N_5 
REMARK    5  A    between atoms: C_17  and  C_11 
ROOT
ATOM      1  N   UNL d   1      46.194 -16.683  44.638  0.00  0.00    -0.244 NA
ENDROOT
BRANCH   1   2
ATOM      2  C   UNL d   1      46.231 -17.420  44.259  0.00  0.00     0.082 A 
ATOM      3  C   UNL d   1      46.285 -18.106  44.692  0.00  0.00     0.020 A 
ATOM      4  C   UNL d   1      46.323 -18.840  44.317  0.00  0.00     0.015 A 
ATOM      5  C   UNL d   1      46.304 -18.862  43.493  0.00  0.00     0.107 A 
ATOM      6  C   UNL d   1      46.249 -18.176  43.060  0.00  0.00     0.015 A 
ATOM      7  C   UNL d   1      46.212 -17.442  43.434  0.00  0.00     0.020 A 
BRANCH   5   8
ATOM      8  S   UNL d   1      46.341 -19.602  43.109  0.00  0.00     0.302 S 
ATOM      9  O   UNL d   1      46.449 -19.215  42.383  0.00  0.00    -0.197 OA
ATOM     10  O   UNL d   1      46.380 -20.330  42.717  0.00  0.00    -0.197 OA
ATOM     11  N   UNL d   1      46.234 -19.983  43.829  0.00  0.00    -0.043 N 
ENDBRANCH   5   8
ENDBRANCH   1   2
BRANCH   1  12
ATOM     12  C   UNL d   1      45.512 -16.240  44.615  0.00  0.00     0.099 C 
BRANCH  12  13
ATOM     13  C   UNL d   1      45.540 -15.414  44.563  0.00  0.00     0.019 A 
ATOM     14  C   UNL d   1      44.818 -14.993  44.592  0.00  0.00     0.003 A 
ATOM     15  C   UNL d   1      44.845 -14.167  44.540  0.00  0.00     0.024 A 
ATOM     16  C   UNL d   1      45.577 -13.761  44.460  0.00  0.00     0.127 A 
ATOM     17  C   UNL d   1      46.266 -14.189  44.435  0.00  0.00     0.024 A 
ATOM     18  C   UNL d   1      46.272 -15.008  44.484  0.00  0.00     0.003 A 
BRANCH  16  19
ATOM     19  N   UNL d   1      45.620 -12.940  44.407  0.00  0.00    -0.114 N 
ATOM     20  O   UNL d   1      46.089 -12.517  44.955  0.00  0.00    -0.532 OA
ATOM     21  O   UNL d   1      45.199 -12.544  43.812  0.00  0.00    -0.532 OA
ENDBRANCH  16  19
ENDBRANCH  12  13
ENDBRANCH   1  12
TORSDOF 5
ENDMDL
