MODEL 1
REMARK VINA RESULT:      -9.1      0.000      0.000
REMARK  4 active torsions:
REMARK  status: ('A' for Active; 'I' for Inactive)
REMARK    1  A    between atoms: C_10  and  C_4 
REMARK       I    between atoms: N_11  and  C_10 
REMARK    2  A    between atoms: C_12  and  C_19 
REMARK    3  A    between atoms: O_26  and  C_12 
REMARK    4  A    between atoms: C_27  and  O_26 
ROOT
ATOM      1  C   UNL d   1      52.485  33.454  53.503  0.00  0.00     0.154 A 
ATOM      2  C   UNL d   1      52.585  34.268  53.574  0.00  0.00     0.093 A 
ATOM      3  N   UNL d   1      52.961  32.938  53.952  0.00  0.00    -0.211 NA
ATOM      4  C   UNL d   1      51.611  34.046  52.687  0.00  0.00     0.122 A 
ATOM      5  N   UNL d   1      51.886  33.317  52.958  0.00  0.00    -0.285 N 
ATOM      6  C   UNL d   1      53.156  34.575  54.089  0.00  0.00     0.269 A 
ATOM      7  N   UNL d   1      53.627  34.069  54.533  0.00  0.00    -0.259 N 
ATOM      8  C   UNL d   1      53.531  33.241  54.466  0.00  0.00     0.140 A 
ATOM      9  C   UNL d   1      52.047  34.631  53.072  0.00  0.00     0.030 A 
ATOM     10  C   UNL d   1      54.196  34.372  55.047  0.00  0.00     0.084 A 
ATOM     11  O   UNL d   1      53.253  35.395  54.158  0.00  0.00    -0.266 OA
ATOM     12  C   UNL d   1      53.996  32.735  54.904  0.00  0.00     0.064 A 
ATOM     13  C   UNL d   1      54.663  33.859  55.488  0.00  0.00     0.018 A 
ATOM     14  C   UNL d   1      54.562  33.032  55.416  0.00  0.00    -0.008 A 
ATOM     15  C   UNL d   1      51.608  32.573  52.721  0.00  0.00     0.101 C 
ENDROOT
BRANCH   4  16
ATOM     16  C   UNL d   1      51.009  34.168  52.132  0.00  0.00     0.281 C 
ATOM     17  N   UNL d   1      50.307  34.533  52.364  0.00  0.00    -0.271 N 
ATOM     18  C   UNL d   1      50.201  34.777  53.143  0.00  0.00     0.083 A 
ATOM     19  C   UNL d   1      49.705  34.655  51.809  0.00  0.00     0.083 A 
ATOM     20  C   UNL d   1      49.500  35.140  53.369  0.00  0.00     0.025 A 
ATOM     21  C   UNL d   1      48.897  35.263  52.814  0.00  0.00     0.067 A 
ATOM     22  C   UNL d   1      49.001  35.021  52.038  0.00  0.00     0.025 A 
ATOM     23  O   UNL d   1      51.114  33.925  51.354  0.00  0.00    -0.265 OA
BRANCH  21  24
ATOM     24  C   UNL d   1      48.192  35.628  53.042  0.00  0.00     0.300 C 
ATOM     25  O   UNL d   1      47.575  35.704  52.495  0.00  0.00    -0.259 OA
BRANCH  24  26
ATOM     26  O   UNL d   1      48.106  35.915  53.809  0.00  0.00    -0.271 OA
BRANCH  26  27
ATOM     27  C   UNL d   1      47.409  36.294  54.023  0.00  0.00     0.126 C 
ATOM     28  C   UNL d   1      47.284  36.503  54.814  0.00  0.00     0.029 C 
ENDBRANCH  26  27
ENDBRANCH  24  26
ENDBRANCH  21  24
ENDBRANCH   4  16
TORSDOF 4
ENDMDL
MODEL 2
REMARK VINA RESULT:      -8.6      2.183      3.320
REMARK  4 active torsions:
REMARK  status: ('A' for Active; 'I' for Inactive)
REMARK    1  A    between atoms: C_10  and  C_4 
REMARK       I    between atoms: N_11  and  C_10 
REMARK    2  A    between atoms: C_12  and  C_19 
REMARK    3  A    between atoms: O_26  and  C_12 
REMARK    4  A    between atoms: C_27  and  O_26 
ROOT
ATOM      1  C   UNL d   1      53.292  31.460  54.080  0.00  0.00     0.154 A 
ATOM      2  C   UNL d   1      53.019  31.237  53.336  0.00  0.00     0.093 A 
ATOM      3  N   UNL d   1      53.500  30.876  54.636  0.00  0.00    -0.211 NA
ATOM      4  C   UNL d   1      53.032  32.572  53.390  0.00  0.00     0.122 A 
ATOM      5  N   UNL d   1      53.300  32.281  54.113  0.00  0.00    -0.285 N 
ATOM      6  C   UNL d   1      52.950  30.436  53.139  0.00  0.00     0.269 A 
ATOM      7  N   UNL d   1      53.154  29.857  53.685  0.00  0.00    -0.259 N 
ATOM      8  C   UNL d   1      53.432  30.076  54.443  0.00  0.00     0.140 A 
ATOM      9  C   UNL d   1      52.859  31.921  52.912  0.00  0.00     0.030 A 
ATOM     10  C   UNL d   1      53.087  29.058  53.492  0.00  0.00     0.084 A 
ATOM     11  O   UNL d   1      52.675  30.216  52.389  0.00  0.00    -0.266 OA
ATOM     12  C   UNL d   1      53.636  29.506  54.988  0.00  0.00     0.064 A 
ATOM     13  C   UNL d   1      53.294  28.485  54.045  0.00  0.00     0.018 A 
ATOM     14  C   UNL d   1      53.571  28.711  54.800  0.00  0.00    -0.008 A 
ATOM     15  C   UNL d   1      53.537  32.736  54.764  0.00  0.00     0.101 C 
ENDROOT
BRANCH   4  16
ATOM     16  C   UNL d   1      52.951  33.369  53.181  0.00  0.00     0.281 C 
ATOM     17  N   UNL d   1      52.202  33.679  53.033  0.00  0.00    -0.271 N 
ATOM     18  C   UNL d   1      51.533  33.201  53.091  0.00  0.00     0.083 A 
ATOM     19  C   UNL d   1      52.121  34.476  52.824  0.00  0.00     0.083 A 
ATOM     20  C   UNL d   1      50.789  33.516  52.942  0.00  0.00     0.025 A 
ATOM     21  C   UNL d   1      50.708  34.313  52.733  0.00  0.00     0.067 A 
ATOM     22  C   UNL d   1      51.372  34.790  52.675  0.00  0.00     0.025 A 
ATOM     23  O   UNL d   1      53.618  33.846  53.122  0.00  0.00    -0.265 OA
BRANCH  21  24
ATOM     24  C   UNL d   1      49.959  34.628  52.584  0.00  0.00     0.300 C 
ATOM     25  O   UNL d   1      49.582  35.081  53.166  0.00  0.00    -0.259 OA
BRANCH  24  26
ATOM     26  O   UNL d   1      49.591  34.491  51.861  0.00  0.00    -0.271 OA
BRANCH  26  27
ATOM     27  C   UNL d   1      48.849  34.812  51.717  0.00  0.00     0.126 C 
ATOM     28  C   UNL d   1      48.505  34.728  50.968  0.00  0.00     0.029 C 
ENDBRANCH  26  27
ENDBRANCH  24  26
ENDBRANCH  21  24
ENDBRANCH   4  16
TORSDOF 4
ENDMDL
MODEL 3
REMARK VINA RESULT:      -8.5      1.876      5.369
REMARK  4 active torsions:
REMARK  status: ('A' for Active; 'I' for Inactive)
REMARK    1  A    between atoms: C_10  and  C_4 
REMARK       I    between atoms: N_11  and  C_10 
REMARK    2  A    between atoms: C_12  and  C_19 
REMARK    3  A    between atoms: O_26  and  C_12 
REMARK    4  A    between atoms: C_27  and  O_26 
ROOT
ATOM      1  C   UNL d   1      50.492  34.714  52.982  0.00  0.00     0.154 A 
ATOM      2  C   UNL d   1      50.519  34.390  52.225  0.00  0.00     0.093 A 
ATOM      3  N   UNL d   1      49.807  35.114  53.237  0.00  0.00    -0.211 NA
ATOM      4  C   UNL d   1      51.685  34.136  52.826  0.00  0.00     0.122 A 
ATOM      5  N   UNL d   1      51.209  34.558  53.351  0.00  0.00    -0.285 N 
ATOM      6  C   UNL d   1      49.869  34.461  51.717  0.00  0.00     0.269 A 
ATOM      7  N   UNL d   1      49.192  34.855  51.966  0.00  0.00    -0.259 N 
ATOM      8  C   UNL d   1      49.157  35.186  52.733  0.00  0.00     0.140 A 
ATOM      9  C   UNL d   1      51.253  34.036  52.130  0.00  0.00     0.030 A 
ATOM     10  C   UNL d   1      48.542  34.927  51.463  0.00  0.00     0.084 A 
ATOM     11  O   UNL d   1      49.900  34.134  50.957  0.00  0.00    -0.266 OA
ATOM     12  C   UNL d   1      48.488  35.577  52.984  0.00  0.00     0.064 A 
ATOM     13  C   UNL d   1      47.868  35.322  51.719  0.00  0.00     0.018 A 
ATOM     14  C   UNL d   1      47.841  35.651  52.487  0.00  0.00    -0.008 A 
ATOM     15  C   UNL d   1      51.417  34.786  54.121  0.00  0.00     0.101 C 
ENDROOT
BRANCH   4  16
ATOM     16  C   UNL d   1      52.454  33.865  52.969  0.00  0.00     0.281 C 
ATOM     17  N   UNL d   1      52.601  33.055  53.009  0.00  0.00    -0.271 N 
ATOM     18  C   UNL d   1      51.988  32.514  52.906  0.00  0.00     0.083 A 
ATOM     19  C   UNL d   1      53.370  32.784  53.152  0.00  0.00     0.083 A 
ATOM     20  C   UNL d   1      52.141  31.708  52.947  0.00  0.00     0.025 A 
ATOM     21  C   UNL d   1      52.910  31.436  53.090  0.00  0.00     0.067 A 
ATOM     22  C   UNL d   1      53.521  31.973  53.192  0.00  0.00     0.025 A 
ATOM     23  O   UNL d   1      53.066  34.405  53.072  0.00  0.00    -0.265 OA
BRANCH  21  24
ATOM     24  C   UNL d   1      53.061  30.625  53.130  0.00  0.00     0.300 C 
ATOM     25  O   UNL d   1      53.073  30.176  52.435  0.00  0.00    -0.259 OA
BRANCH  24  26
ATOM     26  O   UNL d   1      53.200  30.267  53.859  0.00  0.00    -0.271 OA
BRANCH  26  27
ATOM     27  C   UNL d   1      53.295  29.452  53.897  0.00  0.00     0.126 C 
ATOM     28  C   UNL d   1      53.339  29.081  54.636  0.00  0.00     0.029 C 
ENDBRANCH  26  27
ENDBRANCH  24  26
ENDBRANCH  21  24
ENDBRANCH   4  16
TORSDOF 4
ENDMDL
