MODEL 1
REMARK VINA RESULT:      85.6      0.000      0.000
REMARK  12 active torsions:
REMARK  status: ('A' for Active; 'I' for Inactive)
REMARK    1  A    between atoms: C_8  and  C_1 
REMARK    2  A    between atoms: C_9  and  C_2 
REMARK    3  A    between atoms: C_7  and  C_3 
REMARK    4  A    between atoms: S_10  and  C_4 
REMARK    5  A    between atoms: O_23  and  C_8 
REMARK    6  A    between atoms: C_20  and  S_10 
REMARK    7  A    between atoms: O_25  and  C_13 
REMARK    8  A    between atoms: C_14  and  C_20 
REMARK    9  A    between atoms: O_26  and  C_14 
REMARK   10  A    between atoms: C_21  and  C_28 
REMARK   11  A    between atoms: C_28  and  O_23 
REMARK   12  A    between atoms: C_29  and  O_26 
ROOT
ATOM      1  C   UNL d   1     -55.481-101.515 -44.048  0.00  0.00     0.081 A 
ATOM      2  C   UNL d   1     -55.505-100.651 -42.904  0.00  0.00     0.045 A 
ATOM      3  C   UNL d   1     -55.746-100.823 -43.665  0.00  0.00     0.010 A 
ATOM      4  C   UNL d   1     -55.002-101.161 -42.518  0.00  0.00     0.112 A 
ATOM      5  C   UNL d   1     -54.989-102.013 -43.669  0.00  0.00     0.087 A 
ATOM      6  N   UNL d   1     -54.737-101.845 -42.890  0.00  0.00    -0.239 NA
ATOM      7  C   UNL d   1     -54.743-102.704 -44.090  0.00  0.00     0.021 C 
ENDROOT
BRANCH   3   8
ATOM      8  C   UNL d   1     -56.257-100.306 -44.058  0.00  0.00     0.003 A 
ATOM      9  C   UNL d   1     -57.057-100.247 -43.825  0.00  0.00     0.028 A 
ATOM     10  C   UNL d   1     -57.567 -99.730 -44.217  0.00  0.00     0.133 A 
ATOM     11  C   UNL d   1     -57.273 -99.276 -44.839  0.00  0.00     0.218 A 
ATOM     12  C   UNL d   1     -56.488 -99.337 -45.064  0.00  0.00     0.044 A 
ATOM     13  O   UNL d   1     -57.752 -98.758 -45.244  0.00  0.00    -0.284 OA
ATOM     14  C   UNL d   1     -55.978 -99.853 -44.672  0.00  0.00     0.003 A 
BRANCH  10  15
ATOM     15  O   UNL d   1     -58.377 -99.664 -43.990  0.00  0.00    -0.325 OA
ATOM     16  C   UNL d   1     -58.773 -98.945 -44.071  0.00  0.00     0.181 C 
ENDBRANCH  10  15
ENDBRANCH   3   8
BRANCH   2  17
ATOM     17  C   UNL d   1     -55.773 -99.955 -42.525  0.00  0.00     0.124 C 
ATOM     18  N   UNL d   1     -55.257 -99.537 -42.016  0.00  0.00    -0.146 N 
ENDBRANCH   2  17
BRANCH   1  19
ATOM     19  C   UNL d   1     -55.714-101.720 -44.837  0.00  0.00     0.302 C 
ATOM     20  O   UNL d   1     -55.473-101.262 -45.474  0.00  0.00    -0.259 OA
BRANCH  19  21
ATOM     21  O   UNL d   1     -56.180-102.376 -44.949  0.00  0.00    -0.271 OA
BRANCH  21  22
ATOM     22  C   UNL d   1     -56.055-102.880 -45.592  0.00  0.00     0.126 C 
BRANCH  22  23
ATOM     23  C   UNL d   1     -55.478-102.691 -46.140  0.00  0.00     0.027 C 
ATOM     24  C   UNL d   1     -55.625-102.709 -46.927  0.00  0.00     0.002 C 
ENDBRANCH  22  23
ENDBRANCH  21  22
ENDBRANCH  19  21
ENDBRANCH   1  19
BRANCH   4  25
ATOM     25  S   UNL d   1     -54.734-101.029 -41.755  0.00  0.00    -0.062 SA
BRANCH  25  26
ATOM     26  C   UNL d   1     -55.003-101.502 -41.154  0.00  0.00     0.105 C 
BRANCH  26  27
ATOM     27  C   UNL d   1     -55.081-101.182 -40.395  0.00  0.00     0.307 C 
ATOM     28  O   UNL d   1     -54.727-100.466 -40.212  0.00  0.00    -0.258 OA
BRANCH  27  29
ATOM     29  O   UNL d   1     -55.514-101.589 -39.834  0.00  0.00    -0.271 OA
BRANCH  29  30
ATOM     30  C   UNL d   1     -55.209-102.284 -39.533  0.00  0.00     0.126 C 
ATOM     31  C   UNL d   1     -54.733-102.754 -39.996  0.00  0.00     0.029 C 
ENDBRANCH  29  30
ENDBRANCH  27  29
ENDBRANCH  26  27
ENDBRANCH  25  26
ENDBRANCH   4  25
TORSDOF 12
ENDMDL
