MODEL 1
REMARK VINA RESULT:      -2.4      0.000      0.000
REMARK  3 active torsions:
REMARK  status: ('A' for Active; 'I' for Inactive)
REMARK    1  A    between atoms: C_11  and  N_2 
REMARK    2  A    between atoms: N_7  and  C_4 
REMARK    3  A    between atoms: C_14  and  C_11 
ROOT
ATOM      1  C   UNL d   1      32.832  19.546 -22.839  0.00  0.00     0.091 A 
ATOM      2  N   UNL d   1      33.021  20.797 -22.180  0.00  0.00    -0.211 N 
ATOM      3  C   UNL d   1      33.025  20.345 -22.866  0.00  0.00     0.170 A 
ATOM      4  C   UNL d   1      32.838  19.100 -23.529  0.00  0.00     0.154 A 
ATOM      5  N   UNL d   1      32.822  20.447 -21.463  0.00  0.00    -0.162 NA
ATOM      6  C   UNL d   1      32.627  19.644 -21.435  0.00  0.00     0.127 A 
ATOM      7  N   UNL d   1      33.225  20.696 -23.584  0.00  0.00    -0.205 NA
ATOM      8  N   UNL d   1      33.035  19.441 -24.243  0.00  0.00    -0.206 NA
ATOM      9  C   UNL d   1      33.230  20.247 -24.271  0.00  0.00     0.202 A 
ENDROOT
BRANCH   2  10
ATOM     10  C   UNL d   1      33.215  21.598 -22.208  0.00  0.00     0.102 C 
BRANCH  10  11
ATOM     11  C   UNL d   1      32.917  22.114 -21.644  0.00  0.00     0.019 A 
ATOM     12  C   UNL d   1      33.174  22.067 -20.864  0.00  0.00     0.002 A 
ATOM     13  C   UNL d   1      32.873  22.586 -20.300  0.00  0.00     0.011 A 
ATOM     14  C   UNL d   1      32.315  23.151 -20.517  0.00  0.00     0.058 A 
ATOM     15  C   UNL d   1      32.054  23.198 -21.307  0.00  0.00     0.011 A 
ATOM     16 CL   UNL d   1      32.010  23.675 -19.950  0.00  0.00    -0.082 Cl
ATOM     17  C   UNL d   1      32.357  22.679 -21.865  0.00  0.00     0.002 A 
ENDBRANCH  10  11
ENDBRANCH   2  10
BRANCH   4  18
ATOM     18  N   UNL d   1      32.638  18.271 -23.500  0.00  0.00    -0.289 N 
ATOM     19  C   UNL d   1      31.818  18.038 -23.615  0.00  0.00     0.082 A 
ATOM     20  C   UNL d   1      31.607  17.208 -23.588  0.00  0.00     0.019 A 
ATOM     21  C   UNL d   1      32.218  16.620 -23.446  0.00  0.00     0.003 A 
ATOM     22  C   UNL d   1      33.028  16.852 -23.333  0.00  0.00     0.019 A 
ATOM     23  C   UNL d   1      32.008  15.794 -23.420  0.00  0.00     0.000 C 
ATOM     24  C   UNL d   1      33.237  17.679 -23.360  0.00  0.00     0.082 A 
ENDBRANCH   4  18
TORSDOF 3
ENDMDL
MODEL 2
REMARK VINA RESULT:      -0.9      1.418      2.393
REMARK  3 active torsions:
REMARK  status: ('A' for Active; 'I' for Inactive)
REMARK    1  A    between atoms: C_11  and  N_2 
REMARK    2  A    between atoms: N_7  and  C_4 
REMARK    3  A    between atoms: C_14  and  C_11 
ROOT
ATOM      1  C   UNL d   1      32.618  21.331 -21.715  0.00  0.00     0.091 A 
ATOM      2  N   UNL d   1      32.293  22.282 -20.702  0.00  0.00    -0.211 N 
ATOM      3  C   UNL d   1      32.608  22.107 -21.441  0.00  0.00     0.170 A 
ATOM      4  C   UNL d   1      32.935  21.164 -22.454  0.00  0.00     0.154 A 
ATOM      5  N   UNL d   1      31.986  21.677 -20.236  0.00  0.00    -0.162 NA
ATOM      6  C   UNL d   1      31.996  20.897 -20.512  0.00  0.00     0.127 A 
ATOM      7  N   UNL d   1      32.915  22.712 -21.906  0.00  0.00    -0.205 NA
ATOM      8  N   UNL d   1      33.241  21.758 -22.921  0.00  0.00    -0.206 NA
ATOM      9  C   UNL d   1      33.231  22.540 -22.644  0.00  0.00     0.202 A 
ENDROOT
BRANCH   2  10
ATOM     10  C   UNL d   1      32.282  23.059 -20.428  0.00  0.00     0.102 C 
BRANCH  10  11
ATOM     11  C   UNL d   1      32.400  23.216 -19.631  0.00  0.00     0.019 A 
ATOM     12  C   UNL d   1      33.125  23.050 -19.280  0.00  0.00     0.002 A 
ATOM     13  C   UNL d   1      33.241  23.208 -18.480  0.00  0.00     0.011 A 
ATOM     14  C   UNL d   1      32.630  23.532 -18.032  0.00  0.00     0.058 A 
ATOM     15  C   UNL d   1      31.895  23.700 -18.389  0.00  0.00     0.011 A 
ATOM     16 CL   UNL d   1      32.744  23.693 -17.226  0.00  0.00    -0.082 Cl
ATOM     17  C   UNL d   1      31.786  23.540 -19.186  0.00  0.00     0.002 A 
ENDBRANCH  10  11
ENDBRANCH   2  10
BRANCH   4  18
ATOM     18  N   UNL d   1      32.945  20.358 -22.739  0.00  0.00    -0.289 N 
ATOM     19  C   UNL d   1      32.813  20.212 -23.576  0.00  0.00     0.082 A 
ATOM     20  C   UNL d   1      32.822  19.408 -23.871  0.00  0.00     0.019 A 
ATOM     21  C   UNL d   1      32.963  18.759 -23.325  0.00  0.00     0.003 A 
ATOM     22  C   UNL d   1      33.093  18.905 -22.498  0.00  0.00     0.019 A 
ATOM     23  C   UNL d   1      32.971  17.958 -23.619  0.00  0.00     0.000 C 
ATOM     24  C   UNL d   1      33.085  19.706 -22.205  0.00  0.00     0.082 A 
ENDBRANCH   4  18
TORSDOF 3
ENDMDL
