MODEL 1
REMARK VINA RESULT:      -7.2      0.000      0.000
REMARK  5 active torsions:
REMARK  status: ('A' for Active; 'I' for Inactive)
REMARK    1  A    between atoms: N_2  and  S_1 
REMARK    2  A    between atoms: C_6  and  S_1 
REMARK    3  A    between atoms: C_3  and  N_2 
REMARK    4  A    between atoms: N_4  and  C_5 
REMARK    5  A    between atoms: C_9  and  N_4 
ROOT
ATOM      1  C   UNL d   1     -48.939  12.777  22.809  0.00  0.00     0.110 A 
ATOM      2  C   UNL d   1     -49.620  13.228  22.702  0.00  0.00     0.083 A 
ATOM      3  C   UNL d   1     -49.018  12.000  23.080  0.00  0.00     0.021 A 
ATOM      4  C   UNL d   1     -50.362  12.913  22.861  0.00  0.00     0.019 A 
ATOM      5  C   UNL d   1     -49.759  11.685  23.239  0.00  0.00     0.002 A 
ATOM      6  C   UNL d   1     -50.439  12.140  23.130  0.00  0.00     0.002 A 
ENDROOT
BRANCH   1   7
ATOM      7  N   UNL d   1     -48.196  13.092  22.650  0.00  0.00    -0.157 NA
BRANCH   7   8
ATOM      8  S   UNL d   1     -47.517  12.663  22.829  0.00  0.00     0.285 S 
ATOM      9  O   UNL d   1     -47.497  13.018  23.593  0.00  0.00    -0.198 OA
ATOM     10  O   UNL d   1     -47.538  12.315  22.079  0.00  0.00    -0.198 OA
BRANCH   8  11
ATOM     11  C   UNL d   1     -46.821  12.224  23.014  0.00  0.00     0.105 A 
ATOM     12  C   UNL d   1     -46.879  11.510  23.454  0.00  0.00     0.014 A 
ATOM     13  C   UNL d   1     -46.197  11.089  23.631  0.00  0.00     0.012 A 
ATOM     14  C   UNL d   1     -45.463  11.353  23.385  0.00  0.00     0.058 A 
ATOM     15  C   UNL d   1     -45.406  12.067  22.944  0.00  0.00     0.012 A 
ATOM     16 CL   UNL d   1     -44.793  10.928  23.565  0.00  0.00    -0.082 Cl
ATOM     17  C   UNL d   1     -46.083  12.504  22.758  0.00  0.00     0.014 A 
ENDBRANCH   8  11
ENDBRANCH   7   8
ENDBRANCH   1   7
BRANCH   2  18
ATOM     18  N   UNL d   1     -49.535  14.027  22.423  0.00  0.00    -0.303 N 
ATOM     19  C   UNL d   1     -49.140  14.132  21.731  0.00  0.00     0.100 C 
BRANCH  18  20
ATOM     20  C   UNL d   1     -49.844  14.658  22.848  0.00  0.00     0.064 A 
ATOM     21  C   UNL d   1     -50.648  14.737  22.909  0.00  0.00     0.018 A 
ATOM     22  C   UNL d   1     -50.980  15.364  23.331  0.00  0.00     0.002 A 
ATOM     23  C   UNL d   1     -50.489  15.922  23.698  0.00  0.00     0.000 A 
ATOM     24  C   UNL d   1     -49.671  15.841  23.635  0.00  0.00     0.002 A 
ATOM     25  C   UNL d   1     -49.341  15.210  23.210  0.00  0.00     0.018 A 
ENDBRANCH  18  20
ENDBRANCH   2  18
TORSDOF 5
ENDMDL
MODEL 2
REMARK VINA RESULT:      -6.9      1.164      1.651
REMARK  5 active torsions:
REMARK  status: ('A' for Active; 'I' for Inactive)
REMARK    1  A    between atoms: N_2  and  S_1 
REMARK    2  A    between atoms: C_6  and  S_1 
REMARK    3  A    between atoms: C_3  and  N_2 
REMARK    4  A    between atoms: N_4  and  C_5 
REMARK    5  A    between atoms: C_9  and  N_4 
ROOT
ATOM      1  C   UNL d   1     -47.960  12.724  23.225  0.00  0.00     0.110 A 
ATOM      2  C   UNL d   1     -48.765  12.885  23.297  0.00  0.00     0.083 A 
ATOM      3  C   UNL d   1     -47.694  11.959  23.393  0.00  0.00     0.021 A 
ATOM      4  C   UNL d   1     -49.292  12.300  23.531  0.00  0.00     0.019 A 
ATOM      5  C   UNL d   1     -48.221  11.374  23.627  0.00  0.00     0.002 A 
ATOM      6  C   UNL d   1     -49.025  11.540  23.698  0.00  0.00     0.002 A 
ENDROOT
BRANCH   1   7
ATOM      7  N   UNL d   1     -47.433  13.309  22.991  0.00  0.00    -0.157 NA
BRANCH   7   8
ATOM      8  S   UNL d   1     -46.666  13.111  22.770  0.00  0.00     0.285 S 
ATOM      9  O   UNL d   1     -46.419  13.183  23.573  0.00  0.00    -0.198 OA
ATOM     10  O   UNL d   1     -46.909  13.042  21.983  0.00  0.00    -0.198 OA
BRANCH   8  11
ATOM     11  C   UNL d   1     -45.878  12.909  22.546  0.00  0.00     0.105 A 
ATOM     12  C   UNL d   1     -45.485  12.269  22.925  0.00  0.00     0.014 A 
ATOM     13  C   UNL d   1     -44.718  12.079  22.701  0.00  0.00     0.012 A 
ATOM     14  C   UNL d   1     -44.333  12.500  22.116  0.00  0.00     0.058 A 
ATOM     15  C   UNL d   1     -44.726  13.140  21.738  0.00  0.00     0.012 A 
ATOM     16 CL   UNL d   1     -43.573  12.302  21.902  0.00  0.00    -0.082 Cl
ATOM     17  C   UNL d   1     -45.498  13.345  21.951  0.00  0.00     0.014 A 
ENDBRANCH   8  11
ENDBRANCH   7   8
ENDBRANCH   1   7
BRANCH   2  18
ATOM     18  N   UNL d   1     -49.035  13.673  23.123  0.00  0.00    -0.303 N 
ATOM     19  C   UNL d   1     -48.625  14.281  23.452  0.00  0.00     0.100 C 
BRANCH  18  20
ATOM     20  C   UNL d   1     -49.687  13.799  22.639  0.00  0.00     0.064 A 
ATOM     21  C   UNL d   1     -50.392  14.015  22.975  0.00  0.00     0.018 A 
ATOM     22  C   UNL d   1     -51.060  14.147  22.506  0.00  0.00     0.002 A 
ATOM     23  C   UNL d   1     -51.012  14.059  21.683  0.00  0.00     0.000 A 
ATOM     24  C   UNL d   1     -50.294  13.840  21.343  0.00  0.00     0.002 A 
ATOM     25  C   UNL d   1     -49.625  13.708  21.816  0.00  0.00     0.018 A 
ENDBRANCH  18  20
ENDBRANCH   2  18
TORSDOF 5
ENDMDL
MODEL 3
REMARK VINA RESULT:      -6.2      9.289     10.254
REMARK  5 active torsions:
REMARK  status: ('A' for Active; 'I' for Inactive)
REMARK    1  A    between atoms: N_2  and  S_1 
REMARK    2  A    between atoms: C_6  and  S_1 
REMARK    3  A    between atoms: C_3  and  N_2 
REMARK    4  A    between atoms: N_4  and  C_5 
REMARK    5  A    between atoms: C_9  and  N_4 
ROOT
ATOM      1  C   UNL d   1     -39.007  14.225  18.737  0.00  0.00     0.110 A 
ATOM      2  C   UNL d   1     -39.132  14.524  17.979  0.00  0.00     0.083 A 
ATOM      3  C   UNL d   1     -38.770  13.437  18.816  0.00  0.00     0.021 A 
ATOM      4  C   UNL d   1     -39.022  14.051  17.317  0.00  0.00     0.019 A 
ATOM      5  C   UNL d   1     -38.661  12.964  18.154  0.00  0.00     0.002 A 
ATOM      6  C   UNL d   1     -38.786  13.268  17.397  0.00  0.00     0.002 A 
ENDROOT
BRANCH   1   7
ATOM      7  N   UNL d   1     -39.117  14.699  19.400  0.00  0.00    -0.157 NA
BRANCH   7   8
ATOM      8  S   UNL d   1     -38.992  14.392  20.153  0.00  0.00     0.285 S 
ATOM      9  O   UNL d   1     -38.177  14.601  20.100  0.00  0.00    -0.198 OA
ATOM     10  O   UNL d   1     -39.791  14.187  20.203  0.00  0.00    -0.198 OA
BRANCH   8  11
ATOM     11  C   UNL d   1     -38.861  14.078  20.925  0.00  0.00     0.105 A 
ATOM     12  C   UNL d   1     -38.083  13.876  21.171  0.00  0.00     0.014 A 
ATOM     13  C   UNL d   1     -37.965  13.572  21.924  0.00  0.00     0.012 A 
ATOM     14  C   UNL d   1     -38.591  13.462  22.437  0.00  0.00     0.058 A 
ATOM     15  C   UNL d   1     -39.369  13.664  22.191  0.00  0.00     0.012 A 
ATOM     16 CL   UNL d   1     -38.462  13.159  23.181  0.00  0.00    -0.082 Cl
ATOM     17  C   UNL d   1     -39.507  13.972  21.436  0.00  0.00     0.014 A 
ENDBRANCH   8  11
ENDBRANCH   7   8
ENDBRANCH   1   7
BRANCH   2  18
ATOM     18  N   UNL d   1     -39.376  15.336  17.902  0.00  0.00    -0.303 N 
ATOM     19  C   UNL d   1     -38.878  15.896  18.191  0.00  0.00     0.100 C 
BRANCH  18  20
ATOM     20  C   UNL d   1     -40.090  15.530  17.546  0.00  0.00     0.064 A 
ATOM     21  C   UNL d   1     -40.135  15.557  16.738  0.00  0.00     0.018 A 
ATOM     22  C   UNL d   1     -40.844  15.750  16.360  0.00  0.00     0.002 A 
ATOM     23  C   UNL d   1     -41.519  15.919  16.810  0.00  0.00     0.000 A 
ATOM     24  C   UNL d   1     -41.472  15.892  17.633  0.00  0.00     0.002 A 
ATOM     25  C   UNL d   1     -40.759  15.698  18.008  0.00  0.00     0.018 A 
ENDBRANCH  18  20
ENDBRANCH   2  18
TORSDOF 5
ENDMDL
MODEL 4
REMARK VINA RESULT:      -6.0      9.010     10.663
REMARK  5 active torsions:
REMARK  status: ('A' for Active; 'I' for Inactive)
REMARK    1  A    between atoms: N_2  and  S_1 
REMARK    2  A    between atoms: C_6  and  S_1 
REMARK    3  A    between atoms: C_3  and  N_2 
REMARK    4  A    between atoms: N_4  and  C_5 
REMARK    5  A    between atoms: C_9  and  N_4 
ROOT
ATOM      1  C   UNL d   1     -39.437  14.490  19.827  0.00  0.00     0.110 A 
ATOM      2  C   UNL d   1     -39.518  14.600  20.640  0.00  0.00     0.083 A 
ATOM      3  C   UNL d   1     -40.120  14.388  19.372  0.00  0.00     0.021 A 
ATOM      4  C   UNL d   1     -40.260  14.609  20.991  0.00  0.00     0.019 A 
ATOM      5  C   UNL d   1     -40.862  14.397  19.723  0.00  0.00     0.002 A 
ATOM      6  C   UNL d   1     -40.938  14.508  20.537  0.00  0.00     0.002 A 
ENDROOT
BRANCH   1   7
ATOM      7  N   UNL d   1     -38.694  14.481  19.475  0.00  0.00    -0.157 NA
BRANCH   7   8
ATOM      8  S   UNL d   1     -38.619  14.334  18.669  0.00  0.00     0.285 S 
ATOM      9  O   UNL d   1     -38.640  15.163  18.519  0.00  0.00    -0.198 OA
ATOM     10  O   UNL d   1     -38.599  13.521  18.818  0.00  0.00    -0.198 OA
BRANCH   8  11
ATOM     11  C   UNL d   1     -38.542  14.186  17.843  0.00  0.00     0.105 A 
ATOM     12  C   UNL d   1     -38.598  14.821  17.295  0.00  0.00     0.014 A 
ATOM     13  C   UNL d   1     -38.523  14.669  16.492  0.00  0.00     0.012 A 
ATOM     14  C   UNL d   1     -38.393  13.910  16.217  0.00  0.00     0.058 A 
ATOM     15  C   UNL d   1     -38.337  13.275  16.765  0.00  0.00     0.012 A 
ATOM     16 CL   UNL d   1     -38.320  13.771  15.419  0.00  0.00    -0.082 Cl
ATOM     17  C   UNL d   1     -38.411  13.410  17.578  0.00  0.00     0.014 A 
ENDBRANCH   8  11
ENDBRANCH   7   8
ENDBRANCH   1   7
BRANCH   2  18
ATOM     18  N   UNL d   1     -38.813  14.704  21.104  0.00  0.00    -0.303 N 
ATOM     19  C   UNL d   1     -38.320  15.302  20.891  0.00  0.00     0.100 C 
BRANCH  18  20
ATOM     20  C   UNL d   1     -38.649  14.212  21.741  0.00  0.00     0.064 A 
ATOM     21  C   UNL d   1     -38.868  14.444  22.485  0.00  0.00     0.018 A 
ATOM     22  C   UNL d   1     -38.714  13.964  23.140  0.00  0.00     0.002 A 
ATOM     23  C   UNL d   1     -38.330  13.236  23.038  0.00  0.00     0.000 A 
ATOM     24  C   UNL d   1     -38.108  13.001  22.279  0.00  0.00     0.002 A 
ATOM     25  C   UNL d   1     -38.265  13.486  21.625  0.00  0.00     0.018 A 
ENDBRANCH  18  20
ENDBRANCH   2  18
TORSDOF 5
ENDMDL
MODEL 5
REMARK VINA RESULT:      -5.7      1.981      4.623
REMARK  5 active torsions:
REMARK  status: ('A' for Active; 'I' for Inactive)
REMARK    1  A    between atoms: N_2  and  S_1 
REMARK    2  A    between atoms: C_6  and  S_1 
REMARK    3  A    between atoms: C_3  and  N_2 
REMARK    4  A    between atoms: N_4  and  C_5 
REMARK    5  A    between atoms: C_9  and  N_4 
ROOT
ATOM      1  C   UNL d   1     -47.196  12.847  23.008  0.00  0.00     0.110 A 
ATOM      2  C   UNL d   1     -46.448  12.553  23.193  0.00  0.00     0.083 A 
ATOM      3  C   UNL d   1     -47.852  12.359  23.126  0.00  0.00     0.021 A 
ATOM      4  C   UNL d   1     -46.357  11.792  23.487  0.00  0.00     0.019 A 
ATOM      5  C   UNL d   1     -47.761  11.598  23.420  0.00  0.00     0.002 A 
ATOM      6  C   UNL d   1     -47.011  11.308  23.603  0.00  0.00     0.002 A 
ENDROOT
BRANCH   1   7
ATOM      7  N   UNL d   1     -47.287  13.609  22.713  0.00  0.00    -0.157 NA
BRANCH   7   8
ATOM      8  S   UNL d   1     -48.039  13.909  22.566  0.00  0.00     0.285 S 
ATOM      9  O   UNL d   1     -48.065  14.220  23.349  0.00  0.00    -0.198 OA
ATOM     10  O   UNL d   1     -48.012  13.603  21.798  0.00  0.00    -0.198 OA
BRANCH   8  11
ATOM     11  C   UNL d   1     -48.809  14.217  22.418  0.00  0.00     0.105 A 
ATOM     12  C   UNL d   1     -49.099  14.863  22.872  0.00  0.00     0.014 A 
ATOM     13  C   UNL d   1     -49.850  15.157  22.721  0.00  0.00     0.012 A 
ATOM     14  C   UNL d   1     -50.321  14.832  22.138  0.00  0.00     0.058 A 
ATOM     15  C   UNL d   1     -50.031  14.186  21.684  0.00  0.00     0.012 A 
ATOM     16 CL   UNL d   1     -51.064  15.132  21.997  0.00  0.00    -0.082 Cl
ATOM     17  C   UNL d   1     -49.277  13.877  21.822  0.00  0.00     0.014 A 
ENDBRANCH   8  11
ENDBRANCH   7   8
ENDBRANCH   1   7
BRANCH   2  18
ATOM     18  N   UNL d   1     -45.774  13.058  23.070  0.00  0.00    -0.303 N 
ATOM     19  C   UNL d   1     -45.794  13.782  23.417  0.00  0.00     0.100 C 
BRANCH  18  20
ATOM     20  C   UNL d   1     -45.137  12.810  22.616  0.00  0.00     0.064 A 
ATOM     21  C   UNL d   1     -44.963  13.206  21.931  0.00  0.00     0.018 A 
ATOM     22  C   UNL d   1     -44.326  12.973  21.458  0.00  0.00     0.002 A 
ATOM     23  C   UNL d   1     -43.858  12.327  21.685  0.00  0.00     0.000 A 
ATOM     24  C   UNL d   1     -44.036  11.926  22.383  0.00  0.00     0.002 A 
ATOM     25  C   UNL d   1     -44.676  12.163  22.854  0.00  0.00     0.018 A 
ENDBRANCH  18  20
ENDBRANCH   2  18
TORSDOF 5
ENDMDL
MODEL 6
REMARK VINA RESULT:      -5.4      9.993     11.347
REMARK  5 active torsions:
REMARK  status: ('A' for Active; 'I' for Inactive)
REMARK    1  A    between atoms: N_2  and  S_1 
REMARK    2  A    between atoms: C_6  and  S_1 
REMARK    3  A    between atoms: C_3  and  N_2 
REMARK    4  A    between atoms: N_4  and  C_5 
REMARK    5  A    between atoms: C_9  and  N_4 
ROOT
ATOM      1  C   UNL d   1     -39.419  15.305  17.769  0.00  0.00     0.110 A 
ATOM      2  C   UNL d   1     -39.588  15.560  18.535  0.00  0.00     0.083 A 
ATOM      3  C   UNL d   1     -40.017  15.345  17.200  0.00  0.00     0.021 A 
ATOM      4  C   UNL d   1     -40.333  15.846  18.728  0.00  0.00     0.019 A 
ATOM      5  C   UNL d   1     -40.762  15.632  17.393  0.00  0.00     0.002 A 
ATOM      6  C   UNL d   1     -40.926  15.886  18.161  0.00  0.00     0.002 A 
ENDROOT
BRANCH   1   7
ATOM      7  N   UNL d   1     -38.674  15.018  17.576  0.00  0.00    -0.157 NA
BRANCH   7   8
ATOM      8  S   UNL d   1     -38.528  14.720  16.823  0.00  0.00     0.285 S 
ATOM      9  O   UNL d   1     -38.751  13.951  17.087  0.00  0.00    -0.198 OA
ATOM     10  O   UNL d   1     -38.309  15.474  16.566  0.00  0.00    -0.198 OA
BRANCH   8  11
ATOM     11  C   UNL d   1     -38.379  14.412  16.052  0.00  0.00     0.105 A 
ATOM     12  C   UNL d   1     -38.263  14.936  15.405  0.00  0.00     0.014 A 
ATOM     13  C   UNL d   1     -38.119  14.628  14.658  0.00  0.00     0.012 A 
ATOM     14  C   UNL d   1     -38.085  13.821  14.534  0.00  0.00     0.058 A 
ATOM     15  C   UNL d   1     -38.200  13.297  15.182  0.00  0.00     0.012 A 
ATOM     16 CL   UNL d   1     -37.941  13.527  13.789  0.00  0.00    -0.082 Cl
ATOM     17  C   UNL d   1     -38.347  13.590  15.941  0.00  0.00     0.014 A 
ENDBRANCH   8  11
ENDBRANCH   7   8
ENDBRANCH   1   7
BRANCH   2  18
ATOM     18  N   UNL d   1     -38.970  15.517  19.119  0.00  0.00    -0.303 N 
ATOM     19  C   UNL d   1     -38.283  15.897  18.951  0.00  0.00     0.100 C 
BRANCH  18  20
ATOM     20  C   UNL d   1     -39.079  15.103  19.820  0.00  0.00     0.064 A 
ATOM     21  C   UNL d   1     -39.439  15.473  20.444  0.00  0.00     0.018 A 
ATOM     22  C   UNL d   1     -39.558  15.075  21.159  0.00  0.00     0.002 A 
ATOM     23  C   UNL d   1     -39.308  14.289  21.241  0.00  0.00     0.000 A 
ATOM     24  C   UNL d   1     -38.942  13.914  20.605  0.00  0.00     0.002 A 
ATOM     25  C   UNL d   1     -38.824  14.316  19.890  0.00  0.00     0.018 A 
ENDBRANCH  18  20
ENDBRANCH   2  18
TORSDOF 5
ENDMDL
