MODEL 1
REMARK VINA RESULT:       6.8      0.000      0.000
REMARK  5 active torsions:
REMARK  status: ('A' for Active; 'I' for Inactive)
REMARK    1  A    between atoms: C_7  and  C_1 
REMARK    2  A    between atoms: C_8  and  N_2 
REMARK    3  A    between atoms: C_13  and  C_7 
REMARK    4  A    between atoms: C_14  and  C_8 
REMARK    5  A    between atoms: O_22  and  C_15 
ROOT
ATOM      1  C   UNL d   1     -42.273-122.571 -53.026  0.00  0.00     0.095 A 
ATOM      2  N   UNL d   1     -41.774-122.968 -51.728  0.00  0.00    -0.304 N 
ATOM      3  C   UNL d   1     -42.108-121.778 -52.842  0.00  0.00     0.202 A 
ATOM      4  C   UNL d   1     -42.108-123.173 -52.472  0.00  0.00     0.087 A 
ATOM      5  C   UNL d   1     -41.779-121.588 -52.107  0.00  0.00     0.057 A 
ATOM      6  C   UNL d   1     -41.611-122.184 -51.546  0.00  0.00     0.067 A 
ATOM      7  C   UNL d   1     -41.286-121.991 -50.820  0.00  0.00     0.020 A 
ATOM      8  C   UNL d   1     -41.613-120.798 -51.919  0.00  0.00     0.029 A 
ATOM      9  O   UNL d   1     -42.272-121.180 -53.394  0.00  0.00    -0.286 OA
ATOM     10  C   UNL d   1     -41.286-120.613 -51.184  0.00  0.00     0.094 A 
ATOM     11  C   UNL d   1     -41.123-121.206 -50.637  0.00  0.00     0.026 A 
ENDROOT
BRANCH   1  12
ATOM     12  C   UNL d   1     -42.600-122.765 -53.759  0.00  0.00     0.200 C 
ATOM     13  O   UNL d   1     -43.405-122.868 -53.830  0.00  0.00    -0.286 OA
BRANCH  12  14
ATOM     14  C   UNL d   1     -42.106-122.851 -54.415  0.00  0.00     0.039 A 
ATOM     15  C   UNL d   1     -42.038-122.236 -54.958  0.00  0.00     0.003 A 
ATOM     16  C   UNL d   1     -41.545-122.329 -55.608  0.00  0.00     0.000 A 
ATOM     17  C   UNL d   1     -41.123-123.031 -55.716  0.00  0.00     0.000 A 
ATOM     18  C   UNL d   1     -41.199-123.642 -55.163  0.00  0.00     0.000 A 
ATOM     19  C   UNL d   1     -41.693-123.555 -54.507  0.00  0.00     0.003 A 
ENDBRANCH  12  14
ENDBRANCH   1  12
BRANCH   2  20
ATOM     20  C   UNL d   1     -41.611-123.561 -51.182  0.00  0.00     0.080 C 
BRANCH  20  21
ATOM     21  C   UNL d   1     -42.069-123.625 -50.494  0.00  0.00     0.018 A 
ATOM     22  C   UNL d   1     -41.694-123.716 -49.767  0.00  0.00     0.002 A 
ATOM     23  C   UNL d   1     -42.145-123.779 -49.084  0.00  0.00     0.000 A 
ATOM     24  C   UNL d   1     -42.961-123.752 -49.123  0.00  0.00     0.000 A 
ATOM     25  C   UNL d   1     -43.333-123.659 -49.860  0.00  0.00     0.000 A 
ATOM     26  C   UNL d   1     -43.412-123.815 -48.440  0.00  0.00     0.000 C 
ATOM     27  C   UNL d   1     -42.882-123.596 -50.544  0.00  0.00     0.002 A 
ENDBRANCH  20  21
ENDBRANCH   2  20
BRANCH  10  28
ATOM     28  O   UNL d   1     -41.124-119.823 -51.007  0.00  0.00    -0.328 OA
ATOM     29  C   UNL d   1     -41.441-119.231 -51.481  0.00  0.00     0.181 C 
ENDBRANCH  10  28
TORSDOF 5
ENDMDL
