MODEL 1
REMARK VINA RESULT:      -3.3      0.000      0.000
REMARK  4 active torsions:
REMARK  status: ('A' for Active; 'I' for Inactive)
REMARK    1  A    between atoms: C_6  and  C_2 
REMARK    2  A    between atoms: O_7  and  C_6 
REMARK    3  A    between atoms: C_8  and  O_7 
REMARK    4  A    between atoms: O_14  and  C_9 
ROOT
ATOM      1  C   UNL d   1      32.897  19.772 -22.113  0.00  0.00     0.161 C 
ENDROOT
BRANCH   1   2
ATOM      2  C   UNL d   1      32.917  20.572 -21.971  0.00  0.00     0.188 A 
ATOM      3  N   UNL d   1      32.472  20.717 -21.323  0.00  0.00    -0.224 NA
ATOM      4  C   UNL d   1      32.516  21.583 -21.202  0.00  0.00     0.101 A 
ATOM      5  C   UNL d   1      32.981  21.897 -21.780  0.00  0.00     0.101 A 
ATOM      6  C   UNL d   1      32.143  22.057 -20.583  0.00  0.00     0.021 A 
ATOM      7  C   UNL d   1      33.105  22.708 -21.782  0.00  0.00     0.021 A 
ATOM      8  N   UNL d   1      33.239  21.236 -22.278  0.00  0.00    -0.224 NA
ATOM      9  C   UNL d   1      32.782  23.213 -21.225  0.00  0.00     0.002 A 
ATOM     10  C   UNL d   1      32.317  22.899 -20.647  0.00  0.00     0.002 A 
ENDBRANCH   1   2
BRANCH   1  11
ATOM     11  O   UNL d   1      33.070  19.469 -22.877  0.00  0.00    -0.302 OA
BRANCH  11  12
ATOM     12  C   UNL d   1      32.889  18.678 -23.078  0.00  0.00     0.100 A 
ATOM     13  C   UNL d   1      32.366  18.523 -23.699  0.00  0.00     0.027 A 
ATOM     14  C   UNL d   1      32.174  17.754 -23.914  0.00  0.00     0.026 A 
ATOM     15  C   UNL d   1      32.525  17.136 -23.486  0.00  0.00     0.094 A 
ATOM     16  C   UNL d   1      33.048  17.291 -22.865  0.00  0.00     0.026 A 
ATOM     17  C   UNL d   1      33.241  18.068 -22.649  0.00  0.00     0.027 A 
BRANCH  15  18
ATOM     18  O   UNL d   1      32.345  16.345 -23.687  0.00  0.00    -0.328 OA
ATOM     19  C   UNL d   1      31.900  15.498 -23.841  0.00  0.00     0.181 C 
ENDBRANCH  15  18
ENDBRANCH  11  12
ENDBRANCH   1  11
TORSDOF 4
ENDMDL
MODEL 2
REMARK VINA RESULT:      -3.1      1.506      5.076
REMARK  4 active torsions:
REMARK  status: ('A' for Active; 'I' for Inactive)
REMARK    1  A    between atoms: C_6  and  C_2 
REMARK    2  A    between atoms: O_7  and  C_6 
REMARK    3  A    between atoms: C_8  and  O_7 
REMARK    4  A    between atoms: O_14  and  C_9 
ROOT
ATOM      1  C   UNL d   1      32.914  19.461 -22.772  0.00  0.00     0.161 C 
ENDROOT
BRANCH   1   2
ATOM      2  C   UNL d   1      32.965  18.671 -22.955  0.00  0.00     0.188 A 
ATOM      3  N   UNL d   1      32.632  18.565 -23.674  0.00  0.00    -0.224 NA
ATOM      4  C   UNL d   1      32.706  17.707 -23.837  0.00  0.00     0.101 A 
ATOM      5  C   UNL d   1      33.075  17.360 -23.210  0.00  0.00     0.101 A 
ATOM      6  C   UNL d   1      32.443  17.270 -24.534  0.00  0.00     0.021 A 
ATOM      7  C   UNL d   1      33.206  16.551 -23.236  0.00  0.00     0.021 A 
ATOM      8  N   UNL d   1      33.241  17.991 -22.639  0.00  0.00    -0.224 NA
ATOM      9  C   UNL d   1      32.983  16.079 -23.866  0.00  0.00     0.002 A 
ATOM     10  C   UNL d   1      32.614  16.426 -24.493  0.00  0.00     0.002 A 
ENDBRANCH   1   2
BRANCH   1  11
ATOM     11  O   UNL d   1      33.121  19.737 -22.006  0.00  0.00    -0.302 OA
BRANCH  11  12
ATOM     12  C   UNL d   1      32.949  20.519 -21.767  0.00  0.00     0.100 A 
ATOM     13  C   UNL d   1      32.492  20.649 -21.091  0.00  0.00     0.027 A 
ATOM     14  C   UNL d   1      32.309  21.408 -20.837  0.00  0.00     0.026 A 
ATOM     15  C   UNL d   1      32.601  22.044 -21.286  0.00  0.00     0.094 A 
ATOM     16  C   UNL d   1      33.058  21.914 -21.962  0.00  0.00     0.026 A 
ATOM     17  C   UNL d   1      33.241  21.146 -22.217  0.00  0.00     0.027 A 
BRANCH  15  18
ATOM     18  O   UNL d   1      32.429  22.826 -21.047  0.00  0.00    -0.328 OA
ATOM     19  C   UNL d   1      32.015  23.691 -20.910  0.00  0.00     0.181 C 
ENDBRANCH  15  18
ENDBRANCH  11  12
ENDBRANCH   1  11
TORSDOF 4
ENDMDL
MODEL 3
REMARK VINA RESULT:      -1.4      1.518      2.271
REMARK  4 active torsions:
REMARK  status: ('A' for Active; 'I' for Inactive)
REMARK    1  A    between atoms: C_6  and  C_2 
REMARK    2  A    between atoms: O_7  and  C_6 
REMARK    3  A    between atoms: C_8  and  O_7 
REMARK    4  A    between atoms: O_14  and  C_9 
ROOT
ATOM      1  C   UNL d   1      32.598  21.335 -21.145  0.00  0.00     0.161 C 
ENDROOT
BRANCH   1   2
ATOM      2  C   UNL d   1      32.725  21.931 -20.607  0.00  0.00     0.188 A 
ATOM      3  N   UNL d   1      32.802  21.596 -19.885  0.00  0.00    -0.224 NA
ATOM      4  C   UNL d   1      32.937  22.265 -19.335  0.00  0.00     0.101 A 
ATOM      5  C   UNL d   1      32.933  22.949 -19.760  0.00  0.00     0.101 A 
ATOM      6  C   UNL d   1      33.058  22.239 -18.480  0.00  0.00     0.021 A 
ATOM      7  C   UNL d   1      33.050  23.656 -19.361  0.00  0.00     0.021 A 
ATOM      8  N   UNL d   1      32.795  22.727 -20.587  0.00  0.00    -0.224 NA
ATOM      9  C   UNL d   1      33.170  23.701 -18.553  0.00  0.00     0.002 A 
ATOM     10  C   UNL d   1      33.174  23.016 -18.127  0.00  0.00     0.002 A 
ENDBRANCH   1   2
BRANCH   1  11
ATOM     11  O   UNL d   1      33.240  20.994 -21.565  0.00  0.00    -0.302 OA
BRANCH  11  12
ATOM     12  C   UNL d   1      33.111  20.423 -22.161  0.00  0.00     0.100 A 
ATOM     13  C   UNL d   1      33.150  20.645 -22.956  0.00  0.00     0.027 A 
ATOM     14  C   UNL d   1      33.027  20.101 -23.559  0.00  0.00     0.026 A 
ATOM     15  C   UNL d   1      32.862  19.317 -23.341  0.00  0.00     0.094 A 
ATOM     16  C   UNL d   1      32.823  19.095 -22.546  0.00  0.00     0.026 A 
ATOM     17  C   UNL d   1      32.948  19.646 -21.938  0.00  0.00     0.027 A 
BRANCH  15  18
ATOM     18  O   UNL d   1      32.733  18.745 -23.937  0.00  0.00    -0.328 OA
ATOM     19  C   UNL d   1      32.630  18.284 -24.783  0.00  0.00     0.181 C 
ENDBRANCH  15  18
ENDBRANCH  11  12
ENDBRANCH   1  11
TORSDOF 4
ENDMDL
MODEL 4
REMARK VINA RESULT:      -0.9      2.964      4.574
REMARK  4 active torsions:
REMARK  status: ('A' for Active; 'I' for Inactive)
REMARK    1  A    between atoms: C_6  and  C_2 
REMARK    2  A    between atoms: O_7  and  C_6 
REMARK    3  A    between atoms: C_8  and  O_7 
REMARK    4  A    between atoms: O_14  and  C_9 
ROOT
ATOM      1  C   UNL d   1      31.143  16.551 -23.789  0.00  0.00     0.161 C 
ENDROOT
BRANCH   1   2
ATOM      2  C   UNL d   1      31.621  17.150 -24.060  0.00  0.00     0.188 A 
ATOM      3  N   UNL d   1      31.781  17.634 -23.444  0.00  0.00    -0.224 NA
ATOM      4  C   UNL d   1      32.294  18.263 -23.773  0.00  0.00     0.101 A 
ATOM      5  C   UNL d   1      32.408  18.115 -24.557  0.00  0.00     0.101 A 
ATOM      6  C   UNL d   1      32.640  18.940 -23.363  0.00  0.00     0.021 A 
ATOM      7  C   UNL d   1      32.875  18.635 -24.987  0.00  0.00     0.021 A 
ATOM      8  N   UNL d   1      31.968  17.391 -24.739  0.00  0.00    -0.224 NA
ATOM      9  C   UNL d   1      33.231  19.295 -24.659  0.00  0.00     0.002 A 
ATOM     10  C   UNL d   1      33.118  19.442 -23.875  0.00  0.00     0.002 A 
ENDBRANCH   1   2
BRANCH   1  11
ATOM     11  O   UNL d   1      30.661  16.116 -24.320  0.00  0.00    -0.302 OA
BRANCH  11  12
ATOM     12  C   UNL d   1      29.861  15.952 -24.142  0.00  0.00     0.100 A 
ATOM     13  C   UNL d   1      29.664  15.622 -23.410  0.00  0.00     0.027 A 
ATOM     14  C   UNL d   1      28.885  15.453 -23.212  0.00  0.00     0.026 A 
ATOM     15  C   UNL d   1      28.300  15.626 -23.775  0.00  0.00     0.094 A 
ATOM     16  C   UNL d   1      28.496  15.956 -24.507  0.00  0.00     0.026 A 
ATOM     17  C   UNL d   1      29.284  16.126 -24.705  0.00  0.00     0.027 A 
BRANCH  15  18
ATOM     18  O   UNL d   1      27.500  15.462 -23.597  0.00  0.00    -0.328 OA
ATOM     19  C   UNL d   1      26.531  15.453 -23.571  0.00  0.00     0.181 C 
ENDBRANCH  15  18
ENDBRANCH  11  12
ENDBRANCH   1  11
TORSDOF 4
ENDMDL
