MODEL 1
REMARK VINA RESULT:      66.1      0.000      0.000
REMARK  5 active torsions:
REMARK  status: ('A' for Active; 'I' for Inactive)
REMARK    1  A    between atoms: C_7  and  N_1 
REMARK    2  A    between atoms: C_10  and  C_2 
REMARK    3  A    between atoms: C_11  and  C_5 
REMARK    4  A    between atoms: C_9  and  C_7 
REMARK    5  A    between atoms: O_16  and  C_9 
ROOT
ATOM      1  N   UNL d   1      43.718 -15.624  36.941  0.00  0.00    -0.286 N 
ATOM      2  C   UNL d   1      42.901 -15.565  37.034  0.00  0.00     0.148 A 
ATOM      3  N   UNL d   1      42.586 -14.939  37.463  0.00  0.00    -0.228 NA
ATOM      4  C   UNL d   1      43.890 -14.442  37.701  0.00  0.00     0.035 A 
ATOM      5  C   UNL d   1      44.206 -15.056  37.280  0.00  0.00     0.067 A 
ATOM      6  C   UNL d   1      43.072 -14.383  37.794  0.00  0.00     0.084 A 
ATOM      7  C   UNL d   1      44.376 -13.881  38.035  0.00  0.00     0.014 A 
ATOM      8  C   UNL d   1      42.756 -13.764  38.218  0.00  0.00     0.020 A 
ATOM      9  C   UNL d   1      44.061 -13.255  38.464  0.00  0.00     0.058 A 
ATOM     10  C   UNL d   1      43.244 -13.196  38.557  0.00  0.00     0.013 A 
ATOM     11 CL   UNL d   1      44.560 -12.680  38.807  0.00  0.00    -0.082 Cl
ENDROOT
BRANCH   2  12
ATOM     12  C   UNL d   1      42.105 -15.878  36.882  0.00  0.00     0.035 A 
ATOM     13  C   UNL d   1      42.002 -16.646  36.480  0.00  0.00     0.003 A 
ATOM     14  C   UNL d   1      41.204 -16.954  36.331  0.00  0.00     0.000 A 
ATOM     15  C   UNL d   1      40.502 -16.490  36.586  0.00  0.00     0.000 A 
ATOM     16  C   UNL d   1      40.615 -15.723  36.988  0.00  0.00     0.000 A 
ATOM     17  C   UNL d   1      41.409 -15.418  37.135  0.00  0.00     0.003 A 
ENDBRANCH   2  12
BRANCH   1  18
ATOM     18  C   UNL d   1      44.033 -16.250  36.512  0.00  0.00     0.150 C 
BRANCH  18  19
ATOM     19  C   UNL d   1      44.041 -17.008  36.820  0.00  0.00     0.314 C 
ATOM     20  O   UNL d   1      43.954 -17.119  37.633  0.00  0.00    -0.257 OA
BRANCH  19  21
ATOM     21  O   UNL d   1      44.134 -17.652  36.332  0.00  0.00    -0.295 OA
ATOM     22  C   UNL d   1      44.773 -18.158  36.438  0.00  0.00     0.185 C 
ENDBRANCH  19  21
ENDBRANCH  18  19
ENDBRANCH   1  18
BRANCH   5  23
ATOM     23  C   UNL d   1      45.024 -15.115  37.187  0.00  0.00     0.016 A 
ATOM     24  C   UNL d   1      45.496 -15.252  37.831  0.00  0.00     0.001 A 
ATOM     25  C   UNL d   1      46.314 -15.311  37.738  0.00  0.00     0.000 A 
ATOM     26  C   UNL d   1      46.645 -15.232  37.004  0.00  0.00     0.000 A 
ATOM     27  C   UNL d   1      46.171 -15.091  36.332  0.00  0.00     0.000 A 
ATOM     28  C   UNL d   1      45.355 -15.034  36.438  0.00  0.00     0.001 A 
ENDBRANCH   5  23
TORSDOF 5
ENDMDL
MODEL 2
REMARK VINA RESULT:      67.9      6.025      7.176
REMARK  5 active torsions:
REMARK  status: ('A' for Active; 'I' for Inactive)
REMARK    1  A    between atoms: C_7  and  N_1 
REMARK    2  A    between atoms: C_10  and  C_2 
REMARK    3  A    between atoms: C_11  and  C_5 
REMARK    4  A    between atoms: C_9  and  C_7 
REMARK    5  A    between atoms: O_16  and  C_9 
ROOT
ATOM      1  N   UNL d   1      46.057 -17.387  42.505  0.00  0.00    -0.286 N 
ATOM      2  C   UNL d   1      45.933 -16.873  43.138  0.00  0.00     0.148 A 
ATOM      3  N   UNL d   1      45.978 -17.160  43.907  0.00  0.00    -0.228 NA
ATOM      4  C   UNL d   1      46.266 -18.454  43.412  0.00  0.00     0.035 A 
ATOM      5  C   UNL d   1      46.224 -18.178  42.652  0.00  0.00     0.067 A 
ATOM      6  C   UNL d   1      46.142 -17.940  44.045  0.00  0.00     0.084 A 
ATOM      7  C   UNL d   1      46.432 -19.238  43.553  0.00  0.00     0.014 A 
ATOM      8  C   UNL d   1      46.186 -18.220  44.808  0.00  0.00     0.020 A 
ATOM      9  C   UNL d   1      46.477 -19.525  44.322  0.00  0.00     0.058 A 
ATOM     10  C   UNL d   1      46.353 -19.011  44.955  0.00  0.00     0.013 A 
ATOM     11 CL   UNL d   1      46.646 -20.330  44.467  0.00  0.00    -0.082 Cl
ENDROOT
BRANCH   2  12
ATOM     12  C   UNL d   1      45.755 -16.076  43.432  0.00  0.00     0.035 A 
ATOM     13  C   UNL d   1      46.165 -15.381  43.098  0.00  0.00     0.003 A 
ATOM     14  C   UNL d   1      45.983 -14.585  43.397  0.00  0.00     0.000 A 
ATOM     15  C   UNL d   1      45.386 -14.485  44.035  0.00  0.00     0.000 A 
ATOM     16  C   UNL d   1      44.982 -15.185  44.363  0.00  0.00     0.000 A 
ATOM     17  C   UNL d   1      45.164 -15.975  44.065  0.00  0.00     0.003 A 
ENDBRANCH   2  12
BRANCH   1  18
ATOM     18  C   UNL d   1      46.012 -17.100  41.736  0.00  0.00     0.150 C 
BRANCH  18  19
ATOM     19  C   UNL d   1      45.349 -17.237  41.276  0.00  0.00     0.314 C 
ATOM     20  O   UNL d   1      44.649 -17.488  41.633  0.00  0.00    -0.257 OA
BRANCH  19  21
ATOM     21  O   UNL d   1      45.376 -17.126  40.470  0.00  0.00    -0.295 OA
ATOM     22  C   UNL d   1      44.692 -17.211  40.022  0.00  0.00     0.185 C 
ENDBRANCH  19  21
ENDBRANCH  18  19
ENDBRANCH   1  18
BRANCH   5  23
ATOM     23  C   UNL d   1      46.348 -18.692  42.018  0.00  0.00     0.016 A 
ATOM     24  C   UNL d   1      46.522 -18.397  41.284  0.00  0.00     0.001 A 
ATOM     25  C   UNL d   1      46.646 -18.910  40.651  0.00  0.00     0.000 A 
ATOM     26  C   UNL d   1      46.594 -19.711  40.762  0.00  0.00     0.000 A 
ATOM     27  C   UNL d   1      46.415 -20.029  41.513  0.00  0.00     0.000 A 
ATOM     28  C   UNL d   1      46.293 -19.504  42.138  0.00  0.00     0.001 A 
ENDBRANCH   5  23
TORSDOF 5
ENDMDL
MODEL 3
REMARK VINA RESULT:      68.8      1.769      4.243
REMARK  5 active torsions:
REMARK  status: ('A' for Active; 'I' for Inactive)
REMARK    1  A    between atoms: C_7  and  N_1 
REMARK    2  A    between atoms: C_10  and  C_2 
REMARK    3  A    between atoms: C_11  and  C_5 
REMARK    4  A    between atoms: C_9  and  C_7 
REMARK    5  A    between atoms: O_16  and  C_9 
ROOT
ATOM      1  N   UNL d   1      43.368 -14.706  37.101  0.00  0.00    -0.286 N 
ATOM      2  C   UNL d   1      44.039 -15.172  36.981  0.00  0.00     0.148 A 
ATOM      3  N   UNL d   1      43.952 -15.958  36.758  0.00  0.00    -0.228 NA
ATOM      4  C   UNL d   1      42.544 -15.811  36.777  0.00  0.00     0.035 A 
ATOM      5  C   UNL d   1      42.623 -15.036  36.997  0.00  0.00     0.067 A 
ATOM      6  C   UNL d   1      43.214 -16.276  36.657  0.00  0.00     0.084 A 
ATOM      7  C   UNL d   1      41.803 -16.133  36.674  0.00  0.00     0.014 A 
ATOM      8  C   UNL d   1      43.132 -17.055  36.436  0.00  0.00     0.020 A 
ATOM      9  C   UNL d   1      41.716 -16.919  36.451  0.00  0.00     0.058 A 
ATOM     10  C   UNL d   1      42.387 -17.384  36.331  0.00  0.00     0.013 A 
ATOM     11 CL   UNL d   1      40.957 -17.251  36.346  0.00  0.00    -0.082 Cl
ENDROOT
BRANCH   2  12
ATOM     12  C   UNL d   1      44.903 -15.252  36.973  0.00  0.00     0.035 A 
ATOM     13  C   UNL d   1      45.308 -15.729  37.581  0.00  0.00     0.003 A 
ATOM     14  C   UNL d   1      46.174 -15.806  37.567  0.00  0.00     0.000 A 
ATOM     15  C   UNL d   1      46.637 -15.401  36.939  0.00  0.00     0.000 A 
ATOM     16  C   UNL d   1      46.223 -14.925  36.335  0.00  0.00     0.000 A 
ATOM     17  C   UNL d   1      45.364 -14.851  36.351  0.00  0.00     0.003 A 
ENDBRANCH   2  12
BRANCH   1  18
ATOM     18  C   UNL d   1      43.455 -13.920  37.324  0.00  0.00     0.150 C 
BRANCH  18  19
ATOM     19  C   UNL d   1      43.827 -13.722  38.026  0.00  0.00     0.314 C 
ATOM     20  O   UNL d   1      43.730 -14.203  38.689  0.00  0.00    -0.257 OA
BRANCH  19  21
ATOM     21  O   UNL d   1      44.291 -13.055  38.074  0.00  0.00    -0.295 OA
ATOM     22  C   UNL d   1      44.286 -12.602  38.760  0.00  0.00     0.185 C 
ENDBRANCH  19  21
ENDBRANCH  18  19
ENDBRANCH   1  18
BRANCH   5  23
ATOM     23  C   UNL d   1      41.952 -14.570  37.117  0.00  0.00     0.016 A 
ATOM     24  C   UNL d   1      41.611 -14.181  36.494  0.00  0.00     0.001 A 
ATOM     25  C   UNL d   1      40.940 -13.716  36.614  0.00  0.00     0.000 A 
ATOM     26  C   UNL d   1      40.622 -13.648  37.355  0.00  0.00     0.000 A 
ATOM     27  C   UNL d   1      40.963 -14.043  38.007  0.00  0.00     0.000 A 
ATOM     28  C   UNL d   1      41.633 -14.505  37.873  0.00  0.00     0.001 A 
ENDBRANCH   5  23
TORSDOF 5
ENDMDL
