MODEL 1
REMARK VINA RESULT:      18.9      0.000      0.000
REMARK  2 active torsions:
REMARK  status: ('A' for Active; 'I' for Inactive)
REMARK    1  A    between atoms: C_6  and  N_1 
REMARK    2  A    between atoms: C_7  and  C_6 
ROOT
ATOM      1  N   UNL d   1     -57.316 -98.757 -44.290  0.00  0.00    -0.287 N 
ATOM      2  N   UNL d   1     -58.165 -98.757 -45.333  0.00  0.00    -0.224 NA
ATOM      3  C   UNL d   1     -57.384 -98.757 -45.117  0.00  0.00     0.183 A 
ATOM      4  C   UNL d   1     -58.087 -98.756 -43.976  0.00  0.00     0.083 A 
ATOM      5  C   UNL d   1     -58.627 -98.757 -44.640  0.00  0.00     0.099 A 
ATOM      6  C   UNL d   1     -58.400 -98.756 -43.229  0.00  0.00     0.019 A 
ATOM      7  C   UNL d   1     -59.422 -98.756 -44.487  0.00  0.00     0.021 A 
ATOM      8  C   UNL d   1     -59.175 -98.756 -43.092  0.00  0.00     0.002 A 
ATOM      9  C   UNL d   1     -59.715 -98.756 -43.755  0.00  0.00     0.002 A 
ENDROOT
BRANCH   1  10
ATOM     10  C   UNL d   1     -56.564 -98.757 -43.971  0.00  0.00     0.082 C 
BRANCH  10  11
ATOM     11  C   UNL d   1     -55.964 -99.211 -44.250  0.00  0.00     0.018 A 
ATOM     12  C   UNL d   1     -55.932-100.014 -44.150  0.00  0.00     0.002 A 
ATOM     13  C   UNL d   1     -55.328-100.478 -44.430  0.00  0.00     0.000 A 
ATOM     14  C   UNL d   1     -55.314-101.298 -44.316  0.00  0.00     0.000 C 
ATOM     15  C   UNL d   1     -54.713-100.110 -44.839  0.00  0.00     0.000 A 
ATOM     16  C   UNL d   1     -54.723 -99.293 -44.954  0.00  0.00     0.000 A 
ATOM     17  C   UNL d   1     -55.349 -98.844 -44.659  0.00  0.00     0.002 A 
ENDBRANCH  10  11
ENDBRANCH   1  10
TORSDOF 2
ENDMDL
