MODEL 1
REMARK VINA RESULT:      -0.3      0.000      0.000
REMARK  5 active torsions:
REMARK  status: ('A' for Active; 'I' for Inactive)
REMARK    1  A    between atoms: S_6  and  C_2 
REMARK    2  A    between atoms: C_8  and  C_4 
REMARK    3  A    between atoms: C_11  and  S_6 
REMARK    4  A    between atoms: C_7  and  C_11 
REMARK       I    between atoms: N_9  and  C_7 
REMARK    5  A    between atoms: C_15  and  N_9 
ROOT
ATOM      1  N   UNL d   1      58.383   0.416  32.447  0.00  0.00    -0.244 NA
ATOM      2  C   UNL d   1      57.588   0.232  32.305  0.00  0.00     0.125 A 
ATOM      3  N   UNL d   1      57.739   0.423  33.615  0.00  0.00    -0.250 NA
ATOM      4  C   UNL d   1      57.200   0.236  33.009  0.00  0.00     0.101 A 
ATOM      5  C   UNL d   1      58.556   0.551  33.265  0.00  0.00     0.168 A 
ATOM      6  C   UNL d   1      58.683   0.677  34.081  0.00  0.00     0.050 C 
ATOM      7  C   UNL d   1      59.192   0.619  32.731  0.00  0.00     0.050 C 
ENDROOT
BRANCH   2   8
ATOM      8  S   UNL d   1      57.248   0.070  31.562  0.00  0.00    -0.061 SA
BRANCH   8   9
ATOM      9  C   UNL d   1      57.730  -0.037  30.903  0.00  0.00     0.099 C 
BRANCH   9  10
ATOM     10  C   UNL d   1      57.481   0.219  30.167  0.00  0.00     0.286 C 
ATOM     11  N   UNL d   1      57.900   0.017  29.497  0.00  0.00    -0.208 NA
ATOM     12  O   UNL d   1      56.807   0.681  30.108  0.00  0.00    -0.265 OA
BRANCH  11  13
ATOM     13  C   UNL d   1      58.567  -0.440  29.556  0.00  0.00     0.085 A 
ATOM     14  C   UNL d   1      58.501  -1.228  29.752  0.00  0.00     0.019 A 
ATOM     15  C   UNL d   1      59.174  -1.705  29.815  0.00  0.00     0.002 A 
ATOM     16  C   UNL d   1      59.913  -1.376  29.678  0.00  0.00     0.000 A 
ATOM     17  C   UNL d   1      59.984  -0.581  29.480  0.00  0.00     0.002 A 
ATOM     18  C   UNL d   1      59.313  -0.117  29.420  0.00  0.00     0.019 A 
ENDBRANCH  11  13
ENDBRANCH   9  10
ENDBRANCH   8   9
ENDBRANCH   2   8
BRANCH   4  19
ATOM     19  C   UNL d   1      56.402   0.088  33.164  0.00  0.00     0.019 A 
ATOM     20  C   UNL d   1      55.926   0.679  33.498  0.00  0.00     0.002 A 
ATOM     21  C   UNL d   1      55.140   0.533  33.651  0.00  0.00     0.011 A 
ATOM     22  C   UNL d   1      54.802  -0.217  33.472  0.00  0.00     0.058 A 
ATOM     23  C   UNL d   1      55.266  -0.783  33.150  0.00  0.00     0.011 A 
ATOM     24 CL   UNL d   1      53.995  -0.366  33.629  0.00  0.00    -0.082 Cl
ATOM     25  C   UNL d   1      56.072  -0.649  32.987  0.00  0.00     0.002 A 
ENDBRANCH   4  19
TORSDOF 5
ENDMDL
MODEL 2
REMARK VINA RESULT:       1.2      1.959      4.352
REMARK  5 active torsions:
REMARK  status: ('A' for Active; 'I' for Inactive)
REMARK    1  A    between atoms: S_6  and  C_2 
REMARK    2  A    between atoms: C_8  and  C_4 
REMARK    3  A    between atoms: C_11  and  S_6 
REMARK    4  A    between atoms: C_7  and  C_11 
REMARK       I    between atoms: N_9  and  C_7 
REMARK    5  A    between atoms: C_15  and  N_9 
ROOT
ATOM      1  N   UNL d   1      59.067   0.075  30.642  0.00  0.00    -0.244 NA
ATOM      2  C   UNL d   1      58.585  -0.552  30.395  0.00  0.00     0.125 A 
ATOM      3  N   UNL d   1      59.810  -0.756  29.911  0.00  0.00    -0.250 NA
ATOM      4  C   UNL d   1      59.034  -1.053  29.954  0.00  0.00     0.101 A 
ATOM      5  C   UNL d   1      59.866   0.013  30.370  0.00  0.00     0.168 A 
ATOM      6  C   UNL d   1      60.644  -0.086  30.081  0.00  0.00     0.050 C 
ATOM      7  C   UNL d   1      59.679   0.678  30.836  0.00  0.00     0.050 C 
ENDROOT
BRANCH   2   8
ATOM      8  S   UNL d   1      57.778  -0.649  30.571  0.00  0.00    -0.061 SA
BRANCH   8   9
ATOM      9  C   UNL d   1      57.451  -0.273  31.228  0.00  0.00     0.099 C 
BRANCH   9  10
ATOM     10  C   UNL d   1      56.856   0.279  31.130  0.00  0.00     0.286 C 
ATOM     11  N   UNL d   1      56.332   0.431  31.736  0.00  0.00    -0.208 NA
ATOM     12  O   UNL d   1      56.791   0.680  30.419  0.00  0.00    -0.265 OA
BRANCH  11  13
ATOM     13  C   UNL d   1      56.396   0.034  32.440  0.00  0.00     0.085 A 
ATOM     14  C   UNL d   1      56.870   0.335  33.031  0.00  0.00     0.019 A 
ATOM     15  C   UNL d   1      56.944  -0.061  33.755  0.00  0.00     0.002 A 
ATOM     16  C   UNL d   1      56.535  -0.761  33.872  0.00  0.00     0.000 A 
ATOM     17  C   UNL d   1      56.056  -1.068  33.278  0.00  0.00     0.002 A 
ATOM     18  C   UNL d   1      55.988  -0.671  32.566  0.00  0.00     0.019 A 
ENDBRANCH  11  13
ENDBRANCH   9  10
ENDBRANCH   8   9
ENDBRANCH   2   8
BRANCH   4  19
ATOM     19  C   UNL d   1      58.813  -1.758  29.582  0.00  0.00     0.019 A 
ATOM     20  C   UNL d   1      58.450  -1.739  28.838  0.00  0.00     0.002 A 
ATOM     21  C   UNL d   1      58.233  -2.433  28.472  0.00  0.00     0.011 A 
ATOM     22  C   UNL d   1      58.375  -3.175  28.844  0.00  0.00     0.058 A 
ATOM     23  C   UNL d   1      58.727  -3.187  29.562  0.00  0.00     0.011 A 
ATOM     24 CL   UNL d   1      58.152  -3.887  28.467  0.00  0.00    -0.082 Cl
ATOM     25  C   UNL d   1      58.954  -2.485  29.949  0.00  0.00     0.002 A 
ENDBRANCH   4  19
TORSDOF 5
ENDMDL
MODEL 3
REMARK VINA RESULT:       2.4      9.178     10.172
REMARK  5 active torsions:
REMARK  status: ('A' for Active; 'I' for Inactive)
REMARK    1  A    between atoms: S_6  and  C_2 
REMARK    2  A    between atoms: C_8  and  C_4 
REMARK    3  A    between atoms: C_11  and  S_6 
REMARK    4  A    between atoms: C_7  and  C_11 
REMARK       I    between atoms: N_9  and  C_7 
REMARK    5  A    between atoms: C_15  and  N_9 
ROOT
ATOM      1  N   UNL d   1      60.260  -9.729  32.292  0.00  0.00    -0.244 NA
ATOM      2  C   UNL d   1      59.433  -9.758  32.272  0.00  0.00     0.125 A 
ATOM      3  N   UNL d   1      59.873  -9.665  31.018  0.00  0.00    -0.250 NA
ATOM      4  C   UNL d   1      59.199  -9.720  31.504  0.00  0.00     0.101 A 
ATOM      5  C   UNL d   1      60.614  -9.669  31.525  0.00  0.00     0.168 A 
ATOM      6  C   UNL d   1      60.921  -9.610  30.750  0.00  0.00     0.050 C 
ATOM      7  C   UNL d   1      61.133  -9.689  32.176  0.00  0.00     0.050 C 
ENDROOT
BRANCH   2   8
ATOM      8  S   UNL d   1      58.929  -9.818  32.932  0.00  0.00    -0.061 SA
BRANCH   8   9
ATOM      9  C   UNL d   1      59.143  -9.469  33.647  0.00  0.00     0.099 C 
BRANCH   9  10
ATOM     10  C   UNL d   1      58.610  -9.442  34.266  0.00  0.00     0.286 C 
ATOM     11  N   UNL d   1      58.804  -9.060  34.960  0.00  0.00    -0.208 NA
ATOM     12  O   UNL d   1      57.879  -9.802  34.185  0.00  0.00    -0.265 OA
BRANCH  11  13
ATOM     13  C   UNL d   1      59.528  -8.704  35.041  0.00  0.00     0.085 A 
ATOM     14  C   UNL d   1      59.576  -7.892  35.084  0.00  0.00     0.019 A 
ATOM     15  C   UNL d   1      60.309  -7.516  35.167  0.00  0.00     0.002 A 
ATOM     16  C   UNL d   1      60.990  -7.971  35.206  0.00  0.00     0.000 A 
ATOM     17  C   UNL d   1      60.946  -8.792  35.163  0.00  0.00     0.002 A 
ATOM     18  C   UNL d   1      60.218  -9.154  35.081  0.00  0.00     0.019 A 
ENDBRANCH  11  13
ENDBRANCH   9  10
ENDBRANCH   8   9
ENDBRANCH   2   8
BRANCH   4  19
ATOM     19  C   UNL d   1      58.434  -9.729  31.191  0.00  0.00     0.019 A 
ATOM     20  C   UNL d   1      58.320  -9.715  30.371  0.00  0.00     0.002 A 
ATOM     21  C   UNL d   1      57.566  -9.725  30.063  0.00  0.00     0.011 A 
ATOM     22  C   UNL d   1      56.897  -9.748  30.574  0.00  0.00     0.058 A 
ATOM     23  C   UNL d   1      57.013  -9.762  31.364  0.00  0.00     0.011 A 
ATOM     24 CL   UNL d   1      56.124  -9.758  30.257  0.00  0.00    -0.082 Cl
ATOM     25  C   UNL d   1      57.779  -9.753  31.694  0.00  0.00     0.002 A 
ENDBRANCH   4  19
TORSDOF 5
ENDMDL
