MODEL 1
REMARK VINA RESULT:      -6.2      0.000      0.000
REMARK  4 active torsions:
REMARK  status: ('A' for Active; 'I' for Inactive)
REMARK    1  A    between atoms: C_2  and  C_1 
REMARK       I    between atoms: N_5  and  C_1 
REMARK    2  A    between atoms: C_4  and  C_2 
REMARK    3  A    between atoms: C_3  and  C_4 
REMARK    4  A    between atoms: C_9  and  N_5 
ROOT
ATOM      1  C   UNL d   1     -48.000  12.528  23.029  0.00  0.00     0.280 C 
ATOM      2  N   UNL d   1     -48.536  11.931  22.797  0.00  0.00    -0.208 NA
ATOM      3  O   UNL d   1     -48.268  13.237  23.353  0.00  0.00    -0.265 OA
ENDROOT
BRANCH   1   4
ATOM      4  C   UNL d   1     -47.195  12.405  22.932  0.00  0.00     0.069 C 
BRANCH   4   5
ATOM      5  C   UNL d   1     -46.659  13.033  23.070  0.00  0.00     0.075 C 
BRANCH   5   6
ATOM      6  C   UNL d   1     -45.845  12.921  22.917  0.00  0.00     0.211 C 
ATOM      7  O   UNL d   1     -45.442  13.458  22.418  0.00  0.00    -0.644 OA
ATOM      8  O   UNL d   1     -45.425  12.287  23.249  0.00  0.00    -0.644 OA
ENDBRANCH   5   6
ENDBRANCH   4   5
ENDBRANCH   1   4
BRANCH   2   9
ATOM      9  C   UNL d   1     -49.355  12.060  22.898  0.00  0.00     0.085 A 
ATOM     10  C   UNL d   1     -49.795  12.426  22.300  0.00  0.00     0.019 A 
ATOM     11  C   UNL d   1     -50.597  12.555  22.394  0.00  0.00     0.002 A 
ATOM     12  C   UNL d   1     -50.979  12.323  23.084  0.00  0.00     0.000 A 
ATOM     13  C   UNL d   1     -50.540  11.950  23.698  0.00  0.00     0.002 A 
ATOM     14  C   UNL d   1     -49.734  11.827  23.588  0.00  0.00     0.019 A 
ENDBRANCH   2   9
TORSDOF 4
ENDMDL
MODEL 2
REMARK VINA RESULT:      -6.1      2.045      2.336
REMARK  4 active torsions:
REMARK  status: ('A' for Active; 'I' for Inactive)
REMARK    1  A    between atoms: C_2  and  C_1 
REMARK       I    between atoms: N_5  and  C_1 
REMARK    2  A    between atoms: C_4  and  C_2 
REMARK    3  A    between atoms: C_3  and  C_4 
REMARK    4  A    between atoms: C_9  and  N_5 
ROOT
ATOM      1  C   UNL d   1     -48.025  14.201  22.894  0.00  0.00     0.280 C 
ATOM      2  N   UNL d   1     -48.386  14.916  22.657  0.00  0.00    -0.208 NA
ATOM      3  O   UNL d   1     -48.471  13.582  23.206  0.00  0.00    -0.265 OA
ENDROOT
BRANCH   1   4
ATOM      4  C   UNL d   1     -47.213  14.116  22.814  0.00  0.00     0.069 C 
BRANCH   4   5
ATOM      5  C   UNL d   1     -46.877  13.350  22.787  0.00  0.00     0.075 C 
BRANCH   5   6
ATOM      6  C   UNL d   1     -46.047  13.262  22.841  0.00  0.00     0.211 C 
ATOM      7  O   UNL d   1     -45.722  12.774  23.438  0.00  0.00    -0.644 OA
ATOM      8  O   UNL d   1     -45.535  13.649  22.314  0.00  0.00    -0.644 OA
ENDBRANCH   5   6
ENDBRANCH   4   5
ENDBRANCH   1   4
BRANCH   2   9
ATOM      9  C   UNL d   1     -49.214  14.999  22.740  0.00  0.00     0.085 A 
ATOM     10  C   UNL d   1     -49.527  15.418  23.381  0.00  0.00     0.019 A 
ATOM     11  C   UNL d   1     -50.336  15.501  23.466  0.00  0.00     0.002 A 
ATOM     12  C   UNL d   1     -50.850  15.170  22.917  0.00  0.00     0.000 A 
ATOM     13  C   UNL d   1     -50.541  14.742  22.262  0.00  0.00     0.002 A 
ATOM     14  C   UNL d   1     -49.725  14.667  22.190  0.00  0.00     0.019 A 
ENDBRANCH   2   9
TORSDOF 4
ENDMDL
MODEL 3
REMARK VINA RESULT:      -5.9      1.382      3.893
REMARK  4 active torsions:
REMARK  status: ('A' for Active; 'I' for Inactive)
REMARK    1  A    between atoms: C_2  and  C_1 
REMARK       I    between atoms: N_5  and  C_1 
REMARK    2  A    between atoms: C_4  and  C_2 
REMARK    3  A    between atoms: C_3  and  C_4 
REMARK    4  A    between atoms: C_9  and  N_5 
ROOT
ATOM      1  C   UNL d   1     -48.298  12.448  23.010  0.00  0.00     0.280 C 
ATOM      2  N   UNL d   1     -47.692  12.741  23.504  0.00  0.00    -0.208 NA
ATOM      3  O   UNL d   1     -48.244  12.506  22.189  0.00  0.00    -0.265 OA
ENDROOT
BRANCH   1   4
ATOM      4  C   UNL d   1     -48.958  12.097  23.349  0.00  0.00     0.069 C 
BRANCH   4   5
ATOM      5  C   UNL d   1     -49.672  12.050  22.915  0.00  0.00     0.075 C 
BRANCH   5   6
ATOM      6  C   UNL d   1     -50.372  11.802  23.300  0.00  0.00     0.211 C 
ATOM      7  O   UNL d   1     -50.385  11.065  23.697  0.00  0.00    -0.644 OA
ATOM      8  O   UNL d   1     -51.057  12.270  23.298  0.00  0.00    -0.644 OA
ENDBRANCH   5   6
ENDBRANCH   4   5
ENDBRANCH   1   4
BRANCH   2   9
ATOM      9  C   UNL d   1     -47.022  13.098  23.155  0.00  0.00     0.085 A 
ATOM     10  C   UNL d   1     -46.370  12.636  22.940  0.00  0.00     0.019 A 
ATOM     11  C   UNL d   1     -45.712  12.981  22.598  0.00  0.00     0.002 A 
ATOM     12  C   UNL d   1     -45.688  13.791  22.463  0.00  0.00     0.000 A 
ATOM     13  C   UNL d   1     -46.346  14.269  22.679  0.00  0.00     0.002 A 
ATOM     14  C   UNL d   1     -47.000  13.908  23.022  0.00  0.00     0.019 A 
ENDBRANCH   2   9
TORSDOF 4
ENDMDL
