MODEL 1
REMARK VINA RESULT:      -2.8      0.000      0.000
REMARK  7 active torsions:
REMARK  status: ('A' for Active; 'I' for Inactive)
REMARK    1  A    between atoms: C_4  and  N_1 
REMARK    2  A    between atoms: O_2  and  C_10 
REMARK    3  A    between atoms: C_3  and  O_2 
REMARK    4  A    between atoms: C_9  and  C_4 
REMARK    5  A    between atoms: C_12  and  C_6 
REMARK    6  A    between atoms: C_7  and  C_12 
REMARK    7  A    between atoms: C_10  and  C_9 
ROOT
ATOM      1  O   UNL d   1      58.936  -0.994  29.392  0.00  0.00    -0.302 OA
ENDROOT
BRANCH   1   2
ATOM      2  C   UNL d   1      58.892  -0.342  29.897  0.00  0.00     0.166 C 
BRANCH   2   3
ATOM      3  C   UNL d   1      58.167  -0.062  30.157  0.00  0.00     0.238 C 
ATOM      4  O   UNL d   1      57.522  -0.064  29.666  0.00  0.00    -0.283 OA
BRANCH   3   5
ATOM      5  C   UNL d   1      58.105   0.222  30.929  0.00  0.00     0.125 C 
BRANCH   5   6
ATOM      6  N   UNL d   1      57.444   0.068  31.372  0.00  0.00    -0.296 N 
ATOM      7  C   UNL d   1      57.234  -0.709  31.555  0.00  0.00     0.107 A 
ATOM      8  C   UNL d   1      56.561  -0.866  32.007  0.00  0.00     0.142 A 
ATOM      9  O   UNL d   1      56.100  -0.246  32.273  0.00  0.00    -0.300 OA
ATOM     10  C   UNL d   1      56.299   0.517  32.098  0.00  0.00     0.142 A 
ATOM     11  C   UNL d   1      56.973   0.674  31.646  0.00  0.00     0.107 A 
ENDBRANCH   5   6
ENDBRANCH   3   5
ENDBRANCH   2   3
ENDBRANCH   1   2
BRANCH   1  12
ATOM     12  C   UNL d   1      59.675  -1.255  29.114  0.00  0.00     0.100 A 
ATOM     13  C   UNL d   1      59.760  -2.030  28.822  0.00  0.00     0.023 A 
ATOM     14  C   UNL d   1      60.487  -2.290  28.548  0.00  0.00     0.002 A 
ATOM     15  C   UNL d   1      61.132  -1.781  28.562  0.00  0.00     0.000 A 
ATOM     16  C   UNL d   1      61.047  -1.007  28.855  0.00  0.00     0.002 A 
ATOM     17  C   UNL d   1      60.319  -0.762  29.124  0.00  0.00     0.025 A 
BRANCH  13  18
ATOM     18  C   UNL d   1      59.108  -2.552  28.804  0.00  0.00     0.002 C 
BRANCH  18  19
ATOM     19  C   UNL d   1      59.205  -3.345  28.570  0.00  0.00     0.000 C 
ATOM     20  C   UNL d   1      58.553  -3.808  28.455  0.00  0.00     0.000 C 
ENDBRANCH  18  19
ENDBRANCH  13  18
ENDBRANCH   1  12
TORSDOF 7
ENDMDL
MODEL 2
REMARK VINA RESULT:      -2.7      1.457      4.902
REMARK  7 active torsions:
REMARK  status: ('A' for Active; 'I' for Inactive)
REMARK    1  A    between atoms: C_4  and  N_1 
REMARK    2  A    between atoms: O_2  and  C_10 
REMARK    3  A    between atoms: C_3  and  O_2 
REMARK    4  A    between atoms: C_9  and  C_4 
REMARK    5  A    between atoms: C_12  and  C_6 
REMARK    6  A    between atoms: C_7  and  C_12 
REMARK    7  A    between atoms: C_10  and  C_9 
ROOT
ATOM      1  O   UNL d   1      57.491  -0.056  31.879  0.00  0.00    -0.302 OA
ENDROOT
BRANCH   1   2
ATOM      2  C   UNL d   1      57.670  -0.394  31.147  0.00  0.00     0.166 C 
BRANCH   2   3
ATOM      3  C   UNL d   1      58.228  -0.053  30.653  0.00  0.00     0.238 C 
ATOM      4  O   UNL d   1      58.856   0.357  30.958  0.00  0.00    -0.283 OA
BRANCH   3   5
ATOM      5  C   UNL d   1      58.138  -0.137  29.837  0.00  0.00     0.125 C 
BRANCH   5   6
ATOM      6  N   UNL d   1      58.751  -0.408  29.382  0.00  0.00    -0.296 N 
ATOM      7  C   UNL d   1      58.880  -1.219  29.294  0.00  0.00     0.107 A 
ATOM      8  C   UNL d   1      59.505  -1.496  28.830  0.00  0.00     0.142 A 
ATOM      9  O   UNL d   1      59.997  -0.961  28.456  0.00  0.00    -0.300 OA
ATOM     10  C   UNL d   1      59.876  -0.167  28.537  0.00  0.00     0.142 A 
ATOM     11  C   UNL d   1      59.252   0.110  29.001  0.00  0.00     0.107 A 
ENDBRANCH   5   6
ENDBRANCH   3   5
ENDBRANCH   2   3
ENDBRANCH   1   2
BRANCH   1  12
ATOM     12  C   UNL d   1      56.843  -0.334  32.319  0.00  0.00     0.100 A 
ATOM     13  C   UNL d   1      56.697  -0.033  33.081  0.00  0.00     0.023 A 
ATOM     14  C   UNL d   1      56.059  -0.304  33.517  0.00  0.00     0.002 A 
ATOM     15  C   UNL d   1      55.562  -0.876  33.196  0.00  0.00     0.000 A 
ATOM     16  C   UNL d   1      55.708  -1.176  32.434  0.00  0.00     0.002 A 
ATOM     17  C   UNL d   1      56.346  -0.897  32.013  0.00  0.00     0.025 A 
BRANCH  13  18
ATOM     18  C   UNL d   1      57.198   0.548  33.413  0.00  0.00     0.002 C 
BRANCH  18  19
ATOM     19  C   UNL d   1      57.284   0.613  34.238  0.00  0.00     0.000 C 
ATOM     20  C   UNL d   1      58.024   0.682  34.556  0.00  0.00     0.000 C 
ENDBRANCH  18  19
ENDBRANCH  13  18
ENDBRANCH   1  12
TORSDOF 7
ENDMDL
MODEL 3
REMARK VINA RESULT:      -2.1      2.232      3.057
REMARK  7 active torsions:
REMARK  status: ('A' for Active; 'I' for Inactive)
REMARK    1  A    between atoms: C_4  and  N_1 
REMARK    2  A    between atoms: O_2  and  C_10 
REMARK    3  A    between atoms: C_3  and  O_2 
REMARK    4  A    between atoms: C_9  and  C_4 
REMARK    5  A    between atoms: C_12  and  C_6 
REMARK    6  A    between atoms: C_7  and  C_12 
REMARK    7  A    between atoms: C_10  and  C_9 
ROOT
ATOM      1  O   UNL d   1      58.075   0.411  31.055  0.00  0.00    -0.302 OA
ENDROOT
BRANCH   1   2
ATOM      2  C   UNL d   1      57.355   0.537  31.441  0.00  0.00     0.166 C 
BRANCH   2   3
ATOM      3  C   UNL d   1      57.267   0.351  32.234  0.00  0.00     0.238 C 
ATOM      4  O   UNL d   1      57.832   0.560  32.775  0.00  0.00    -0.283 OA
BRANCH   3   5
ATOM      5  C   UNL d   1      56.589  -0.056  32.473  0.00  0.00     0.125 C 
BRANCH   5   6
ATOM      6  N   UNL d   1      56.171   0.187  33.122  0.00  0.00    -0.296 N 
ATOM      7  C   UNL d   1      55.354   0.294  33.078  0.00  0.00     0.107 A 
ATOM      8  C   UNL d   1      54.927   0.542  33.741  0.00  0.00     0.142 A 
ATOM      9  O   UNL d   1      55.320   0.682  34.444  0.00  0.00    -0.300 OA
ATOM     10  C   UNL d   1      56.120   0.579  34.495  0.00  0.00     0.142 A 
ATOM     11  C   UNL d   1      56.546   0.332  33.832  0.00  0.00     0.107 A 
ENDBRANCH   5   6
ENDBRANCH   3   5
ENDBRANCH   2   3
ENDBRANCH   1   2
BRANCH   1  12
ATOM     12  C   UNL d   1      58.123   0.489  30.229  0.00  0.00     0.100 A 
ATOM     13  C   UNL d   1      58.865   0.547  29.859  0.00  0.00     0.023 A 
ATOM     14  C   UNL d   1      58.916   0.623  29.045  0.00  0.00     0.002 A 
ATOM     15  C   UNL d   1      58.228   0.642  28.595  0.00  0.00     0.000 A 
ATOM     16  C   UNL d   1      57.485   0.584  28.966  0.00  0.00     0.002 A 
ATOM     17  C   UNL d   1      57.451   0.508  29.776  0.00  0.00     0.025 A 
BRANCH  13  18
ATOM     18  C   UNL d   1      59.569   0.528  30.310  0.00  0.00     0.002 C 
BRANCH  18  19
ATOM     19  C   UNL d   1      60.295   0.329  29.956  0.00  0.00     0.000 C 
ATOM     20  C   UNL d   1      60.912   0.091  30.421  0.00  0.00     0.000 C 
ENDBRANCH  18  19
ENDBRANCH  13  18
ENDBRANCH   1  12
TORSDOF 7
ENDMDL
MODEL 4
REMARK VINA RESULT:      -1.6      8.710      9.241
REMARK  7 active torsions:
REMARK  status: ('A' for Active; 'I' for Inactive)
REMARK    1  A    between atoms: C_4  and  N_1 
REMARK    2  A    between atoms: O_2  and  C_10 
REMARK    3  A    between atoms: C_3  and  O_2 
REMARK    4  A    between atoms: C_9  and  C_4 
REMARK    5  A    between atoms: C_12  and  C_6 
REMARK    6  A    between atoms: C_7  and  C_12 
REMARK    7  A    between atoms: C_10  and  C_9 
ROOT
ATOM      1  O   UNL d   1      59.178  -9.555  32.046  0.00  0.00    -0.302 OA
ENDROOT
BRANCH   1   2
ATOM      2  C   UNL d   1      59.099  -9.781  32.836  0.00  0.00     0.166 C 
BRANCH   2   3
ATOM      3  C   UNL d   1      59.585  -9.463  33.414  0.00  0.00     0.238 C 
ATOM      4  O   UNL d   1      60.081  -8.845  33.244  0.00  0.00    -0.283 OA
BRANCH   3   5
ATOM      5  C   UNL d   1      59.560  -9.783  34.174  0.00  0.00     0.125 C 
BRANCH   5   6
ATOM      6  N   UNL d   1      59.721  -9.323  34.820  0.00  0.00    -0.296 N 
ATOM      7  C   UNL d   1      59.168  -8.775  35.093  0.00  0.00     0.107 A 
ATOM      8  C   UNL d   1      59.332  -8.304  35.752  0.00  0.00     0.142 A 
ATOM      9  O   UNL d   1      60.050  -8.385  36.135  0.00  0.00    -0.300 OA
ATOM     10  C   UNL d   1      60.597  -8.919  35.874  0.00  0.00     0.142 A 
ATOM     11  C   UNL d   1      60.432  -9.389  35.215  0.00  0.00     0.107 A 
ENDBRANCH   5   6
ENDBRANCH   3   5
ENDBRANCH   2   3
ENDBRANCH   1   2
BRANCH   1  12
ATOM     12  C   UNL d   1      58.538  -9.643  31.522  0.00  0.00     0.100 A 
ATOM     13  C   UNL d   1      58.674  -9.680  30.702  0.00  0.00     0.023 A 
ATOM     14  C   UNL d   1      58.047  -9.767  30.183  0.00  0.00     0.002 A 
ATOM     15  C   UNL d   1      57.281  -9.817  30.477  0.00  0.00     0.000 A 
ATOM     16  C   UNL d   1      57.145  -9.780  31.297  0.00  0.00     0.002 A 
ATOM     17  C   UNL d   1      57.779  -9.694  31.801  0.00  0.00     0.025 A 
BRANCH  13  18
ATOM     18  C   UNL d   1      59.451  -9.629  30.396  0.00  0.00     0.002 C 
BRANCH  18  19
ATOM     19  C   UNL d   1      59.606  -9.818  29.601  0.00  0.00     0.000 C 
ATOM     20  C   UNL d   1      60.245  -9.487  29.232  0.00  0.00     0.000 C 
ENDBRANCH  18  19
ENDBRANCH  13  18
ENDBRANCH   1  12
TORSDOF 7
ENDMDL
MODEL 5
REMARK VINA RESULT:      -1.1      8.296      9.781
REMARK  7 active torsions:
REMARK  status: ('A' for Active; 'I' for Inactive)
REMARK    1  A    between atoms: C_4  and  N_1 
REMARK    2  A    between atoms: O_2  and  C_10 
REMARK    3  A    between atoms: C_3  and  O_2 
REMARK    4  A    between atoms: C_9  and  C_4 
REMARK    5  A    between atoms: C_12  and  C_6 
REMARK    6  A    between atoms: C_7  and  C_12 
REMARK    7  A    between atoms: C_10  and  C_9 
ROOT
ATOM      1  O   UNL d   1      59.542  -9.003  34.142  0.00  0.00    -0.302 OA
ENDROOT
BRANCH   1   2
ATOM      2  C   UNL d   1      59.567  -9.655  33.636  0.00  0.00     0.166 C 
BRANCH   2   3
ATOM      3  C   UNL d   1      59.091  -9.687  32.969  0.00  0.00     0.238 C 
ATOM      4  O   UNL d   1      58.288  -9.603  33.029  0.00  0.00    -0.283 OA
BRANCH   3   5
ATOM      5  C   UNL d   1      59.446  -9.805  32.234  0.00  0.00     0.125 C 
BRANCH   5   6
ATOM      6  N   UNL d   1      59.000  -9.809  31.557  0.00  0.00    -0.296 N 
ATOM      7  C   UNL d   1      59.363  -9.814  30.816  0.00  0.00     0.107 A 
ATOM      8  C   UNL d   1      58.909  -9.818  30.127  0.00  0.00     0.142 A 
ATOM      9  O   UNL d   1      58.093  -9.818  30.182  0.00  0.00    -0.300 OA
ATOM     10  C   UNL d   1      57.731  -9.813  30.903  0.00  0.00     0.142 A 
ATOM     11  C   UNL d   1      58.185  -9.809  31.593  0.00  0.00     0.107 A 
ENDBRANCH   5   6
ENDBRANCH   3   5
ENDBRANCH   2   3
ENDBRANCH   1   2
BRANCH   1  12
ATOM     12  C   UNL d   1      59.935  -9.030  34.874  0.00  0.00     0.100 A 
ATOM     13  C   UNL d   1      59.881  -8.387  35.399  0.00  0.00     0.023 A 
ATOM     14  C   UNL d   1      60.266  -8.410  36.121  0.00  0.00     0.002 A 
ATOM     15  C   UNL d   1      60.708  -9.073  36.325  0.00  0.00     0.000 A 
ATOM     16  C   UNL d   1      60.762  -9.716  35.800  0.00  0.00     0.002 A 
ATOM     17  C   UNL d   1      60.373  -9.679  35.085  0.00  0.00     0.025 A 
BRANCH  13  18
ATOM     18  C   UNL d   1      59.433  -7.709  35.198  0.00  0.00     0.002 C 
BRANCH  18  19
ATOM     19  C   UNL d   1      59.125  -7.214  35.792  0.00  0.00     0.000 C 
ATOM     20  C   UNL d   1      58.864  -6.475  35.595  0.00  0.00     0.000 C 
ENDBRANCH  18  19
ENDBRANCH  13  18
ENDBRANCH   1  12
TORSDOF 7
ENDMDL
MODEL 6
REMARK VINA RESULT:      -0.4      1.324      4.301
REMARK  7 active torsions:
REMARK  status: ('A' for Active; 'I' for Inactive)
REMARK    1  A    between atoms: C_4  and  N_1 
REMARK    2  A    between atoms: O_2  and  C_10 
REMARK    3  A    between atoms: C_3  and  O_2 
REMARK    4  A    between atoms: C_9  and  C_4 
REMARK    5  A    between atoms: C_12  and  C_6 
REMARK    6  A    between atoms: C_7  and  C_12 
REMARK    7  A    between atoms: C_10  and  C_9 
ROOT
ATOM      1  O   UNL d   1      57.888  -0.451  30.600  0.00  0.00    -0.302 OA
ENDROOT
BRANCH   1   2
ATOM      2  C   UNL d   1      58.402  -0.315  29.967  0.00  0.00     0.166 C 
BRANCH   2   3
ATOM      3  C   UNL d   1      58.445  -0.842  29.341  0.00  0.00     0.238 C 
ATOM      4  O   UNL d   1      57.779  -1.208  29.062  0.00  0.00    -0.283 OA
BRANCH   3   5
ATOM      5  C   UNL d   1      59.181  -0.994  29.000  0.00  0.00     0.125 C 
BRANCH   5   6
ATOM      6  N   UNL d   1      59.404  -1.752  28.825  0.00  0.00    -0.296 N 
ATOM      7  C   UNL d   1      60.194  -1.929  28.663  0.00  0.00     0.107 A 
ATOM      8  C   UNL d   1      60.422  -2.703  28.484  0.00  0.00     0.142 A 
ATOM      9  O   UNL d   1      59.859  -3.295  28.469  0.00  0.00    -0.300 OA
ATOM     10  C   UNL d   1      59.085  -3.130  28.627  0.00  0.00     0.142 A 
ATOM     11  C   UNL d   1      58.857  -2.356  28.805  0.00  0.00     0.107 A 
ENDBRANCH   5   6
ENDBRANCH   3   5
ENDBRANCH   2   3
ENDBRANCH   1   2
BRANCH   1  12
ATOM     12  C   UNL d   1      58.016  -0.072  31.329  0.00  0.00     0.100 A 
ATOM     13  C   UNL d   1      57.421  -0.077  31.910  0.00  0.00     0.023 A 
ATOM     14  C   UNL d   1      57.544   0.296  32.629  0.00  0.00     0.002 A 
ATOM     15  C   UNL d   1      58.259   0.675  32.773  0.00  0.00     0.000 A 
ATOM     16  C   UNL d   1      58.854   0.680  32.191  0.00  0.00     0.002 A 
ATOM     17  C   UNL d   1      58.718   0.305  31.481  0.00  0.00     0.025 A 
BRANCH  13  18
ATOM     18  C   UNL d   1      56.692  -0.461  31.770  0.00  0.00     0.002 C 
BRANCH  18  19
ATOM     19  C   UNL d   1      56.103  -0.480  32.358  0.00  0.00     0.000 C 
ATOM     20  C   UNL d   1      55.775  -1.188  32.569  0.00  0.00     0.000 C 
ENDBRANCH  18  19
ENDBRANCH  13  18
ENDBRANCH   1  12
TORSDOF 7
ENDMDL
