MODEL 1
REMARK VINA RESULT:      -6.6      0.000      0.000
REMARK  1 active torsions:
REMARK  status: ('A' for Active; 'I' for Inactive)
REMARK    1  A    between atoms: N_2  and  C_1 
ROOT
ATOM      1  C   UNL d   1     -47.134  12.557  23.238  0.00  0.00     0.148 A 
ATOM      2  C   UNL d   1     -47.932  12.802  23.097  0.00  0.00     0.051 A 
ATOM      3  C   UNL d   1     -46.992  11.801  23.538  0.00  0.00     0.127 A 
ATOM      4  C   UNL d   1     -48.558  12.296  23.255  0.00  0.00     0.121 A 
ATOM      5  C   UNL d   1     -47.648  11.290  23.696  0.00  0.00     0.049 A 
ATOM      6  C   UNL d   1     -48.416  11.540  23.555  0.00  0.00     0.121 A 
ATOM      7  O   UNL d   1     -49.397  12.393  23.168  0.00  0.00    -0.299 OA
ATOM      8  O   UNL d   1     -49.164  11.152  23.660  0.00  0.00    -0.299 OA
ATOM      9  C   UNL d   1     -49.742  11.694  23.418  0.00  0.00     0.304 A 
ATOM     10  N   UNL d   1     -46.169  11.585  23.669  0.00  0.00    -0.146 N 
ENDROOT
BRANCH   1  11
ATOM     11  N   UNL d   1     -46.445  13.051  23.088  0.00  0.00    -0.112 N 
ATOM     12  O   UNL d   1     -46.101  13.509  23.696  0.00  0.00    -0.532 OA
ATOM     13  O   UNL d   1     -46.094  13.083  22.306  0.00  0.00    -0.532 OA
ENDBRANCH   1  11
TORSDOF 1
ENDMDL
MODEL 2
REMARK VINA RESULT:      -6.6      1.218      2.645
REMARK  1 active torsions:
REMARK  status: ('A' for Active; 'I' for Inactive)
REMARK    1  A    between atoms: N_2  and  C_1 
ROOT
ATOM      1  C   UNL d   1     -47.927  12.106  23.097  0.00  0.00     0.148 A 
ATOM      2  C   UNL d   1     -48.005  12.907  22.836  0.00  0.00     0.051 A 
ATOM      3  C   UNL d   1     -47.218  11.863  23.443  0.00  0.00     0.127 A 
ATOM      4  C   UNL d   1     -47.386  13.437  22.924  0.00  0.00     0.121 A 
ATOM      5  C   UNL d   1     -46.587  12.421  23.528  0.00  0.00     0.049 A 
ATOM      6  C   UNL d   1     -46.678  13.194  23.270  0.00  0.00     0.121 A 
ATOM      7  O   UNL d   1     -47.312  14.257  22.716  0.00  0.00    -0.299 OA
ATOM      8  O   UNL d   1     -46.149  13.858  23.285  0.00  0.00    -0.299 OA
ATOM      9  C   UNL d   1     -46.561  14.490  22.942  0.00  0.00     0.304 A 
ATOM     10  N   UNL d   1     -47.172  11.041  23.698  0.00  0.00    -0.146 N 
ENDROOT
BRANCH   1  11
ATOM     11  N   UNL d   1     -48.547  11.512  23.026  0.00  0.00    -0.112 N 
ATOM     12  O   UNL d   1     -48.645  11.071  22.324  0.00  0.00    -0.532 OA
ATOM     13  O   UNL d   1     -49.082  11.361  23.680  0.00  0.00    -0.532 OA
ENDBRANCH   1  11
TORSDOF 1
ENDMDL
MODEL 3
REMARK VINA RESULT:      -6.4      1.621      2.166
REMARK  1 active torsions:
REMARK  status: ('A' for Active; 'I' for Inactive)
REMARK    1  A    between atoms: N_2  and  C_1 
ROOT
ATOM      1  C   UNL d   1     -47.014  13.623  22.890  0.00  0.00     0.148 A 
ATOM      2  C   UNL d   1     -47.265  14.420  22.756  0.00  0.00     0.051 A 
ATOM      3  C   UNL d   1     -47.582  13.029  22.966  0.00  0.00     0.127 A 
ATOM      4  C   UNL d   1     -48.063  14.602  22.702  0.00  0.00     0.121 A 
ATOM      5  C   UNL d   1     -48.402  13.232  22.908  0.00  0.00     0.049 A 
ATOM      6  C   UNL d   1     -48.631  14.008  22.778  0.00  0.00     0.121 A 
ATOM      7  O   UNL d   1     -48.465  15.339  22.573  0.00  0.00    -0.299 OA
ATOM      8  O   UNL d   1     -49.398  14.363  22.697  0.00  0.00    -0.299 OA
ATOM      9  C   UNL d   1     -49.266  15.172  22.573  0.00  0.00     0.304 A 
ATOM     10  N   UNL d   1     -47.291  12.230  23.102  0.00  0.00    -0.146 N 
ENDROOT
BRANCH   1  11
ATOM     11  N   UNL d   1     -46.190  13.382  22.955  0.00  0.00    -0.112 N 
ATOM     12  O   UNL d   1     -45.841  13.226  23.698  0.00  0.00    -0.532 OA
ATOM     13  O   UNL d   1     -45.705  13.296  22.252  0.00  0.00    -0.532 OA
ENDBRANCH   1  11
TORSDOF 1
ENDMDL
MODEL 4
REMARK VINA RESULT:      -4.6      1.718      2.593
REMARK  1 active torsions:
REMARK  status: ('A' for Active; 'I' for Inactive)
REMARK    1  A    between atoms: N_2  and  C_1 
ROOT
ATOM      1  C   UNL d   1     -47.874  13.645  22.901  0.00  0.00     0.148 A 
ATOM      2  C   UNL d   1     -47.970  12.833  23.122  0.00  0.00     0.051 A 
ATOM      3  C   UNL d   1     -47.117  13.973  22.893  0.00  0.00     0.127 A 
ATOM      4  C   UNL d   1     -47.320  12.378  23.327  0.00  0.00     0.121 A 
ATOM      5  C   UNL d   1     -46.455  13.491  23.107  0.00  0.00     0.049 A 
ATOM      6  C   UNL d   1     -46.563  12.706  23.319  0.00  0.00     0.121 A 
ATOM      7  O   UNL d   1     -47.254  11.566  23.566  0.00  0.00    -0.299 OA
ATOM      8  O   UNL d   1     -46.011  12.105  23.554  0.00  0.00    -0.299 OA
ATOM      9  C   UNL d   1     -46.459  11.423  23.698  0.00  0.00     0.304 A 
ATOM     10  N   UNL d   1     -47.056  14.801  22.664  0.00  0.00    -0.146 N 
ENDROOT
BRANCH   1  11
ATOM     11  N   UNL d   1     -48.524  14.164  22.678  0.00  0.00    -0.112 N 
ATOM     12  O   UNL d   1     -48.812  14.185  21.894  0.00  0.00    -0.532 OA
ATOM     13  O   UNL d   1     -48.894  14.673  23.261  0.00  0.00    -0.532 OA
ENDBRANCH   1  11
TORSDOF 1
ENDMDL
