MODEL 1
REMARK VINA RESULT:      19.8      0.000      0.000
REMARK  3 active torsions:
REMARK  status: ('A' for Active; 'I' for Inactive)
REMARK    1  A    between atoms: S_8  and  C_2 
REMARK    2  A    between atoms: C_13  and  S_8 
REMARK    3  A    between atoms: C_15  and  C_13 
ROOT
ATOM      1  C   UNL d   1     -59.098 -98.786 -43.867  0.00  0.00     0.104 A 
ATOM      2  C   UNL d   1     -57.597 -98.769 -44.547  0.00  0.00     0.182 A 
ATOM      3  N   UNL d   1     -58.268 -98.786 -45.027  0.00  0.00    -0.251 N 
ATOM      4  C   UNL d   1     -59.024 -98.795 -44.678  0.00  0.00     0.274 A 
ATOM      5  C   UNL d   1     -58.427 -98.769 -43.387  0.00  0.00     0.095 A 
ATOM      6  N   UNL d   1     -57.683 -98.760 -43.718  0.00  0.00    -0.222 NA
ATOM      7  S   UNL d   1     -59.758 -98.791 -43.377  0.00  0.00    -0.081 SA
ATOM      8  C   UNL d   1     -58.674 -98.763 -42.601  0.00  0.00     0.026 A 
ATOM      9  O   UNL d   1     -59.695 -98.812 -45.158  0.00  0.00    -0.266 OA
ATOM     10  C   UNL d   1     -59.491 -98.776 -42.593  0.00  0.00     0.031 A 
ATOM     11  C   UNL d   1     -58.188 -98.795 -45.854  0.00  0.00     0.104 C 
ATOM     12  C   UNL d   1     -59.960 -98.776 -41.914  0.00  0.00     0.007 C 
ENDROOT
BRANCH   2  13
ATOM     13  S   UNL d   1     -56.836 -98.761 -44.886  0.00  0.00    -0.050 SA
BRANCH  13  14
ATOM     14  C   UNL d   1     -56.237 -99.223 -44.554  0.00  0.00     0.032 C 
ATOM     15  C   UNL d   1     -56.387-100.008 -44.351  0.00  0.00     0.007 C 
BRANCH  14  16
ATOM     16  C   UNL d   1     -55.492 -98.899 -44.429  0.00  0.00     0.007 C 
ATOM     17  C   UNL d   1     -54.819 -99.369 -44.516  0.00  0.00     0.001 C 
ENDBRANCH  14  16
ENDBRANCH  13  14
ENDBRANCH   2  13
TORSDOF 3
ENDMDL
