MODEL 1
REMARK VINA RESULT:      -3.7      0.000      0.000
REMARK  3 active torsions:
REMARK  status: ('A' for Active; 'I' for Inactive)
REMARK    1  A    between atoms: S_9  and  C_3 
REMARK    2  A    between atoms: C_12  and  S_9 
REMARK    3  A    between atoms: C_14  and  C_12 
ROOT
ATOM      1  C   UNL d   1      56.810   0.680  34.203  0.00  0.00     0.155 A 
ATOM      2  C   UNL d   1      56.266   0.680  33.577  0.00  0.00     0.107 A 
ATOM      3  C   UNL d   1      57.347   0.678  32.644  0.00  0.00     0.182 A 
ATOM      4  N   UNL d   1      57.887   0.678  33.261  0.00  0.00    -0.250 N 
ATOM      5  N   UNL d   1      56.536   0.679  32.792  0.00  0.00    -0.220 NA
ATOM      6  C   UNL d   1      57.617   0.679  34.046  0.00  0.00     0.285 A 
ATOM      7  N   UNL d   1      56.387   0.681  34.912  0.00  0.00    -0.239 NA
ATOM      8  C   UNL d   1      55.505   0.680  33.894  0.00  0.00     0.037 A 
ATOM      9  C   UNL d   1      55.577   0.681  34.726  0.00  0.00     0.083 A 
ATOM     10  O   UNL d   1      58.169   0.679  34.668  0.00  0.00    -0.265 OA
ATOM     11  C   UNL d   1      58.703   0.678  33.101  0.00  0.00     0.104 C 
ATOM     12  C   UNL d   1      54.757   0.680  33.548  0.00  0.00     0.003 A 
ATOM     13  C   UNL d   1      54.899   0.682  35.203  0.00  0.00     0.019 A 
ATOM     14  C   UNL d   1      54.079   0.681  34.024  0.00  0.00     0.000 A 
ATOM     15  C   UNL d   1      54.152   0.682  34.847  0.00  0.00     0.002 A 
ENDROOT
BRANCH   3  16
ATOM     16  S   UNL d   1      57.619   0.677  31.862  0.00  0.00    -0.050 SA
BRANCH  16  17
ATOM     17  C   UNL d   1      57.400   0.071  31.344  0.00  0.00     0.032 C 
ATOM     18  C   UNL d   1      56.829  -0.479  31.569  0.00  0.00     0.007 C 
BRANCH  17  19
ATOM     19  C   UNL d   1      57.763   0.032  30.605  0.00  0.00     0.006 A 
ATOM     20  C   UNL d   1      58.137  -0.662  30.374  0.00  0.00     0.001 A 
ATOM     21  C   UNL d   1      58.508  -0.718  29.631  0.00  0.00     0.000 A 
ATOM     22  C   UNL d   1      58.498  -0.070  29.127  0.00  0.00     0.000 A 
ATOM     23  C   UNL d   1      58.126   0.628  29.348  0.00  0.00     0.000 A 
ATOM     24  C   UNL d   1      57.757   0.677  30.092  0.00  0.00     0.001 A 
ENDBRANCH  17  19
ENDBRANCH  16  17
ENDBRANCH   3  16
TORSDOF 3
ENDMDL
MODEL 2
REMARK VINA RESULT:      -3.6      2.656      5.467
REMARK  3 active torsions:
REMARK  status: ('A' for Active; 'I' for Inactive)
REMARK    1  A    between atoms: S_9  and  C_3 
REMARK    2  A    between atoms: C_12  and  S_9 
REMARK    3  A    between atoms: C_14  and  C_12 
ROOT
ATOM      1  C   UNL d   1      60.177  -1.307  29.320  0.00  0.00     0.155 A 
ATOM      2  C   UNL d   1      59.430  -1.611  29.514  0.00  0.00     0.107 A 
ATOM      3  C   UNL d   1      59.112  -0.389  30.181  0.00  0.00     0.182 A 
ATOM      4  N   UNL d   1      59.849  -0.086  29.991  0.00  0.00    -0.250 N 
ATOM      5  N   UNL d   1      58.894  -1.149  29.948  0.00  0.00    -0.220 NA
ATOM      6  C   UNL d   1      60.386  -0.548  29.557  0.00  0.00     0.285 A 
ATOM      7  N   UNL d   1      60.586  -1.883  28.893  0.00  0.00    -0.239 NA
ATOM      8  C   UNL d   1      59.373  -2.375  29.209  0.00  0.00     0.037 A 
ATOM      9  C   UNL d   1      60.092  -2.547  28.821  0.00  0.00     0.083 A 
ATOM     10  O   UNL d   1      61.133  -0.236  29.366  0.00  0.00    -0.265 OA
ATOM     11  C   UNL d   1      60.060   0.681  30.231  0.00  0.00     0.104 C 
ATOM     12  C   UNL d   1      58.772  -2.938  29.227  0.00  0.00     0.003 A 
ATOM     13  C   UNL d   1      60.202  -3.283  28.455  0.00  0.00     0.019 A 
ATOM     14  C   UNL d   1      58.882  -3.674  28.862  0.00  0.00     0.000 A 
ATOM     15  C   UNL d   1      59.593  -3.843  28.479  0.00  0.00     0.002 A 
ENDROOT
BRANCH   3  16
ATOM     16  S   UNL d   1      58.579   0.074  30.614  0.00  0.00    -0.050 SA
BRANCH  16  17
ATOM     17  C   UNL d   1      57.764  -0.024  30.514  0.00  0.00     0.032 C 
ATOM     18  C   UNL d   1      57.444  -0.090  29.758  0.00  0.00     0.007 C 
BRANCH  17  19
ATOM     19  C   UNL d   1      57.284  -0.053  31.184  0.00  0.00     0.006 A 
ATOM     20  C   UNL d   1      57.081   0.644  31.567  0.00  0.00     0.001 A 
ATOM     21  C   UNL d   1      56.597   0.631  32.245  0.00  0.00     0.000 A 
ATOM     22  C   UNL d   1      56.322  -0.089  32.529  0.00  0.00     0.000 A 
ATOM     23  C   UNL d   1      56.521  -0.792  32.152  0.00  0.00     0.000 A 
ATOM     24  C   UNL d   1      57.004  -0.771  31.477  0.00  0.00     0.001 A 
ENDBRANCH  17  19
ENDBRANCH  16  17
ENDBRANCH   3  16
TORSDOF 3
ENDMDL
MODEL 3
REMARK VINA RESULT:      -0.8      1.845      2.554
REMARK  3 active torsions:
REMARK  status: ('A' for Active; 'I' for Inactive)
REMARK    1  A    between atoms: S_9  and  C_3 
REMARK    2  A    between atoms: C_12  and  S_9 
REMARK    3  A    between atoms: C_14  and  C_12 
ROOT
ATOM      1  C   UNL d   1      56.733  -0.942  31.803  0.00  0.00     0.155 A 
ATOM      2  C   UNL d   1      56.915  -0.168  32.040  0.00  0.00     0.107 A 
ATOM      3  C   UNL d   1      57.807  -0.044  30.931  0.00  0.00     0.182 A 
ATOM      4  N   UNL d   1      57.629  -0.808  30.694  0.00  0.00    -0.250 N 
ATOM      5  N   UNL d   1      57.457   0.284  31.600  0.00  0.00    -0.220 NA
ATOM      6  C   UNL d   1      57.088  -1.260  31.133  0.00  0.00     0.285 A 
ATOM      7  N   UNL d   1      56.186  -1.253  32.337  0.00  0.00    -0.239 NA
ATOM      8  C   UNL d   1      56.484   0.004  32.720  0.00  0.00     0.037 A 
ATOM      9  C   UNL d   1      56.028  -0.671  32.908  0.00  0.00     0.083 A 
ATOM     10  O   UNL d   1      56.911  -2.036  30.889  0.00  0.00    -0.265 OA
ATOM     11  C   UNL d   1      57.988  -1.130  30.017  0.00  0.00     0.104 C 
ATOM     12  C   UNL d   1      56.438   0.675  33.196  0.00  0.00     0.003 A 
ATOM     13  C   UNL d   1      55.532  -0.665  33.572  0.00  0.00     0.019 A 
ATOM     14  C   UNL d   1      55.942   0.680  33.860  0.00  0.00     0.000 A 
ATOM     15  C   UNL d   1      55.492   0.013  34.045  0.00  0.00     0.002 A 
ENDROOT
BRANCH   3  16
ATOM     16  S   UNL d   1      58.347   0.405  30.491  0.00  0.00    -0.050 SA
BRANCH  16  17
ATOM     17  C   UNL d   1      59.130   0.483  30.745  0.00  0.00     0.032 C 
ATOM     18  C   UNL d   1      59.305   0.493  31.550  0.00  0.00     0.007 C 
BRANCH  17  19
ATOM     19  C   UNL d   1      59.725   0.549  30.178  0.00  0.00     0.006 A 
ATOM     20  C   UNL d   1      60.510   0.570  30.417  0.00  0.00     0.001 A 
ATOM     21  C   UNL d   1      61.123   0.637  29.857  0.00  0.00     0.000 A 
ATOM     22  C   UNL d   1      60.935   0.682  29.059  0.00  0.00     0.000 A 
ATOM     23  C   UNL d   1      60.152   0.662  28.810  0.00  0.00     0.000 A 
ATOM     24  C   UNL d   1      59.546   0.595  29.375  0.00  0.00     0.001 A 
ENDBRANCH  17  19
ENDBRANCH  16  17
ENDBRANCH   3  16
TORSDOF 3
ENDMDL
