MODEL 1
REMARK VINA RESULT:      26.7      0.000      0.000
REMARK  3 active torsions:
REMARK  status: ('A' for Active; 'I' for Inactive)
REMARK    1  A    between atoms: C_3  and  C_1 
REMARK    2  A    between atoms: C_5  and  C_3 
REMARK    3  A    between atoms: C_11  and  C_5 
ROOT
ATOM      1  C   UNL d   1      13.594  12.775  -2.235  0.00  0.00     0.109 C 
ATOM      2  C   UNL d   1      13.201  12.277  -1.715  0.00  0.00     0.105 C 
ATOM      3  N   UNL d   1      12.809  11.779  -1.187  0.00  0.00    -0.191 NA
ENDROOT
BRANCH   1   4
ATOM      4  C   UNL d   1      13.466  12.699  -3.048  0.00  0.00     0.192 A 
ATOM      5  N   UNL d   1      13.074  13.248  -3.543  0.00  0.00    -0.220 NA
ATOM      6  C   UNL d   1      13.073  12.947  -4.317  0.00  0.00     0.106 A 
ATOM      7  C   UNL d   1      12.769  13.247  -5.023  0.00  0.00     0.021 A 
ATOM      8  C   UNL d   1      13.462  12.213  -4.310  0.00  0.00     0.119 A 
ATOM      9  C   UNL d   1      12.851  12.817  -5.721  0.00  0.00     0.002 A 
ATOM     10  C   UNL d   1      13.240  12.082  -5.714  0.00  0.00     0.002 A 
ATOM     11  C   UNL d   1      13.544  11.782  -5.009  0.00  0.00     0.026 A 
ATOM     12  O   UNL d   1      13.705  12.056  -3.531  0.00  0.00    -0.287 OA
ENDBRANCH   1   4
BRANCH   1  13
ATOM     13  C   UNL d   1      14.114  13.348  -1.950  0.00  0.00     0.014 C 
BRANCH  13  14
ATOM     14  C   UNL d   1      14.620  13.172  -1.320  0.00  0.00     0.004 A 
ATOM     15  C   UNL d   1      15.062  12.477  -1.338  0.00  0.00     0.021 A 
ATOM     16  C   UNL d   1      15.568  12.300  -0.708  0.00  0.00     0.099 A 
ATOM     17  N   UNL d   1      15.628  12.819  -0.069  0.00  0.00    -0.242 NA
ATOM     18  C   UNL d   1      15.178  13.523  -0.053  0.00  0.00     0.099 A 
ATOM     19  C   UNL d   1      14.675  13.692  -0.687  0.00  0.00     0.021 A 
ENDBRANCH  13  14
ENDBRANCH   1  13
TORSDOF 3
ENDMDL
MODEL 2
REMARK VINA RESULT:      28.2      1.360      4.113
REMARK  3 active torsions:
REMARK  status: ('A' for Active; 'I' for Inactive)
REMARK    1  A    between atoms: C_3  and  C_1 
REMARK    2  A    between atoms: C_5  and  C_3 
REMARK    3  A    between atoms: C_11  and  C_5 
ROOT
ATOM      1  C   UNL d   1      14.394  12.715  -1.582  0.00  0.00     0.109 C 
ATOM      2  C   UNL d   1      13.887  12.251  -1.135  0.00  0.00     0.105 C 
ATOM      3  N   UNL d   1      13.375  11.780  -0.691  0.00  0.00    -0.191 NA
ENDROOT
BRANCH   1   4
ATOM      4  C   UNL d   1      14.703  13.410  -1.259  0.00  0.00     0.192 A 
ATOM      5  N   UNL d   1      15.380  13.475  -0.771  0.00  0.00    -0.220 NA
ATOM      6  C   UNL d   1      15.485  14.275  -0.576  0.00  0.00     0.106 A 
ATOM      7  C   UNL d   1      16.053  14.658  -0.117  0.00  0.00     0.021 A 
ATOM      8  C   UNL d   1      14.878  14.712  -0.937  0.00  0.00     0.119 A 
ATOM      9  C   UNL d   1      16.017  15.476  -0.017  0.00  0.00     0.002 A 
ATOM     10  C   UNL d   1      15.410  15.914  -0.379  0.00  0.00     0.002 A 
ATOM     11  C   UNL d   1      14.842  15.530  -0.838  0.00  0.00     0.026 A 
ATOM     12  O   UNL d   1      14.394  14.184  -1.359  0.00  0.00    -0.287 OA
ENDBRANCH   1   4
BRANCH   1  13
ATOM     13  C   UNL d   1      14.597  12.490  -2.349  0.00  0.00     0.014 C 
BRANCH  13  14
ATOM     14  C   UNL d   1      14.020  12.468  -2.941  0.00  0.00     0.004 A 
ATOM     15  C   UNL d   1      13.947  13.103  -3.460  0.00  0.00     0.021 A 
ATOM     16  C   UNL d   1      13.369  13.081  -4.052  0.00  0.00     0.099 A 
ATOM     17  N   UNL d   1      12.872  12.426  -4.118  0.00  0.00    -0.242 NA
ATOM     18  C   UNL d   1      12.948  11.782  -3.590  0.00  0.00     0.099 A 
ATOM     19  C   UNL d   1      13.528  11.813  -3.002  0.00  0.00     0.021 A 
ENDBRANCH  13  14
ENDBRANCH   1  13
TORSDOF 3
ENDMDL
MODEL 3
REMARK VINA RESULT:      28.9      8.422      9.899
REMARK  3 active torsions:
REMARK  status: ('A' for Active; 'I' for Inactive)
REMARK    1  A    between atoms: C_3  and  C_1 
REMARK    2  A    between atoms: C_5  and  C_3 
REMARK    3  A    between atoms: C_11  and  C_5 
ROOT
ATOM      1  C   UNL d   1      23.674  12.532  -1.379  0.00  0.00     0.109 C 
ATOM      2  C   UNL d   1      24.222  12.655  -0.781  0.00  0.00     0.105 C 
ATOM      3  N   UNL d   1      24.768  12.778  -0.176  0.00  0.00    -0.191 NA
ENDROOT
BRANCH   1   4
ATOM      4  C   UNL d   1      23.919  12.553  -2.169  0.00  0.00     0.192 A 
ATOM      5  N   UNL d   1      24.137  13.234  -2.604  0.00  0.00    -0.220 NA
ATOM      6  C   UNL d   1      24.344  12.996  -3.372  0.00  0.00     0.106 A 
ATOM      7  C   UNL d   1      24.599  13.424  -4.029  0.00  0.00     0.021 A 
ATOM      8  C   UNL d   1      24.257  12.171  -3.421  0.00  0.00     0.119 A 
ATOM      9  C   UNL d   1      24.768  13.032  -4.735  0.00  0.00     0.002 A 
ATOM     10  C   UNL d   1      24.680  12.207  -4.784  0.00  0.00     0.002 A 
ATOM     11  C   UNL d   1      24.425  11.779  -4.127  0.00  0.00     0.026 A 
ATOM     12  O   UNL d   1      23.996  11.894  -2.683  0.00  0.00    -0.287 OA
ENDBRANCH   1   4
BRANCH   1  13
ATOM     13  C   UNL d   1      22.882  12.389  -1.196  0.00  0.00     0.014 C 
BRANCH  13  14
ATOM     14  C   UNL d   1      22.438  12.964  -0.801  0.00  0.00     0.004 A 
ATOM     15  C   UNL d   1      21.632  12.839  -0.678  0.00  0.00     0.021 A 
ATOM     16  C   UNL d   1      21.188  13.414  -0.283  0.00  0.00     0.099 A 
ATOM     17  N   UNL d   1      21.551  14.104  -0.014  0.00  0.00    -0.242 NA
ATOM     18  C   UNL d   1      22.368  14.228  -0.140  0.00  0.00     0.099 A 
ATOM     19  C   UNL d   1      22.805  13.648  -0.536  0.00  0.00     0.021 A 
ENDBRANCH  13  14
ENDBRANCH   1  13
TORSDOF 3
ENDMDL
