MODEL 1
REMARK VINA RESULT:      -1.9      0.000      0.000
REMARK  4 active torsions:
REMARK  status: ('A' for Active; 'I' for Inactive)
REMARK    1  A    between atoms: C_6  and  C_1 
REMARK    2  A    between atoms: C_7  and  N_2 
REMARK    3  A    between atoms: C_10  and  C_7 
REMARK    4  A    between atoms: C_11  and  C_10 
ROOT
ATOM      1  C   UNL d   1      32.566  16.811 -23.616  0.00  0.00     0.148 A 
ATOM      2  N   UNL d   1      31.925  17.037 -24.099  0.00  0.00    -0.289 N 
ATOM      3  N   UNL d   1      33.121  17.443 -23.616  0.00  0.00    -0.227 NA
ATOM      4  C   UNL d   1      32.078  17.799 -24.395  0.00  0.00     0.083 A 
ATOM      5  C   UNL d   1      32.810  18.048 -24.100  0.00  0.00     0.099 A 
ATOM      6  C   UNL d   1      31.650  18.307 -24.898  0.00  0.00     0.019 A 
ATOM      7  C   UNL d   1      33.125  18.793 -24.295  0.00  0.00     0.021 A 
ATOM      8  C   UNL d   1      31.954  19.047 -25.097  0.00  0.00     0.002 A 
ATOM      9  C   UNL d   1      32.686  19.288 -24.798  0.00  0.00     0.002 A 
ENDROOT
BRANCH   2  10
ATOM     10  C   UNL d   1      31.249  16.579 -24.256  0.00  0.00     0.082 C 
BRANCH  10  11
ATOM     11  C   UNL d   1      30.501  16.917 -24.183  0.00  0.00     0.019 C 
BRANCH  11  12
ATOM     12  C   UNL d   1      29.836  16.440 -24.241  0.00  0.00     0.002 A 
ATOM     13  C   UNL d   1      29.714  15.988 -24.911  0.00  0.00     0.000 A 
ATOM     14  C   UNL d   1      29.050  15.512 -24.968  0.00  0.00     0.000 A 
ATOM     15  C   UNL d   1      28.508  15.486 -24.355  0.00  0.00     0.000 A 
ATOM     16  C   UNL d   1      28.629  15.940 -23.677  0.00  0.00     0.000 A 
ATOM     17  C   UNL d   1      29.297  16.416 -23.627  0.00  0.00     0.000 A 
ENDBRANCH  11  12
ENDBRANCH  10  11
ENDBRANCH   2  10
BRANCH   1  18
ATOM     18  C   UNL d   1      32.649  16.096 -23.208  0.00  0.00     0.035 A 
ATOM     19  C   UNL d   1      32.339  15.505 -22.723  0.00  0.00     0.003 A 
ATOM     20  C   UNL d   1      33.118  15.453 -22.995  0.00  0.00     0.003 A 
ENDBRANCH   1  18
TORSDOF 4
ENDMDL
MODEL 2
REMARK VINA RESULT:      -1.8      2.295      3.963
REMARK  4 active torsions:
REMARK  status: ('A' for Active; 'I' for Inactive)
REMARK    1  A    between atoms: C_6  and  C_1 
REMARK    2  A    between atoms: C_7  and  N_2 
REMARK    3  A    between atoms: C_10  and  C_7 
REMARK    4  A    between atoms: C_11  and  C_10 
ROOT
ATOM      1  C   UNL d   1      33.237  20.431 -23.356  0.00  0.00     0.148 A 
ATOM      2  N   UNL d   1      33.239  19.729 -22.906  0.00  0.00    -0.289 N 
ATOM      3  N   UNL d   1      33.235  21.079 -22.819  0.00  0.00    -0.227 NA
ATOM      4  C   UNL d   1      33.238  19.936 -22.100  0.00  0.00     0.083 A 
ATOM      5  C   UNL d   1      33.236  20.762 -22.046  0.00  0.00     0.099 A 
ATOM      6  C   UNL d   1      33.239  19.485 -21.401  0.00  0.00     0.019 A 
ATOM      7  C   UNL d   1      33.235  21.148 -21.310  0.00  0.00     0.021 A 
ATOM      8  C   UNL d   1      33.237  19.858 -20.665  0.00  0.00     0.002 A 
ATOM      9  C   UNL d   1      33.235  20.684 -20.620  0.00  0.00     0.002 A 
ENDROOT
BRANCH   2  10
ATOM     10  C   UNL d   1      33.241  18.955 -23.211  0.00  0.00     0.082 C 
BRANCH  10  11
ATOM     11  C   UNL d   1      32.706  18.401 -22.919  0.00  0.00     0.019 C 
BRANCH  11  12
ATOM     12  C   UNL d   1      32.599  17.694 -23.322  0.00  0.00     0.002 A 
ATOM     13  C   UNL d   1      31.883  17.532 -23.681  0.00  0.00     0.000 A 
ATOM     14  C   UNL d   1      31.777  16.827 -24.083  0.00  0.00     0.000 A 
ATOM     15  C   UNL d   1      32.386  16.282 -24.127  0.00  0.00     0.000 A 
ATOM     16  C   UNL d   1      33.110  16.442 -23.766  0.00  0.00     0.000 A 
ATOM     17  C   UNL d   1      33.210  17.152 -23.364  0.00  0.00     0.000 A 
ENDBRANCH  11  12
ENDBRANCH  10  11
ENDBRANCH   2  10
BRANCH   1  18
ATOM     18  C   UNL d   1      33.238  20.488 -24.181  0.00  0.00     0.035 A 
ATOM     19  C   UNL d   1      33.239  20.940 -24.872  0.00  0.00     0.003 A 
ATOM     20  C   UNL d   1      33.237  20.115 -24.917  0.00  0.00     0.003 A 
ENDBRANCH   1  18
TORSDOF 4
ENDMDL
MODEL 3
REMARK VINA RESULT:      -1.4      4.228      6.484
REMARK  4 active torsions:
REMARK  status: ('A' for Active; 'I' for Inactive)
REMARK    1  A    between atoms: C_6  and  C_1 
REMARK    2  A    between atoms: C_7  and  N_2 
REMARK    3  A    between atoms: C_10  and  C_7 
REMARK    4  A    between atoms: C_11  and  C_10 
ROOT
ATOM      1  C   UNL d   1      33.162  21.727 -23.508  0.00  0.00     0.148 A 
ATOM      2  N   UNL d   1      33.173  21.558 -22.691  0.00  0.00    -0.289 N 
ATOM      3  N   UNL d   1      33.168  20.994 -23.921  0.00  0.00    -0.227 NA
ATOM      4  C   UNL d   1      33.186  20.731 -22.596  0.00  0.00     0.083 A 
ATOM      5  C   UNL d   1      33.183  20.386 -23.348  0.00  0.00     0.099 A 
ATOM      6  C   UNL d   1      33.201  20.240 -21.924  0.00  0.00     0.019 A 
ATOM      7  C   UNL d   1      33.195  19.560 -23.445  0.00  0.00     0.021 A 
ATOM      8  C   UNL d   1      33.212  19.420 -22.010  0.00  0.00     0.002 A 
ATOM      9  C   UNL d   1      33.209  19.082 -22.765  0.00  0.00     0.002 A 
ENDROOT
BRANCH   2  10
ATOM     10  C   UNL d   1      33.171  22.120 -22.078  0.00  0.00     0.082 C 
BRANCH  10  11
ATOM     11  C   UNL d   1      32.467  22.295 -21.688  0.00  0.00     0.019 C 
BRANCH  11  12
ATOM     12  C   UNL d   1      32.485  22.764 -21.015  0.00  0.00     0.002 A 
ATOM     13  C   UNL d   1      31.811  23.156 -20.772  0.00  0.00     0.000 A 
ATOM     14  C   UNL d   1      31.830  23.625 -20.100  0.00  0.00     0.000 A 
ATOM     15  C   UNL d   1      32.523  23.702 -19.671  0.00  0.00     0.000 A 
ATOM     16  C   UNL d   1      33.205  23.307 -19.914  0.00  0.00     0.000 A 
ATOM     17  C   UNL d   1      33.179  22.838 -20.589  0.00  0.00     0.000 A 
ENDBRANCH  11  12
ENDBRANCH  10  11
ENDBRANCH   2  10
BRANCH   1  18
ATOM     18  C   UNL d   1      33.147  22.477 -23.856  0.00  0.00     0.035 A 
ATOM     19  C   UNL d   1      33.054  23.295 -23.800  0.00  0.00     0.003 A 
ATOM     20  C   UNL d   1      33.219  22.945 -24.531  0.00  0.00     0.003 A 
ENDBRANCH   1  18
TORSDOF 4
ENDMDL
MODEL 4
REMARK VINA RESULT:      -0.1      2.574      5.141
REMARK  4 active torsions:
REMARK  status: ('A' for Active; 'I' for Inactive)
REMARK    1  A    between atoms: C_6  and  C_1 
REMARK    2  A    between atoms: C_7  and  N_2 
REMARK    3  A    between atoms: C_10  and  C_7 
REMARK    4  A    between atoms: C_11  and  C_10 
ROOT
ATOM      1  C   UNL d   1      32.778  19.640 -22.499  0.00  0.00     0.148 A 
ATOM      2  N   UNL d   1      32.974  19.942 -23.253  0.00  0.00    -0.289 N 
ATOM      3  N   UNL d   1      32.539  18.839 -22.599  0.00  0.00    -0.227 NA
ATOM      4  C   UNL d   1      32.858  19.338 -23.813  0.00  0.00     0.083 A 
ATOM      5  C   UNL d   1      32.592  18.664 -23.415  0.00  0.00     0.099 A 
ATOM      6  C   UNL d   1      32.958  19.307 -24.639  0.00  0.00     0.019 A 
ATOM      7  C   UNL d   1      32.424  17.958 -23.821  0.00  0.00     0.021 A 
ATOM      8  C   UNL d   1      32.794  18.612 -25.052  0.00  0.00     0.002 A 
ATOM      9  C   UNL d   1      32.529  17.942 -24.645  0.00  0.00     0.002 A 
ENDROOT
BRANCH   2  10
ATOM     10  C   UNL d   1      33.238  20.714 -23.413  0.00  0.00     0.082 C 
BRANCH  10  11
ATOM     11  C   UNL d   1      33.120  21.037 -24.162  0.00  0.00     0.019 C 
BRANCH  11  12
ATOM     12  C   UNL d   1      33.120  21.852 -24.252  0.00  0.00     0.002 A 
ATOM     13  C   UNL d   1      33.235  22.336 -23.604  0.00  0.00     0.000 A 
ATOM     14  C   UNL d   1      33.235  23.150 -23.694  0.00  0.00     0.000 A 
ATOM     15  C   UNL d   1      33.120  23.482 -24.433  0.00  0.00     0.000 A 
ATOM     16  C   UNL d   1      33.003  22.997 -25.091  0.00  0.00     0.000 A 
ATOM     17  C   UNL d   1      33.005  22.181 -24.992  0.00  0.00     0.000 A 
ENDBRANCH  11  12
ENDBRANCH  10  11
ENDBRANCH   2  10
BRANCH   1  18
ATOM     18  C   UNL d   1      32.811  20.048 -21.781  0.00  0.00     0.035 A 
ATOM     19  C   UNL d   1      32.465  20.541 -21.216  0.00  0.00     0.003 A 
ATOM     20  C   UNL d   1      33.232  20.252 -21.101  0.00  0.00     0.003 A 
ENDBRANCH   1  18
TORSDOF 4
ENDMDL
MODEL 5
REMARK VINA RESULT:       0.3      1.588      4.052
REMARK  4 active torsions:
REMARK  status: ('A' for Active; 'I' for Inactive)
REMARK    1  A    between atoms: C_6  and  C_1 
REMARK    2  A    between atoms: C_7  and  N_2 
REMARK    3  A    between atoms: C_10  and  C_7 
REMARK    4  A    between atoms: C_11  and  C_10 
ROOT
ATOM      1  C   UNL d   1      30.964  17.521 -24.650  0.00  0.00     0.148 A 
ATOM      2  N   UNL d   1      31.728  17.711 -24.372  0.00  0.00    -0.289 N 
ATOM      3  N   UNL d   1      30.935  16.689 -24.768  0.00  0.00    -0.227 NA
ATOM      4  C   UNL d   1      32.168  17.007 -24.319  0.00  0.00     0.083 A 
ATOM      5  C   UNL d   1      31.684  16.382 -24.561  0.00  0.00     0.099 A 
ATOM      6  C   UNL d   1      32.950  16.847 -24.082  0.00  0.00     0.019 A 
ATOM      7  C   UNL d   1      31.962  15.598 -24.572  0.00  0.00     0.021 A 
ATOM      8  C   UNL d   1      33.235  16.073 -24.089  0.00  0.00     0.002 A 
ATOM      9  C   UNL d   1      32.745  15.453 -24.332  0.00  0.00     0.002 A 
ENDROOT
BRANCH   2  10
ATOM     10  C   UNL d   1      32.001  18.474 -24.183  0.00  0.00     0.082 C 
BRANCH  10  11
ATOM     11  C   UNL d   1      32.177  18.660 -23.399  0.00  0.00     0.019 C 
BRANCH  11  12
ATOM     12  C   UNL d   1      32.532  19.379 -23.227  0.00  0.00     0.002 A 
ATOM     13  C   UNL d   1      32.874  19.820 -23.824  0.00  0.00     0.000 A 
ATOM     14  C   UNL d   1      33.228  20.538 -23.652  0.00  0.00     0.000 A 
ATOM     15  C   UNL d   1      33.240  20.817 -22.883  0.00  0.00     0.000 A 
ATOM     16  C   UNL d   1      32.896  20.374 -22.277  0.00  0.00     0.000 A 
ATOM     17  C   UNL d   1      32.542  19.655 -22.457  0.00  0.00     0.000 A 
ENDBRANCH  11  12
ENDBRANCH  10  11
ENDBRANCH   2  10
BRANCH   1  18
ATOM     18  C   UNL d   1      30.343  18.050 -24.785  0.00  0.00     0.035 A 
ATOM     19  C   UNL d   1      30.068  18.810 -24.950  0.00  0.00     0.003 A 
ATOM     20  C   UNL d   1      29.533  18.188 -24.853  0.00  0.00     0.003 A 
ENDBRANCH   1  18
TORSDOF 4
ENDMDL
MODEL 6
REMARK VINA RESULT:       0.8      1.708      3.438
REMARK  4 active torsions:
REMARK  status: ('A' for Active; 'I' for Inactive)
REMARK    1  A    between atoms: C_6  and  C_1 
REMARK    2  A    between atoms: C_7  and  N_2 
REMARK    3  A    between atoms: C_10  and  C_7 
REMARK    4  A    between atoms: C_11  and  C_10 
ROOT
ATOM      1  C   UNL d   1      29.093  16.606 -23.166  0.00  0.00     0.148 A 
ATOM      2  N   UNL d   1      29.641  16.841 -23.751  0.00  0.00    -0.289 N 
ATOM      3  N   UNL d   1      28.425  17.114 -23.224  0.00  0.00    -0.227 NA
ATOM      4  C   UNL d   1      29.318  17.486 -24.165  0.00  0.00     0.083 A 
ATOM      5  C   UNL d   1      28.575  17.654 -23.844  0.00  0.00     0.099 A 
ATOM      6  C   UNL d   1      29.600  17.949 -24.798  0.00  0.00     0.019 A 
ATOM      7  C   UNL d   1      28.105  18.273 -24.138  0.00  0.00     0.021 A 
ATOM      8  C   UNL d   1      29.142  18.566 -25.097  0.00  0.00     0.002 A 
ATOM      9  C   UNL d   1      28.399  18.727 -24.770  0.00  0.00     0.002 A 
ENDROOT
BRANCH   2  10
ATOM     10  C   UNL d   1      30.381  16.490 -23.892  0.00  0.00     0.082 C 
BRANCH  10  11
ATOM     11  C   UNL d   1      31.019  16.961 -24.117  0.00  0.00     0.019 C 
BRANCH  11  12
ATOM     12  C   UNL d   1      31.757  16.617 -24.218  0.00  0.00     0.002 A 
ATOM     13  C   UNL d   1      31.876  16.074 -24.817  0.00  0.00     0.000 A 
ATOM     14  C   UNL d   1      32.613  15.731 -24.918  0.00  0.00     0.000 A 
ATOM     15  C   UNL d   1      33.231  15.929 -24.420  0.00  0.00     0.000 A 
ATOM     16  C   UNL d   1      33.114  16.477 -23.814  0.00  0.00     0.000 A 
ATOM     17  C   UNL d   1      32.372  16.817 -23.719  0.00  0.00     0.000 A 
ENDBRANCH  11  12
ENDBRANCH  10  11
ENDBRANCH   2  10
BRANCH   1  18
ATOM     18  C   UNL d   1      29.184  15.987 -22.625  0.00  0.00     0.035 A 
ATOM     19  C   UNL d   1      29.661  15.453 -22.217  0.00  0.00     0.003 A 
ATOM     20  C   UNL d   1      28.843  15.453 -22.098  0.00  0.00     0.003 A 
ENDBRANCH   1  18
TORSDOF 4
ENDMDL
