MODEL 1
REMARK VINA RESULT:      28.2      0.000      0.000
REMARK  3 active torsions:
REMARK  status: ('A' for Active; 'I' for Inactive)
REMARK    1  A    between atoms: O_3  and  C_1 
REMARK    2  A    between atoms: C_4  and  O_3 
REMARK    3  A    between atoms: C_8  and  C_4 
ROOT
ATOM      1  C   UNL d   1      58.213  49.698  50.582  0.00  0.00     0.131 A 
ATOM      2  C   UNL d   1      57.482  49.693  50.970  0.00  0.00     0.106 A 
ATOM      3  C   UNL d   1      56.780  49.683  50.539  0.00  0.00     0.030 A 
ATOM      4  C   UNL d   1      58.237  49.694  49.753  0.00  0.00     0.083 A 
ATOM      5  C   UNL d   1      56.805  49.679  49.710  0.00  0.00     0.060 A 
ATOM      6  C   UNL d   1      57.528  49.684  49.318  0.00  0.00     0.025 A 
ATOM      7  N   UNL d   1      57.460  49.697  51.795  0.00  0.00    -0.242 NA
ATOM      8 CL   UNL d   1      58.956  49.699  49.353  0.00  0.00    -0.080 Cl
ATOM      9 CL   UNL d   1      56.102  49.669  49.280  0.00  0.00    -0.082 Cl
ATOM     10  C   UNL d   1      56.061  49.678  50.923  0.00  0.00     0.004 A 
ATOM     11  C   UNL d   1      56.737  49.691  52.186  0.00  0.00     0.099 A 
ATOM     12  C   UNL d   1      56.033  49.682  51.751  0.00  0.00     0.021 A 
ENDROOT
BRANCH   1  13
ATOM     13  O   UNL d   1      58.912  49.707  51.001  0.00  0.00    -0.269 OA
BRANCH  13  14
ATOM     14  C   UNL d   1      59.574  49.304  50.719  0.00  0.00     0.323 C 
ATOM     15  O   UNL d   1      59.507  48.831  50.050  0.00  0.00    -0.257 OA
BRANCH  14  16
ATOM     16  C   UNL d   1      60.300  49.373  51.102  0.00  0.00     0.163 A 
ATOM     17  O   UNL d   1      60.416  49.594  51.893  0.00  0.00    -0.300 OA
ATOM     18  C   UNL d   1      61.218  49.591  52.042  0.00  0.00     0.123 A 
ATOM     19  C   UNL d   1      61.612  49.365  51.338  0.00  0.00     0.029 A 
ATOM     20  C   UNL d   1      61.036  49.233  50.766  0.00  0.00     0.032 A 
ENDBRANCH  14  16
ENDBRANCH  13  14
ENDBRANCH   1  13
TORSDOF 3
ENDMDL
