MODEL 1
REMARK VINA RESULT:      -2.8      0.000      0.000
REMARK  5 active torsions:
REMARK  status: ('A' for Active; 'I' for Inactive)
REMARK    1  A    between atoms: C_7  and  C_1 
REMARK    2  A    between atoms: C_5  and  S_14 
REMARK       I    between atoms: N_13  and  C_7 
REMARK    3  A    between atoms: C_18  and  N_13 
REMARK    4  A    between atoms: S_14  and  C_19 
REMARK    5  A    between atoms: C_19  and  C_18 
ROOT
ATOM      1  C   UNL d   1      32.932  19.366 -22.157  0.00  0.00     0.056 C 
ENDROOT
BRANCH   1   2
ATOM      2  S   UNL d   1      33.194  20.140 -22.319  0.00  0.00    -0.083 SA
BRANCH   2   3
ATOM      3  C   UNL d   1      33.023  20.755 -21.786  0.00  0.00     0.050 A 
ATOM      4  C   UNL d   1      33.049  21.559 -21.960  0.00  0.00     0.025 A 
ATOM      5  C   UNL d   1      32.839  21.975 -21.270  0.00  0.00     0.082 A 
ATOM      6  C   UNL d   1      33.233  21.977 -22.653  0.00  0.00     0.002 A 
ATOM      7  C   UNL d   1      32.815  22.801 -21.274  0.00  0.00     0.019 A 
ATOM      8  N   UNL d   1      32.687  21.415 -20.677  0.00  0.00    -0.243 NA
ATOM      9  C   UNL d   1      32.999  23.210 -21.965  0.00  0.00     0.002 A 
ATOM     10  C   UNL d   1      33.210  22.793 -22.659  0.00  0.00     0.000 A 
ATOM     11  C   UNL d   1      32.801  20.665 -20.997  0.00  0.00     0.105 A 
ENDBRANCH   2   3
ENDBRANCH   1   2
BRANCH   1  12
ATOM     12  C   UNL d   1      32.935  18.798 -22.756  0.00  0.00     0.109 C 
BRANCH  12  13
ATOM     13  N   UNL d   1      33.185  18.016 -22.589  0.00  0.00    -0.204 NA
ATOM     14  C   UNL d   1      32.992  17.402 -23.102  0.00  0.00     0.302 C 
ATOM     15  O   UNL d   1      33.241  16.633 -22.933  0.00  0.00    -0.263 OA
BRANCH  14  16
ATOM     16  C   UNL d   1      32.547  17.557 -23.790  0.00  0.00     0.158 A 
ATOM     17  O   UNL d   1      31.737  17.668 -23.916  0.00  0.00    -0.296 OA
ATOM     18  C   UNL d   1      31.624  17.803 -24.720  0.00  0.00     0.134 A 
ATOM     19 BR   UNL d   1      30.893  17.944 -25.096  0.00  0.00    -0.022 Br
ATOM     20  C   UNL d   1      32.357  17.777 -25.095  0.00  0.00     0.034 A 
ATOM     21  C   UNL d   1      32.926  17.625 -24.519  0.00  0.00     0.032 A 
ENDBRANCH  14  16
ENDBRANCH  12  13
ENDBRANCH   1  12
TORSDOF 5
ENDMDL
MODEL 2
REMARK VINA RESULT:      -2.5      1.271      1.737
REMARK  5 active torsions:
REMARK  status: ('A' for Active; 'I' for Inactive)
REMARK    1  A    between atoms: C_7  and  C_1 
REMARK    2  A    between atoms: C_5  and  S_14 
REMARK       I    between atoms: N_13  and  C_7 
REMARK    3  A    between atoms: C_18  and  N_13 
REMARK    4  A    between atoms: S_14  and  C_19 
REMARK    5  A    between atoms: C_19  and  C_18 
ROOT
ATOM      1  C   UNL d   1      32.985  18.743 -23.463  0.00  0.00     0.056 C 
ENDROOT
BRANCH   1   2
ATOM      2  S   UNL d   1      32.952  19.180 -22.756  0.00  0.00    -0.083 SA
BRANCH   2   3
ATOM      3  C   UNL d   1      33.053  20.006 -22.774  0.00  0.00     0.050 A 
ATOM      4  C   UNL d   1      33.055  20.501 -22.117  0.00  0.00     0.025 A 
ATOM      5  C   UNL d   1      33.172  21.281 -22.388  0.00  0.00     0.082 A 
ATOM      6  C   UNL d   1      32.966  20.356 -21.305  0.00  0.00     0.002 A 
ATOM      7  C   UNL d   1      33.200  21.907 -21.850  0.00  0.00     0.019 A 
ATOM      8  N   UNL d   1      33.241  21.251 -23.213  0.00  0.00    -0.243 NA
ATOM      9  C   UNL d   1      33.111  21.757 -21.045  0.00  0.00     0.002 A 
ATOM     10  C   UNL d   1      32.993  20.974 -20.772  0.00  0.00     0.000 A 
ATOM     11  C   UNL d   1      33.167  20.465 -23.449  0.00  0.00     0.105 A 
ENDBRANCH   2   3
ENDBRANCH   1   2
BRANCH   1  12
ATOM     12  C   UNL d   1      32.640  17.994 -23.500  0.00  0.00     0.109 C 
BRANCH  12  13
ATOM     13  N   UNL d   1      33.110  17.326 -23.685  0.00  0.00    -0.204 NA
ATOM     14  C   UNL d   1      32.753  16.615 -23.897  0.00  0.00     0.302 C 
ATOM     15  O   UNL d   1      33.220  15.959 -24.078  0.00  0.00    -0.263 OA
BRANCH  14  16
ATOM     16  C   UNL d   1      31.921  16.558 -23.927  0.00  0.00     0.158 A 
ATOM     17  O   UNL d   1      31.353  16.950 -24.384  0.00  0.00    -0.296 OA
ATOM     18  C   UNL d   1      30.613  16.659 -24.166  0.00  0.00     0.134 A 
ATOM     19 BR   UNL d   1      29.881  16.897 -24.485  0.00  0.00    -0.022 Br
ATOM     20  C   UNL d   1      30.718  16.091 -23.580  0.00  0.00     0.034 A 
ATOM     21  C   UNL d   1      31.526  16.030 -23.433  0.00  0.00     0.032 A 
ENDBRANCH  14  16
ENDBRANCH  12  13
ENDBRANCH   1  12
TORSDOF 5
ENDMDL
MODEL 3
REMARK VINA RESULT:      -2.4      2.320      4.749
REMARK  5 active torsions:
REMARK  status: ('A' for Active; 'I' for Inactive)
REMARK    1  A    between atoms: C_7  and  C_1 
REMARK    2  A    between atoms: C_5  and  S_14 
REMARK       I    between atoms: N_13  and  C_7 
REMARK    3  A    between atoms: C_18  and  N_13 
REMARK    4  A    between atoms: S_14  and  C_19 
REMARK    5  A    between atoms: C_19  and  C_18 
ROOT
ATOM      1  C   UNL d   1      33.054  20.005 -21.901  0.00  0.00     0.056 C 
ENDROOT
BRANCH   1   2
ATOM      2  S   UNL d   1      33.227  19.788 -22.686  0.00  0.00    -0.083 SA
BRANCH   2   3
ATOM      3  C   UNL d   1      33.183  18.989 -22.914  0.00  0.00     0.050 A 
ATOM      4  C   UNL d   1      33.074  18.717 -23.683  0.00  0.00     0.025 A 
ATOM      5  C   UNL d   1      33.064  17.885 -23.658  0.00  0.00     0.082 A 
ATOM      6  C   UNL d   1      32.982  19.109 -24.408  0.00  0.00     0.002 A 
ATOM      7  C   UNL d   1      32.963  17.450 -24.354  0.00  0.00     0.019 A 
ATOM      8  N   UNL d   1      33.168  17.657 -22.868  0.00  0.00    -0.243 NA
ATOM      9  C   UNL d   1      32.872  17.845 -25.071  0.00  0.00     0.002 A 
ATOM     10  C   UNL d   1      32.881  18.681 -25.097  0.00  0.00     0.000 A 
ATOM     11  C   UNL d   1      33.241  18.338 -22.412  0.00  0.00     0.105 A 
ENDBRANCH   2   3
ENDBRANCH   1   2
BRANCH   1  12
ATOM     12  C   UNL d   1      33.010  20.803 -21.696  0.00  0.00     0.109 C 
BRANCH  12  13
ATOM     13  N   UNL d   1      32.893  21.024 -20.897  0.00  0.00    -0.204 NA
ATOM     14  C   UNL d   1      32.732  21.808 -20.703  0.00  0.00     0.302 C 
ATOM     15  O   UNL d   1      32.617  22.020 -19.914  0.00  0.00    -0.263 OA
BRANCH  14  16
ATOM     16  C   UNL d   1      32.685  22.385 -21.304  0.00  0.00     0.158 A 
ATOM     17  O   UNL d   1      33.123  22.504 -21.996  0.00  0.00    -0.296 OA
ATOM     18  C   UNL d   1      32.819  23.171 -22.372  0.00  0.00     0.134 A 
ATOM     19 BR   UNL d   1      33.092  23.495 -23.090  0.00  0.00    -0.022 Br
ATOM     20  C   UNL d   1      32.198  23.466 -21.920  0.00  0.00     0.034 A 
ATOM     21  C   UNL d   1      32.116  22.980 -21.260  0.00  0.00     0.032 A 
ENDBRANCH  14  16
ENDBRANCH  12  13
ENDBRANCH   1  12
TORSDOF 5
ENDMDL
MODEL 4
REMARK VINA RESULT:      -1.1      1.185      1.713
REMARK  5 active torsions:
REMARK  status: ('A' for Active; 'I' for Inactive)
REMARK    1  A    between atoms: C_7  and  C_1 
REMARK    2  A    between atoms: C_5  and  S_14 
REMARK       I    between atoms: N_13  and  C_7 
REMARK    3  A    between atoms: C_18  and  N_13 
REMARK    4  A    between atoms: S_14  and  C_19 
REMARK    5  A    between atoms: C_19  and  C_18 
ROOT
ATOM      1  C   UNL d   1      32.655  20.109 -22.605  0.00  0.00     0.056 C 
ENDROOT
BRANCH   1   2
ATOM      2  S   UNL d   1      33.162  20.439 -22.033  0.00  0.00    -0.083 SA
BRANCH   2   3
ATOM      3  C   UNL d   1      33.064  21.232 -21.801  0.00  0.00     0.050 A 
ATOM      4  C   UNL d   1      33.102  21.511 -21.028  0.00  0.00     0.025 A 
ATOM      5  C   UNL d   1      32.973  22.334 -21.050  0.00  0.00     0.082 A 
ATOM      6  C   UNL d   1      33.235  21.134 -20.302  0.00  0.00     0.002 A 
ATOM      7  C   UNL d   1      32.978  22.773 -20.350  0.00  0.00     0.019 A 
ATOM      8  N   UNL d   1      32.857  22.549 -21.842  0.00  0.00    -0.243 NA
ATOM      9  C   UNL d   1      33.111  22.393 -19.631  0.00  0.00     0.002 A 
ATOM     10  C   UNL d   1      33.241  21.567 -19.609  0.00  0.00     0.000 A 
ATOM     11  C   UNL d   1      32.914  21.869 -22.303  0.00  0.00     0.105 A 
ENDBRANCH   2   3
ENDBRANCH   1   2
BRANCH   1  12
ATOM     12  C   UNL d   1      32.880  19.425 -23.007  0.00  0.00     0.109 C 
BRANCH  12  13
ATOM     13  N   UNL d   1      33.099  19.466 -23.815  0.00  0.00    -0.204 NA
ATOM     14  C   UNL d   1      33.023  18.805 -24.299  0.00  0.00     0.302 C 
ATOM     15  O   UNL d   1      33.239  18.851 -25.094  0.00  0.00    -0.263 OA
BRANCH  14  16
ATOM     16  C   UNL d   1      32.727  18.090 -23.986  0.00  0.00     0.158 A 
ATOM     17  O   UNL d   1      31.969  17.758 -23.977  0.00  0.00    -0.296 OA
ATOM     18  C   UNL d   1      32.017  17.036 -23.584  0.00  0.00     0.134 A 
ATOM     19 BR   UNL d   1      31.384  16.511 -23.446  0.00  0.00    -0.022 Br
ATOM     20  C   UNL d   1      32.797  16.917 -23.350  0.00  0.00     0.034 A 
ATOM     21  C   UNL d   1      33.234  17.570 -23.599  0.00  0.00     0.032 A 
ENDBRANCH  14  16
ENDBRANCH  12  13
ENDBRANCH   1  12
TORSDOF 5
ENDMDL
MODEL 5
REMARK VINA RESULT:      -1.1      2.877      5.161
REMARK  5 active torsions:
REMARK  status: ('A' for Active; 'I' for Inactive)
REMARK    1  A    between atoms: C_7  and  C_1 
REMARK    2  A    between atoms: C_5  and  S_14 
REMARK       I    between atoms: N_13  and  C_7 
REMARK    3  A    between atoms: C_18  and  N_13 
REMARK    4  A    between atoms: S_14  and  C_19 
REMARK    5  A    between atoms: C_19  and  C_18 
ROOT
ATOM      1  C   UNL d   1      32.646  20.769 -21.630  0.00  0.00     0.056 C 
ENDROOT
BRANCH   1   2
ATOM      2  S   UNL d   1      33.181  20.550 -22.229  0.00  0.00    -0.083 SA
BRANCH   2   3
ATOM      3  C   UNL d   1      33.202  19.764 -22.498  0.00  0.00     0.050 A 
ATOM      4  C   UNL d   1      33.209  19.529 -23.287  0.00  0.00     0.025 A 
ATOM      5  C   UNL d   1      33.230  18.697 -23.304  0.00  0.00     0.082 A 
ATOM      6  C   UNL d   1      33.198  19.955 -23.999  0.00  0.00     0.002 A 
ATOM      7  C   UNL d   1      33.241  18.296 -24.027  0.00  0.00     0.019 A 
ATOM      8  N   UNL d   1      33.236  18.431 -22.519  0.00  0.00    -0.243 NA
ATOM      9  C   UNL d   1      33.231  18.725 -24.730  0.00  0.00     0.002 A 
ATOM     10  C   UNL d   1      33.209  19.562 -24.714  0.00  0.00     0.000 A 
ATOM     11  C   UNL d   1      33.218  19.090 -22.025  0.00  0.00     0.105 A 
ENDBRANCH   2   3
ENDBRANCH   1   2
BRANCH   1  12
ATOM     12  C   UNL d   1      32.671  21.532 -21.316  0.00  0.00     0.109 C 
BRANCH  12  13
ATOM     13  N   UNL d   1      32.375  22.177 -21.759  0.00  0.00    -0.204 NA
ATOM     14  C   UNL d   1      32.257  22.908 -21.399  0.00  0.00     0.302 C 
ATOM     15  O   UNL d   1      31.965  23.541 -21.841  0.00  0.00    -0.263 OA
BRANCH  14  16
ATOM     16  C   UNL d   1      32.432  23.007 -20.589  0.00  0.00     0.158 A 
ATOM     17  O   UNL d   1      32.892  22.566 -20.062  0.00  0.00    -0.296 OA
ATOM     18  C   UNL d   1      32.858  22.939 -19.328  0.00  0.00     0.134 A 
ATOM     19 BR   UNL d   1      33.240  22.685 -18.631  0.00  0.00    -0.022 Br
ATOM     20  C   UNL d   1      32.381  23.606 -19.396  0.00  0.00     0.034 A 
ATOM     21  C   UNL d   1      32.119  23.647 -20.176  0.00  0.00     0.032 A 
ENDBRANCH  14  16
ENDBRANCH  12  13
ENDBRANCH   1  12
TORSDOF 5
ENDMDL
MODEL 6
REMARK VINA RESULT:      -0.6      2.284      5.039
REMARK  5 active torsions:
REMARK  status: ('A' for Active; 'I' for Inactive)
REMARK    1  A    between atoms: C_7  and  C_1 
REMARK    2  A    between atoms: C_5  and  S_14 
REMARK       I    between atoms: N_13  and  C_7 
REMARK    3  A    between atoms: C_18  and  N_13 
REMARK    4  A    between atoms: S_14  and  C_19 
REMARK    5  A    between atoms: C_19  and  C_18 
ROOT
ATOM      1  C   UNL d   1      32.641  19.374 -23.497  0.00  0.00     0.056 C 
ENDROOT
BRANCH   1   2
ATOM      2  S   UNL d   1      33.003  18.626 -23.550  0.00  0.00    -0.083 SA
BRANCH   2   3
ATOM      3  C   UNL d   1      32.585  17.987 -23.881  0.00  0.00     0.050 A 
ATOM      4  C   UNL d   1      32.667  17.198 -23.662  0.00  0.00     0.025 A 
ATOM      5  C   UNL d   1      32.146  16.749 -24.133  0.00  0.00     0.082 A 
ATOM      6  C   UNL d   1      33.142  16.820 -23.097  0.00  0.00     0.002 A 
ATOM      7  C   UNL d   1      32.104  15.929 -24.038  0.00  0.00     0.019 A 
ATOM      8  N   UNL d   1      31.750  17.274 -24.638  0.00  0.00    -0.243 NA
ATOM      9  C   UNL d   1      32.579  15.559 -23.476  0.00  0.00     0.002 A 
ATOM     10  C   UNL d   1      33.102  16.009 -23.002  0.00  0.00     0.000 A 
ATOM     11  C   UNL d   1      32.022  18.035 -24.481  0.00  0.00     0.105 A 
ENDBRANCH   2   3
ENDBRANCH   1   2
BRANCH   1  12
ATOM     12  C   UNL d   1      33.016  19.983 -23.084  0.00  0.00     0.109 C 
BRANCH  12  13
ATOM     13  N   UNL d   1      33.123  20.730 -23.447  0.00  0.00    -0.204 NA
ATOM     14  C   UNL d   1      33.113  21.416 -22.992  0.00  0.00     0.302 C 
ATOM     15  O   UNL d   1      33.219  22.150 -23.354  0.00  0.00    -0.263 OA
BRANCH  14  16
ATOM     16  C   UNL d   1      32.996  21.368 -22.167  0.00  0.00     0.158 A 
ATOM     17  O   UNL d   1      33.239  20.816 -21.602  0.00  0.00    -0.296 OA
ATOM     18  C   UNL d   1      32.954  21.064 -20.870  0.00  0.00     0.134 A 
ATOM     19 BR   UNL d   1      33.067  20.674 -20.142  0.00  0.00    -0.022 Br
ATOM     20  C   UNL d   1      32.535  21.765 -20.977  0.00  0.00     0.034 A 
ATOM     21  C   UNL d   1      32.562  21.952 -21.779  0.00  0.00     0.032 A 
ENDBRANCH  14  16
ENDBRANCH  12  13
ENDBRANCH   1  12
TORSDOF 5
ENDMDL
