MODEL 1
REMARK VINA RESULT:       3.9      0.000      0.000
REMARK  5 active torsions:
REMARK  status: ('A' for Active; 'I' for Inactive)
REMARK    1  A    between atoms: C_12  and  C_3 
REMARK    2  A    between atoms: C_14  and  N_5 
REMARK    3  A    between atoms: C_11  and  C_6 
REMARK    4  A    between atoms: O_25  and  C_12 
REMARK    5  A    between atoms: C_24  and  C_14 
ROOT
ATOM      1  C   UNL d   1      57.906  -1.042  30.648  0.00  0.00     0.080 A 
ATOM      2  C   UNL d   1      57.990  -0.324  31.051  0.00  0.00     0.267 A 
ATOM      3  C   UNL d   1      58.374  -1.992  29.679  0.00  0.00     0.106 A 
ATOM      4  C   UNL d   1      57.259  -1.539  30.811  0.00  0.00     0.108 A 
ATOM      5  N   UNL d   1      57.427  -0.100  31.620  0.00  0.00    -0.271 N 
ATOM      6  C   UNL d   1      58.459  -1.273  30.082  0.00  0.00     0.015 A 
ATOM      7  C   UNL d   1      57.733  -2.481  29.843  0.00  0.00     0.208 A 
ATOM      8  O   UNL d   1      57.166  -2.260  30.413  0.00  0.00    -0.288 OA
ATOM      9  C   UNL d   1      56.700  -1.316  31.376  0.00  0.00     0.043 A 
ATOM     10  C   UNL d   1      56.780  -0.597  31.783  0.00  0.00     0.069 A 
ATOM     11  O   UNL d   1      58.631   0.169  30.889  0.00  0.00    -0.267 OA
ATOM     12  N   UNL d   1      57.644  -3.202  29.442  0.00  0.00    -0.121 N 
ATOM     13  C   UNL d   1      56.222  -0.376  32.345  0.00  0.00     0.019 C 
ENDROOT
BRANCH   6  14
ATOM     14  C   UNL d   1      59.101  -0.784  29.917  0.00  0.00     0.001 A 
ATOM     15  C   UNL d   1      59.796  -0.861  30.358  0.00  0.00     0.012 A 
ATOM     16  C   UNL d   1      60.439  -0.373  30.194  0.00  0.00     0.068 A 
ATOM     17 CL   UNL d   1      61.131  -0.447  30.630  0.00  0.00    -0.082 Cl
ATOM     18  C   UNL d   1      60.391   0.189  29.595  0.00  0.00     0.068 A 
ATOM     19  C   UNL d   1      59.685   0.260  29.155  0.00  0.00     0.012 A 
ATOM     20 CL   UNL d   1      61.031   0.679  29.428  0.00  0.00    -0.082 Cl
ATOM     21  C   UNL d   1      59.044  -0.230  29.322  0.00  0.00     0.001 A 
ENDBRANCH   6  14
BRANCH   3  22
ATOM     22  C   UNL d   1      58.926  -2.217  29.119  0.00  0.00     0.299 C 
ATOM     23  O   UNL d   1      59.063  -1.744  28.459  0.00  0.00    -0.259 OA
BRANCH  22  24
ATOM     24  O   UNL d   1      59.348  -2.917  29.209  0.00  0.00    -0.296 OA
ATOM     25  C   UNL d   1      59.938  -3.123  28.667  0.00  0.00     0.185 C 
ENDBRANCH  22  24
ENDBRANCH   3  22
BRANCH   5  26
ATOM     26  C   UNL d   1      57.503   0.608  32.022  0.00  0.00     0.108 C 
BRANCH  26  27
ATOM     27  C   UNL d   1      57.571   0.615  32.841  0.00  0.00     0.118 A 
ATOM     28  O   UNL d   1      58.263   0.682  33.267  0.00  0.00    -0.304 OA
ATOM     29  C   UNL d   1      58.078   0.664  34.068  0.00  0.00     0.123 A 
ATOM     30  C   UNL d   1      57.259   0.585  34.143  0.00  0.00     0.029 A 
ATOM     31  C   UNL d   1      56.947   0.555  33.377  0.00  0.00     0.028 A 
ENDBRANCH  26  27
ENDBRANCH   5  26
TORSDOF 5
ENDMDL
