MODEL 1
REMARK VINA RESULT:      -6.7      0.000      0.000
REMARK  3 active torsions:
REMARK  status: ('A' for Active; 'I' for Inactive)
REMARK    1  A    between atoms: C_4  and  C_1 
REMARK    2  A    between atoms: N_2  and  C_9 
REMARK       I    between atoms: N_7  and  C_4 
REMARK    3  A    between atoms: C_11  and  N_7 
ROOT
ATOM      1  C   UNL d   1     -41.627-122.577 -51.647  0.00  0.00     0.087 A 
ATOM      2  S   UNL d   1     -41.128-123.105 -51.255  0.00  0.00    -0.082 SA
ATOM      3  C   UNL d   1     -42.199-122.327 -51.121  0.00  0.00     0.012 A 
ATOM      4  C   UNL d   1     -42.067-122.696 -50.390  0.00  0.00     0.008 A 
ATOM      5  C   UNL d   1     -41.385-123.191 -50.475  0.00  0.00     0.030 A 
ATOM      6  C   UNL d   1     -42.187-123.094 -49.040  0.00  0.00     0.127 A 
ATOM      7  C   UNL d   1     -42.451-122.658 -49.676  0.00  0.00     0.024 A 
ATOM      8  C   UNL d   1     -41.127-123.621 -49.842  0.00  0.00     0.008 A 
ATOM      9  C   UNL d   1     -41.506-123.589 -49.126  0.00  0.00     0.024 A 
ENDROOT
BRANCH   1  10
ATOM     10  C   UNL d   1     -41.557-122.345 -52.435  0.00  0.00     0.286 C 
ATOM     11  N   UNL d   1     -41.909-122.783 -53.037  0.00  0.00    -0.189 NA
ATOM     12  O   UNL d   1     -41.123-121.654 -52.634  0.00  0.00    -0.265 OA
BRANCH  11  13
ATOM     13  C   UNL d   1     -41.848-122.565 -53.831  0.00  0.00     0.166 A 
ATOM     14  N   UNL d   1     -42.455-122.096 -54.162  0.00  0.00    -0.225 NA
ATOM     15  C   UNL d   1     -42.410-121.869 -54.954  0.00  0.00     0.101 A 
ATOM     16  C   UNL d   1     -41.757-122.108 -55.421  0.00  0.00     0.021 A 
ATOM     17  C   UNL d   1     -41.169-122.564 -55.095  0.00  0.00     0.005 A 
ATOM     18  C   UNL d   1     -41.214-122.795 -54.292  0.00  0.00     0.039 A 
ENDBRANCH  11  13
ENDBRANCH   1  10
BRANCH   6  19
ATOM     19  N   UNL d   1     -42.575-123.068 -48.289  0.00  0.00    -0.114 N 
ATOM     20  O   UNL d   1     -42.248-122.686 -47.652  0.00  0.00    -0.532 OA
ATOM     21  O   UNL d   1     -43.309-123.445 -48.210  0.00  0.00    -0.532 OA
ENDBRANCH   6  19
TORSDOF 3
ENDMDL
MODEL 2
REMARK VINA RESULT:      -6.5      1.452      4.922
REMARK  3 active torsions:
REMARK  status: ('A' for Active; 'I' for Inactive)
REMARK    1  A    between atoms: C_4  and  C_1 
REMARK    2  A    between atoms: N_2  and  C_9 
REMARK       I    between atoms: N_7  and  C_4 
REMARK    3  A    between atoms: C_11  and  N_7 
ROOT
ATOM      1  C   UNL d   1     -41.544-122.574 -52.021  0.00  0.00     0.087 A 
ATOM      2  S   UNL d   1     -41.197-123.146 -52.504  0.00  0.00    -0.082 SA
ATOM      3  C   UNL d   1     -41.895-122.013 -52.498  0.00  0.00     0.012 A 
ATOM      4  C   UNL d   1     -41.773-122.226 -53.291  0.00  0.00     0.008 A 
ATOM      5  C   UNL d   1     -41.329-122.947 -53.295  0.00  0.00     0.030 A 
ATOM      6  C   UNL d   1     -41.788-122.228 -54.703  0.00  0.00     0.127 A 
ATOM      7  C   UNL d   1     -41.992-121.884 -53.993  0.00  0.00     0.024 A 
ATOM      8  C   UNL d   1     -41.128-123.285 -54.001  0.00  0.00     0.008 A 
ATOM      9  C   UNL d   1     -41.344-122.949 -54.707  0.00  0.00     0.024 A 
ENDROOT
BRANCH   1  10
ATOM     10  C   UNL d   1     -41.535-122.573 -51.196  0.00  0.00     0.286 C 
ATOM     11  N   UNL d   1     -41.926-123.159 -50.769  0.00  0.00    -0.189 NA
ATOM     12  O   UNL d   1     -41.124-121.971 -50.779  0.00  0.00    -0.265 OA
BRANCH  11  13
ATOM     13  C   UNL d   1     -41.927-123.173 -49.944  0.00  0.00     0.166 A 
ATOM     14  N   UNL d   1     -42.597-122.875 -49.542  0.00  0.00    -0.225 NA
ATOM     15  C   UNL d   1     -42.614-122.881 -48.717  0.00  0.00     0.101 A 
ATOM     16  C   UNL d   1     -41.963-123.186 -48.288  0.00  0.00     0.021 A 
ATOM     17  C   UNL d   1     -41.314-123.475 -48.683  0.00  0.00     0.005 A 
ATOM     18  C   UNL d   1     -41.296-123.469 -49.519  0.00  0.00     0.039 A 
ENDBRANCH  11  13
ENDBRANCH   1  10
BRANCH   6  19
ATOM     19  N   UNL d   1     -42.008-121.886 -55.445  0.00  0.00    -0.114 N 
ATOM     20  O   UNL d   1     -41.482-121.455 -55.889  0.00  0.00    -0.532 OA
ATOM     21  O   UNL d   1     -42.782-121.998 -55.718  0.00  0.00    -0.532 OA
ENDBRANCH   6  19
TORSDOF 3
ENDMDL
