MODEL 1
REMARK VINA RESULT:      17.1      0.000      0.000
REMARK  2 active torsions:
REMARK  status: ('A' for Active; 'I' for Inactive)
REMARK    1  A    between atoms: C_11  and  N_1 
REMARK    2  A    between atoms: C_15  and  C_11 
ROOT
ATOM      1  N   UNL d   1      46.445 -18.275  44.193  0.00  0.00    -0.244 N 
ATOM      2  C   UNL d   1      46.349 -19.096  44.248  0.00  0.00     0.246 A 
ATOM      3  C   UNL d   1      46.357 -19.414  43.482  0.00  0.00     0.095 A 
ATOM      4  C   UNL d   1      46.515 -18.081  43.385  0.00  0.00     0.260 A 
ATOM      5  C   UNL d   1      46.461 -18.784  42.946  0.00  0.00     0.024 A 
ATOM      6  C   UNL d   1      46.286 -20.181  43.203  0.00  0.00     0.034 A 
ATOM      7  C   UNL d   1      46.491 -18.932  42.140  0.00  0.00     0.045 A 
ATOM      8  C   UNL d   1      46.317 -20.330  42.396  0.00  0.00    -0.030 A 
ATOM      9  C   UNL d   1      46.419 -19.706  41.866  0.00  0.00    -0.027 A 
ATOM     10  C   UNL d   1      46.391 -19.439  42.851  0.00  0.00     0.014 A 
ATOM     11  O   UNL d   1      46.258 -19.532  44.951  0.00  0.00    -0.271 OA
ATOM     12  O   UNL d   1      46.620 -17.321  43.070  0.00  0.00    -0.267 OA
ATOM     13  C   UNL d   1      46.264 -19.879  44.164  0.00  0.00     0.014 C 
ENDROOT
BRANCH   1  14
ATOM     14  C   UNL d   1      46.469 -17.747  44.825  0.00  0.00     0.086 C 
BRANCH  14  15
ATOM     15  C   UNL d   1      46.003 -17.071  44.808  0.00  0.00     0.018 A 
ATOM     16  C   UNL d   1      45.201 -17.122  44.953  0.00  0.00     0.002 A 
ATOM     17  C   UNL d   1      44.736 -16.447  44.936  0.00  0.00     0.000 A 
ATOM     18  C   UNL d   1      45.081 -15.710  44.771  0.00  0.00     0.000 A 
ATOM     19  C   UNL d   1      45.891 -15.662  44.625  0.00  0.00     0.000 A 
ATOM     20  C   UNL d   1      46.349 -16.343  44.644  0.00  0.00     0.002 A 
ENDBRANCH  14  15
ENDBRANCH   1  14
TORSDOF 2
ENDMDL
MODEL 2
REMARK VINA RESULT:      18.1      2.566      5.079
REMARK  2 active torsions:
REMARK  status: ('A' for Active; 'I' for Inactive)
REMARK    1  A    between atoms: C_11  and  N_1 
REMARK    2  A    between atoms: C_15  and  C_11 
ROOT
ATOM      1  N   UNL d   1      45.239 -14.518  44.586  0.00  0.00    -0.244 N 
ATOM      2  C   UNL d   1      44.648 -14.132  44.155  0.00  0.00     0.246 A 
ATOM      3  C   UNL d   1      44.950 -13.409  43.882  0.00  0.00     0.095 A 
ATOM      4  C   UNL d   1      45.916 -14.031  44.582  0.00  0.00     0.260 A 
ATOM      5  C   UNL d   1      45.737 -13.347  44.148  0.00  0.00     0.024 A 
ATOM      6  C   UNL d   1      44.620 -12.807  43.434  0.00  0.00     0.034 A 
ATOM      7  C   UNL d   1      46.182 -12.684  43.961  0.00  0.00     0.045 A 
ATOM      8  C   UNL d   1      45.064 -12.143  43.247  0.00  0.00    -0.030 A 
ATOM      9  C   UNL d   1      45.844 -12.081  43.510  0.00  0.00    -0.027 A 
ATOM     10  C   UNL d   1      45.359 -12.937  43.784  0.00  0.00     0.014 A 
ATOM     11  O   UNL d   1      43.878 -14.416  44.015  0.00  0.00    -0.271 OA
ATOM     12  O   UNL d   1      46.642 -14.198  44.947  0.00  0.00    -0.267 OA
ATOM     13  C   UNL d   1      44.175 -13.663  43.724  0.00  0.00     0.014 C 
ENDROOT
BRANCH   1  14
ATOM     14  C   UNL d   1      45.169 -15.253  44.953  0.00  0.00     0.086 C 
BRANCH  14  15
ATOM     15  C   UNL d   1      45.452 -15.925  44.576  0.00  0.00     0.018 A 
ATOM     16  C   UNL d   1      45.173 -16.127  43.835  0.00  0.00     0.002 A 
ATOM     17  C   UNL d   1      45.455 -16.798  43.459  0.00  0.00     0.000 A 
ATOM     18  C   UNL d   1      46.025 -17.274  43.831  0.00  0.00     0.000 A 
ATOM     19  C   UNL d   1      46.304 -17.067  44.579  0.00  0.00     0.000 A 
ATOM     20  C   UNL d   1      46.016 -16.394  44.949  0.00  0.00     0.002 A 
ENDBRANCH  14  15
ENDBRANCH   1  14
TORSDOF 2
ENDMDL
