MODEL 1
REMARK VINA RESULT:      -5.0      0.000      0.000
REMARK  2 active torsions:
REMARK  status: ('A' for Active; 'I' for Inactive)
REMARK    1  A    between atoms: C_7  and  C_5 
REMARK    2  A    between atoms: C_8  and  C_7 
ROOT
ATOM      1  C   UNL d   1     -41.123-122.995 -53.948  0.00  0.00     0.046 C 
ENDROOT
BRANCH   1   2
ATOM      2  C   UNL d   1     -41.270-122.861 -53.160  0.00  0.00     0.205 A 
ATOM      3  N   UNL d   1     -41.611-123.421 -52.691  0.00  0.00    -0.120 NA
ATOM      4  N   UNL d   1     -41.679-123.103 -51.929  0.00  0.00    -0.109 NA
ATOM      5  C   UNL d   1     -41.369-122.346 -51.965  0.00  0.00     0.262 A 
ATOM      6  O   UNL d   1     -41.125-122.194 -52.686  0.00  0.00    -0.260 OA
ATOM      7  S   UNL d   1     -41.318-121.805 -51.318  0.00  0.00    -0.029 SA
ENDBRANCH   1   2
BRANCH   1   8
ATOM      8  C   UNL d   1     -41.632-122.652 -54.536  0.00  0.00     0.004 A 
ATOM      9  C   UNL d   1     -42.328-123.020 -54.786  0.00  0.00     0.000 A 
ATOM     10  C   UNL d   1     -42.813-122.676 -55.357  0.00  0.00     0.000 A 
ATOM     11  C   UNL d   1     -42.584-121.950 -55.674  0.00  0.00     0.000 A 
ATOM     12  C   UNL d   1     -41.895-121.567 -55.439  0.00  0.00     0.000 A 
ATOM     13  C   UNL d   1     -41.405-121.945 -54.842  0.00  0.00     0.000 A 
ENDBRANCH   1   8
TORSDOF 2
ENDMDL
MODEL 2
REMARK VINA RESULT:      -4.7      1.648      3.143
REMARK  2 active torsions:
REMARK  status: ('A' for Active; 'I' for Inactive)
REMARK    1  A    between atoms: C_7  and  C_5 
REMARK    2  A    between atoms: C_8  and  C_7 
ROOT
ATOM      1  C   UNL d   1     -41.123-123.309 -53.333  0.00  0.00     0.046 C 
ENDROOT
BRANCH   1   2
ATOM      2  C   UNL d   1     -41.587-123.016 -53.932  0.00  0.00     0.205 A 
ATOM      3  N   UNL d   1     -42.271-123.380 -54.156  0.00  0.00    -0.120 NA
ATOM      4  N   UNL d   1     -42.599-122.939 -54.775  0.00  0.00    -0.109 NA
ATOM      5  C   UNL d   1     -42.091-122.311 -54.907  0.00  0.00     0.262 A 
ATOM      6  O   UNL d   1     -41.491-122.347 -54.415  0.00  0.00    -0.260 OA
ATOM      7  S   UNL d   1     -42.197-121.708 -55.490  0.00  0.00    -0.029 SA
ENDBRANCH   1   2
BRANCH   1   8
ATOM      8  C   UNL d   1     -41.218-123.009 -52.542  0.00  0.00     0.004 A 
ATOM      9  C   UNL d   1     -41.135-122.208 -52.362  0.00  0.00     0.000 A 
ATOM     10  C   UNL d   1     -41.229-121.930 -51.591  0.00  0.00     0.000 A 
ATOM     11  C   UNL d   1     -41.410-122.478 -51.001  0.00  0.00     0.000 A 
ATOM     12  C   UNL d   1     -41.498-123.279 -51.160  0.00  0.00     0.000 A 
ATOM     13  C   UNL d   1     -41.394-123.545 -51.971  0.00  0.00     0.000 A 
ENDBRANCH   1   8
TORSDOF 2
ENDMDL
MODEL 3
REMARK VINA RESULT:      -4.5      1.155      1.554
REMARK  2 active torsions:
REMARK  status: ('A' for Active; 'I' for Inactive)
REMARK    1  A    between atoms: C_7  and  C_5 
REMARK    2  A    between atoms: C_8  and  C_7 
ROOT
ATOM      1  C   UNL d   1     -41.125-121.999 -52.602  0.00  0.00     0.046 C 
ENDROOT
BRANCH   1   2
ATOM      2  C   UNL d   1     -41.412-122.317 -51.911  0.00  0.00     0.205 A 
ATOM      3  N   UNL d   1     -42.019-121.973 -51.507  0.00  0.00    -0.120 NA
ATOM      4  N   UNL d   1     -42.169-122.437 -50.837  0.00  0.00    -0.109 NA
ATOM      5  C   UNL d   1     -41.635-123.057 -50.861  0.00  0.00     0.262 A 
ATOM      6  O   UNL d   1     -41.184-122.996 -51.489  0.00  0.00    -0.260 OA
ATOM      7  S   UNL d   1     -41.577-123.676 -50.288  0.00  0.00    -0.029 SA
ENDBRANCH   1   2
BRANCH   1   8
ATOM      8  C   UNL d   1     -41.376-122.319 -53.349  0.00  0.00     0.004 A 
ATOM      9  C   UNL d   1     -41.123-123.056 -53.621  0.00  0.00     0.000 A 
ATOM     10  C   UNL d   1     -41.373-123.355 -54.347  0.00  0.00     0.000 A 
ATOM     11  C   UNL d   1     -41.889-122.894 -54.799  0.00  0.00     0.000 A 
ATOM     12  C   UNL d   1     -42.153-122.157 -54.546  0.00  0.00     0.000 A 
ATOM     13  C   UNL d   1     -41.877-121.868 -53.785  0.00  0.00     0.000 A 
ENDBRANCH   1   8
TORSDOF 2
ENDMDL
