MODEL 1
REMARK VINA RESULT:      22.2      0.000      0.000
REMARK  4 active torsions:
REMARK  status: ('A' for Active; 'I' for Inactive)
REMARK    1  A    between atoms: N_4  and  C_1 
REMARK       I    between atoms: C_10  and  N_4 
REMARK    2  A    between atoms: C_7  and  C_8 
REMARK    3  A    between atoms: O_15  and  C_7 
REMARK    4  A    between atoms: C_17  and  O_15 
ROOT
ATOM      1  C   UNL d   1     -58.513 -98.773 -43.756  0.00  0.00     0.197 A 
ATOM      2  N   UNL d   1     -58.415 -98.755 -44.585  0.00  0.00    -0.221 NA
ATOM      3  S   UNL d   1     -57.763 -98.793 -43.415  0.00  0.00    -0.047 SA
ATOM      4  C   UNL d   1     -57.195 -98.788 -44.017  0.00  0.00     0.050 A 
ATOM      5  C   UNL d   1     -57.601 -98.765 -44.746  0.00  0.00     0.090 A 
ATOM      6  C   UNL d   1     -55.956 -98.793 -44.708  0.00  0.00     0.064 A 
ATOM      7  C   UNL d   1     -56.371 -98.802 -44.004  0.00  0.00     0.013 A 
ATOM      8  C   UNL d   1     -57.175 -98.756 -45.447  0.00  0.00     0.020 A 
ATOM      9  C   UNL d   1     -56.362 -98.769 -45.437  0.00  0.00     0.007 A 
ENDROOT
BRANCH   6  10
ATOM     10  C   UNL d   1     -55.129 -98.806 -44.709  0.00  0.00     0.300 C 
ATOM     11  O   UNL d   1     -54.718 -98.775 -45.411  0.00  0.00    -0.259 OA
BRANCH  10  12
ATOM     12  O   UNL d   1     -54.725 -98.852 -43.984  0.00  0.00    -0.271 OA
BRANCH  12  13
ATOM     13  C   UNL d   1     -54.714 -99.559 -43.557  0.00  0.00     0.126 C 
ATOM     14  C   UNL d   1     -54.737-100.274 -43.946  0.00  0.00     0.029 C 
ENDBRANCH  12  13
ENDBRANCH  10  12
ENDBRANCH   6  10
BRANCH   1  15
ATOM     15  N   UNL d   1     -59.235 -98.771 -43.354  0.00  0.00    -0.183 NA
ATOM     16  C   UNL d   1     -59.249 -98.786 -42.529  0.00  0.00     0.281 C 
ATOM     17  O   UNL d   1     -58.532 -98.804 -42.101  0.00  0.00    -0.265 OA
ATOM     18  C   UNL d   1     -59.960 -98.784 -42.133  0.00  0.00     0.068 C 
ENDBRANCH   1  15
TORSDOF 4
ENDMDL
MODEL 2
REMARK VINA RESULT:      24.5      3.122      4.164
REMARK  4 active torsions:
REMARK  status: ('A' for Active; 'I' for Inactive)
REMARK    1  A    between atoms: N_4  and  C_1 
REMARK       I    between atoms: C_10  and  N_4 
REMARK    2  A    between atoms: C_7  and  C_8 
REMARK    3  A    between atoms: O_15  and  C_7 
REMARK    4  A    between atoms: C_17  and  O_15 
ROOT
ATOM      1  C   UNL d   1     -54.723-102.190 -41.897  0.00  0.00     0.197 A 
ATOM      2  N   UNL d   1     -54.744-102.428 -42.697  0.00  0.00    -0.221 NA
ATOM      3  S   UNL d   1     -54.711-101.367 -41.880  0.00  0.00    -0.047 SA
ATOM      4  C   UNL d   1     -54.724-101.083 -42.658  0.00  0.00     0.050 A 
ATOM      5  C   UNL d   1     -54.744-101.745 -43.167  0.00  0.00     0.090 A 
ATOM      6  C   UNL d   1     -54.735-100.218 -43.782  0.00  0.00     0.064 A 
ATOM      7  C   UNL d   1     -54.719-100.321 -42.972  0.00  0.00     0.013 A 
ATOM      8  C   UNL d   1     -54.760-101.630 -43.980  0.00  0.00     0.020 A 
ATOM      9  C   UNL d   1     -54.756-100.879 -44.291  0.00  0.00     0.007 A 
ENDROOT
BRANCH   6  10
ATOM     10  C   UNL d   1     -54.731 -99.459 -44.111  0.00  0.00     0.300 C 
ATOM     11  O   UNL d   1     -54.725 -98.802 -43.630  0.00  0.00    -0.259 OA
BRANCH  10  12
ATOM     12  O   UNL d   1     -54.734 -99.378 -44.938  0.00  0.00    -0.271 OA
BRANCH  12  13
ATOM     13  C   UNL d   1     -55.156 -98.763 -45.295  0.00  0.00     0.126 C 
ATOM     14  C   UNL d   1     -55.880 -98.906 -45.638  0.00  0.00     0.029 C 
ENDBRANCH  12  13
ENDBRANCH  10  12
ENDBRANCH   6  10
BRANCH   1  15
ATOM     15  N   UNL d   1     -54.717-102.695 -41.242  0.00  0.00    -0.183 NA
ATOM     16  C   UNL d   1     -54.769-102.383 -40.480  0.00  0.00     0.281 C 
ATOM     17  O   UNL d   1     -54.829-101.557 -40.371  0.00  0.00    -0.265 OA
ATOM     18  C   UNL d   1     -54.762-102.880 -39.835  0.00  0.00     0.068 C 
ENDBRANCH   1  15
TORSDOF 4
ENDMDL
