MODEL 1
REMARK VINA RESULT:      23.0      0.000      0.000
REMARK  7 active torsions:
REMARK  status: ('A' for Active; 'I' for Inactive)
REMARK    1  A    between atoms: C_10  and  N_1 
REMARK    2  A    between atoms: S_8  and  C_6 
REMARK    3  A    between atoms: C_13  and  S_8 
REMARK    4  A    between atoms: C_11  and  C_13 
REMARK    5  A    between atoms: O_18  and  C_11 
REMARK    6  A    between atoms: C_22  and  C_13 
REMARK    7  A    between atoms: C_23  and  O_18 
ROOT
ATOM      1  N   UNL d   1      46.065 -16.782  43.692  0.00  0.00    -0.193 N 
ATOM      2  N   UNL d   1      46.646 -16.374  43.286  0.00  0.00    -0.058 NA
ATOM      3  C   UNL d   1      45.614 -16.228  44.110  0.00  0.00     0.188 A 
ATOM      4  C   UNL d   1      45.929 -15.482  43.951  0.00  0.00     0.164 A 
ATOM      5  N   UNL d   1      46.570 -15.588  43.439  0.00  0.00    -0.125 NA
ATOM      6  C   UNL d   1      45.596 -14.812  44.290  0.00  0.00     0.135 A 
ATOM      7  N   UNL d   1      44.965 -16.305  44.608  0.00  0.00    -0.203 NA
ATOM      8  N   UNL d   1      44.942 -14.886  44.793  0.00  0.00    -0.216 NA
ATOM      9  C   UNL d   1      44.627 -15.632  44.952  0.00  0.00     0.201 A 
ENDROOT
BRANCH   6  10
ATOM     10  S   UNL d   1      45.912 -14.066  44.132  0.00  0.00    -0.061 SA
BRANCH  10  11
ATOM     11  C   UNL d   1      45.492 -13.389  44.332  0.00  0.00     0.094 C 
BRANCH  11  12
ATOM     12  C   UNL d   1      44.800 -13.198  43.924  0.00  0.00     0.306 C 
ATOM     13  O   UNL d   1      44.076 -13.181  44.318  0.00  0.00    -0.258 OA
BRANCH  12  14
ATOM     14  O   UNL d   1      44.837 -13.024  43.114  0.00  0.00    -0.271 OA
BRANCH  14  15
ATOM     15  C   UNL d   1      44.698 -12.253  42.853  0.00  0.00     0.126 C 
ATOM     16  C   UNL d   1      44.388 -12.119  42.108  0.00  0.00     0.029 C 
ENDBRANCH  14  15
ENDBRANCH  12  14
ENDBRANCH  11  12
BRANCH  11  17
ATOM     17  C   UNL d   1      45.764 -12.902  44.940  0.00  0.00     0.012 C 
ATOM     18  C   UNL d   1      46.545 -12.656  44.951  0.00  0.00     0.001 C 
ENDBRANCH  11  17
ENDBRANCH  10  11
ENDBRANCH   6  10
BRANCH   1  19
ATOM     19  C   UNL d   1      45.980 -17.593  43.663  0.00  0.00     0.086 A 
ATOM     20  C   UNL d   1      45.755 -17.959  42.957  0.00  0.00     0.022 A 
ATOM     21  C   UNL d   1      45.668 -18.779  42.927  0.00  0.00     0.031 A 
ATOM     22  C   UNL d   1      45.803 -19.238  43.587  0.00  0.00     0.140 A 
ATOM     23  C   UNL d   1      46.032 -18.867  44.304  0.00  0.00     0.031 A 
ATOM     24  F   UNL d   1      45.710 -20.073  43.536  0.00  0.00    -0.204 F 
ATOM     25  C   UNL d   1      46.119 -18.053  44.341  0.00  0.00     0.022 A 
ENDBRANCH   1  19
TORSDOF 7
ENDMDL
MODEL 2
REMARK VINA RESULT:      24.5      2.704      5.070
REMARK  7 active torsions:
REMARK  status: ('A' for Active; 'I' for Inactive)
REMARK    1  A    between atoms: C_10  and  N_1 
REMARK    2  A    between atoms: S_8  and  C_6 
REMARK    3  A    between atoms: C_13  and  S_8 
REMARK    4  A    between atoms: C_11  and  C_13 
REMARK    5  A    between atoms: O_18  and  C_11 
REMARK    6  A    between atoms: C_22  and  C_13 
REMARK    7  A    between atoms: C_23  and  O_18 
ROOT
ATOM      1  N   UNL d   1      45.606 -15.919  44.348  0.00  0.00    -0.193 N 
ATOM      2  N   UNL d   1      45.295 -16.372  44.954  0.00  0.00    -0.058 NA
ATOM      3  C   UNL d   1      45.956 -16.434  43.804  0.00  0.00     0.188 A 
ATOM      4  C   UNL d   1      45.852 -17.202  44.088  0.00  0.00     0.164 A 
ATOM      5  N   UNL d   1      45.440 -17.148  44.803  0.00  0.00    -0.125 NA
ATOM      6  C   UNL d   1      46.143 -17.842  43.663  0.00  0.00     0.135 A 
ATOM      7  N   UNL d   1      46.351 -16.305  43.096  0.00  0.00    -0.203 NA
ATOM      8  N   UNL d   1      46.542 -17.716  42.948  0.00  0.00    -0.216 NA
ATOM      9  C   UNL d   1      46.646 -16.948  42.665  0.00  0.00     0.201 A 
ENDROOT
BRANCH   6  10
ATOM     10  S   UNL d   1      46.039 -18.610  43.947  0.00  0.00    -0.061 SA
BRANCH  10  11
ATOM     11  C   UNL d   1      46.238 -19.255  43.478  0.00  0.00     0.094 C 
BRANCH  11  12
ATOM     12  C   UNL d   1      46.032 -19.261  42.679  0.00  0.00     0.306 C 
ATOM     13  O   UNL d   1      45.285 -19.004  42.440  0.00  0.00    -0.258 OA
BRANCH  12  14
ATOM     14  O   UNL d   1      46.580 -19.526  42.117  0.00  0.00    -0.271 OA
BRANCH  14  15
ATOM     15  C   UNL d   1      46.421 -19.433  41.311  0.00  0.00     0.126 C 
ATOM     16  C   UNL d   1      46.646 -20.010  40.777  0.00  0.00     0.029 C 
ENDBRANCH  14  15
ENDBRANCH  12  14
ENDBRANCH  11  12
BRANCH  11  17
ATOM     17  C   UNL d   1      46.644 -19.893  43.808  0.00  0.00     0.012 C 
ATOM     18  C   UNL d   1      46.324 -20.298  44.444  0.00  0.00     0.001 C 
ENDBRANCH  11  17
ENDBRANCH  10  11
ENDBRANCH   6  10
BRANCH   1  19
ATOM     19  C   UNL d   1      45.559 -15.105  44.324  0.00  0.00     0.086 A 
ATOM     20  C   UNL d   1      44.938 -14.739  43.917  0.00  0.00     0.022 A 
ATOM     21  C   UNL d   1      44.889 -13.916  43.892  0.00  0.00     0.031 A 
ATOM     22  C   UNL d   1      45.446 -13.453  44.265  0.00  0.00     0.140 A 
ATOM     23  C   UNL d   1      46.076 -13.822  44.678  0.00  0.00     0.031 A 
ATOM     24  F   UNL d   1      45.379 -12.615  44.228  0.00  0.00    -0.204 F 
ATOM     25  C   UNL d   1      46.131 -14.639  44.707  0.00  0.00     0.022 A 
ENDBRANCH   1  19
TORSDOF 7
ENDMDL
