MODEL 1
REMARK VINA RESULT:      -8.6      0.000      0.000
REMARK  3 active torsions:
REMARK  status: ('A' for Active; 'I' for Inactive)
REMARK    1  A    between atoms: C_9  and  N_1 
REMARK       I    between atoms: C_8  and  N_2 
REMARK    2  A    between atoms: C_3  and  C_9 
REMARK    3  A    between atoms: C_13  and  C_8 
ROOT
ATOM      1  N   UNL d   1     -45.970  12.935  22.759  0.00  0.00    -0.193 N 
ATOM      2  C   UNL d   1     -47.131  12.675  23.368  0.00  0.00     0.055 A 
ATOM      3  N   UNL d   1     -45.984  12.122  22.964  0.00  0.00    -0.163 NA
ATOM      4  C   UNL d   1     -46.676  13.262  23.011  0.00  0.00     0.089 A 
ATOM      5  C   UNL d   1     -45.352  13.318  22.376  0.00  0.00     0.303 C 
ATOM      6  C   UNL d   1     -46.706  11.972  23.339  0.00  0.00     0.104 A 
ATOM      7  O   UNL d   1     -45.423  14.132  22.211  0.00  0.00    -0.263 OA
ATOM      8  C   UNL d   1     -46.889  14.056  22.918  0.00  0.00     0.021 C 
ATOM      9  C   UNL d   1     -46.951  11.238  23.633  0.00  0.00     0.023 C 
ENDROOT
BRANCH   2  10
ATOM     10  C   UNL d   1     -47.889  12.780  23.698  0.00  0.00     0.089 C 
BRANCH  10  11
ATOM     11  N   UNL d   1     -48.551  12.847  23.207  0.00  0.00    -0.240 N 
ATOM     12  C   UNL d   1     -48.914  12.232  22.806  0.00  0.00     0.267 A 
ATOM     13  C   UNL d   1     -49.550  12.554  22.387  0.00  0.00     0.061 A 
ATOM     14  O   UNL d   1     -48.685  11.439  22.821  0.00  0.00    -0.267 OA
ATOM     15  C   UNL d   1     -50.106  12.203  21.892  0.00  0.00     0.005 A 
ATOM     16  C   UNL d   1     -49.578  13.358  22.528  0.00  0.00     0.061 A 
ATOM     17  C   UNL d   1     -50.691  12.661  21.539  0.00  0.00     0.000 A 
ATOM     18  C   UNL d   1     -50.721  13.473  21.680  0.00  0.00     0.000 A 
ATOM     19  C   UNL d   1     -50.165  13.825  22.175  0.00  0.00     0.005 A 
ATOM     20  C   UNL d   1     -48.958  13.551  23.039  0.00  0.00     0.267 A 
ATOM     21  O   UNL d   1     -48.780  14.306  23.328  0.00  0.00    -0.267 OA
ENDBRANCH  10  11
ENDBRANCH   2  10
BRANCH   5  22
ATOM     22  C   UNL d   1     -44.676  12.899  22.161  0.00  0.00     0.158 A 
ATOM     23  O   UNL d   1     -44.290  12.336  22.625  0.00  0.00    -0.300 OA
ATOM     24  C   UNL d   1     -43.643  12.058  22.195  0.00  0.00     0.123 A 
ATOM     25  C   UNL d   1     -43.628  12.442  21.475  0.00  0.00     0.029 A 
ATOM     26  C   UNL d   1     -44.271  12.967  21.451  0.00  0.00     0.032 A 
ENDBRANCH   5  22
TORSDOF 3
ENDMDL
MODEL 2
REMARK VINA RESULT:      -8.2      0.928      4.673
REMARK  3 active torsions:
REMARK  status: ('A' for Active; 'I' for Inactive)
REMARK    1  A    between atoms: C_9  and  N_1 
REMARK       I    between atoms: C_8  and  N_2 
REMARK    2  A    between atoms: C_3  and  C_9 
REMARK    3  A    between atoms: C_13  and  C_8 
ROOT
ATOM      1  N   UNL d   1     -48.538  12.628  22.749  0.00  0.00    -0.193 N 
ATOM      2  C   UNL d   1     -47.379  13.112  23.208  0.00  0.00     0.055 A 
ATOM      3  N   UNL d   1     -48.535  13.459  22.634  0.00  0.00    -0.163 NA
ATOM      4  C   UNL d   1     -47.826  12.429  23.100  0.00  0.00     0.089 A 
ATOM      5  C   UNL d   1     -49.150  12.121  22.542  0.00  0.00     0.303 C 
ATOM      6  C   UNL d   1     -47.815  13.748  22.921  0.00  0.00     0.104 A 
ATOM      7  O   UNL d   1     -49.067  11.306  22.693  0.00  0.00    -0.263 OA
ATOM      8  C   UNL d   1     -47.601  11.661  23.310  0.00  0.00     0.021 C 
ATOM      9  C   UNL d   1     -47.581  14.542  22.917  0.00  0.00     0.023 C 
ENDROOT
BRANCH   2  10
ATOM     10  C   UNL d   1     -46.619  13.149  23.548  0.00  0.00     0.089 C 
BRANCH  10  11
ATOM     11  N   UNL d   1     -45.949  13.007  23.085  0.00  0.00    -0.240 N 
ATOM     12  C   UNL d   1     -45.636  13.517  22.527  0.00  0.00     0.267 A 
ATOM     13  C   UNL d   1     -44.970  13.147  22.202  0.00  0.00     0.061 A 
ATOM     14  O   UNL d   1     -45.931  14.262  22.327  0.00  0.00    -0.267 OA
ATOM     15  C   UNL d   1     -44.441  13.395  21.623  0.00  0.00     0.005 A 
ATOM     16  C   UNL d   1     -44.875  12.417  22.558  0.00  0.00     0.061 A 
ATOM     17  C   UNL d   1     -43.815  12.909  21.401  0.00  0.00     0.000 A 
ATOM     18  C   UNL d   1     -43.718  12.171  21.758  0.00  0.00     0.000 A 
ATOM     19  C   UNL d   1     -44.248  11.923  22.338  0.00  0.00     0.005 A 
ATOM     20  C   UNL d   1     -45.482  12.321  23.110  0.00  0.00     0.267 A 
ATOM     21  O   UNL d   1     -45.599  11.661  23.597  0.00  0.00    -0.267 OA
ENDBRANCH  10  11
ENDBRANCH   2  10
BRANCH   5  22
ATOM     22  C   UNL d   1     -49.832  12.420  22.190  0.00  0.00     0.158 A 
ATOM     23  O   UNL d   1     -49.933  12.573  21.385  0.00  0.00    -0.300 OA
ATOM     24  C   UNL d   1     -50.696  12.866  21.279  0.00  0.00     0.123 A 
ATOM     25  C   UNL d   1     -51.064  12.895  22.007  0.00  0.00     0.029 A 
ATOM     26  C   UNL d   1     -50.529  12.617  22.576  0.00  0.00     0.032 A 
ENDBRANCH   5  22
TORSDOF 3
ENDMDL
MODEL 3
REMARK VINA RESULT:      -8.0      1.584      2.073
REMARK  3 active torsions:
REMARK  status: ('A' for Active; 'I' for Inactive)
REMARK    1  A    between atoms: C_9  and  N_1 
REMARK       I    between atoms: C_8  and  N_2 
REMARK    2  A    between atoms: C_3  and  C_9 
REMARK    3  A    between atoms: C_13  and  C_8 
ROOT
ATOM      1  N   UNL d   1     -46.633  13.099  22.583  0.00  0.00    -0.193 N 
ATOM      2  C   UNL d   1     -47.632  13.650  21.885  0.00  0.00     0.055 A 
ATOM      3  N   UNL d   1     -46.998  12.498  22.126  0.00  0.00    -0.163 NA
ATOM      4  C   UNL d   1     -47.029  13.797  22.427  0.00  0.00     0.089 A 
ATOM      5  C   UNL d   1     -45.995  12.990  23.090  0.00  0.00     0.303 C 
ATOM      6  C   UNL d   1     -47.614  12.849  21.699  0.00  0.00     0.104 A 
ATOM      7  O   UNL d   1     -45.695  13.646  23.506  0.00  0.00    -0.263 OA
ATOM      8  C   UNL d   1     -46.846  14.530  22.765  0.00  0.00     0.021 C 
ATOM      9  C   UNL d   1     -48.121  12.455  21.176  0.00  0.00     0.023 C 
ENDROOT
BRANCH   2  10
ATOM     10  C   UNL d   1     -48.164  14.215  21.582  0.00  0.00     0.089 C 
BRANCH  10  11
ATOM     11  N   UNL d   1     -48.780  14.501  22.054  0.00  0.00    -0.240 N 
ATOM     12  C   UNL d   1     -49.446  14.082  22.278  0.00  0.00     0.267 A 
ATOM     13  C   UNL d   1     -49.907  14.586  22.745  0.00  0.00     0.061 A 
ATOM     14  O   UNL d   1     -49.621  13.301  22.076  0.00  0.00    -0.267 OA
ATOM     15  C   UNL d   1     -50.630  14.466  23.120  0.00  0.00     0.005 A 
ATOM     16  C   UNL d   1     -49.529  15.308  22.807  0.00  0.00     0.061 A 
ATOM     17  C   UNL d   1     -50.973  15.073  23.558  0.00  0.00     0.000 A 
ATOM     18  C   UNL d   1     -50.592  15.803  23.621  0.00  0.00     0.000 A 
ATOM     19  C   UNL d   1     -49.868  15.922  23.246  0.00  0.00     0.005 A 
ATOM     20  C   UNL d   1     -48.823  15.264  22.378  0.00  0.00     0.267 A 
ATOM     21  O   UNL d   1     -48.267  15.871  22.291  0.00  0.00    -0.267 OA
ENDBRANCH  10  11
ENDBRANCH   2  10
BRANCH   5  22
ATOM     22  C   UNL d   1     -45.663  12.241  23.180  0.00  0.00     0.158 A 
ATOM     23  O   UNL d   1     -45.927  11.655  23.698  0.00  0.00    -0.300 OA
ATOM     24  C   UNL d   1     -45.436  10.999  23.605  0.00  0.00     0.123 A 
ATOM     25  C   UNL d   1     -44.875  11.176  23.040  0.00  0.00     0.029 A 
ATOM     26  C   UNL d   1     -45.014  11.949  22.772  0.00  0.00     0.032 A 
ENDBRANCH   5  22
TORSDOF 3
ENDMDL
MODEL 4
REMARK VINA RESULT:      -7.2      7.985      9.508
REMARK  3 active torsions:
REMARK  status: ('A' for Active; 'I' for Inactive)
REMARK    1  A    between atoms: C_9  and  N_1 
REMARK       I    between atoms: C_8  and  N_2 
REMARK    2  A    between atoms: C_3  and  C_9 
REMARK    3  A    between atoms: C_13  and  C_8 
ROOT
ATOM      1  N   UNL d   1     -39.471  14.629  18.402  0.00  0.00    -0.193 N 
ATOM      2  C   UNL d   1     -39.440  15.238  19.592  0.00  0.00     0.055 A 
ATOM      3  N   UNL d   1     -38.755  15.063  18.458  0.00  0.00    -0.163 NA
ATOM      4  C   UNL d   1     -39.880  14.744  19.100  0.00  0.00     0.089 A 
ATOM      5  C   UNL d   1     -39.704  14.177  17.756  0.00  0.00     0.303 C 
ATOM      6  C   UNL d   1     -38.747  15.434  19.197  0.00  0.00     0.104 A 
ATOM      7  O   UNL d   1     -40.435  13.779  17.787  0.00  0.00    -0.263 OA
ATOM      8  C   UNL d   1     -40.618  14.413  19.276  0.00  0.00     0.021 C 
ATOM      9  C   UNL d   1     -38.139  15.920  19.483  0.00  0.00     0.023 C 
ENDROOT
BRANCH   2  10
ATOM     10  C   UNL d   1     -39.663  15.490  20.355  0.00  0.00     0.089 C 
BRANCH  10  11
ATOM     11  N   UNL d   1     -39.385  15.090  21.023  0.00  0.00    -0.240 N 
ATOM     12  C   UNL d   1     -38.721  15.288  21.458  0.00  0.00     0.267 A 
ATOM     13  C   UNL d   1     -38.657  14.738  22.073  0.00  0.00     0.061 A 
ATOM     14  O   UNL d   1     -38.212  15.921  21.309  0.00  0.00    -0.267 OA
ATOM     15  C   UNL d   1     -38.104  14.663  22.677  0.00  0.00     0.005 A 
ATOM     16  C   UNL d   1     -39.275  14.206  22.015  0.00  0.00     0.061 A 
ATOM     17  C   UNL d   1     -38.172  14.052  23.225  0.00  0.00     0.000 A 
ATOM     18  C   UNL d   1     -38.796  13.515  23.169  0.00  0.00     0.000 A 
ATOM     19  C   UNL d   1     -39.350  13.590  22.563  0.00  0.00     0.005 A 
ATOM     20  C   UNL d   1     -39.735  14.418  21.362  0.00  0.00     0.267 A 
ATOM     21  O   UNL d   1     -40.418  14.030  21.099  0.00  0.00    -0.267 OA
ENDBRANCH  10  11
ENDBRANCH   2  10
BRANCH   5  22
ATOM     22  C   UNL d   1     -39.218  14.123  17.093  0.00  0.00     0.158 A 
ATOM     23  O   UNL d   1     -39.175  14.675  16.480  0.00  0.00    -0.300 OA
ATOM     24  C   UNL d   1     -38.620  14.401  15.935  0.00  0.00     0.123 A 
ATOM     25  C   UNL d   1     -38.323  13.690  16.205  0.00  0.00     0.029 A 
ATOM     26  C   UNL d   1     -38.694  13.515  16.927  0.00  0.00     0.032 A 
ENDBRANCH   5  22
TORSDOF 3
ENDMDL
MODEL 5
REMARK VINA RESULT:      -7.0      8.032      9.578
REMARK  3 active torsions:
REMARK  status: ('A' for Active; 'I' for Inactive)
REMARK    1  A    between atoms: C_9  and  N_1 
REMARK       I    between atoms: C_8  and  N_2 
REMARK    2  A    between atoms: C_3  and  C_9 
REMARK    3  A    between atoms: C_13  and  C_8 
ROOT
ATOM      1  N   UNL d   1     -39.194  14.436  17.165  0.00  0.00    -0.193 N 
ATOM      2  C   UNL d   1     -40.121  14.485  18.127  0.00  0.00     0.055 A 
ATOM      3  N   UNL d   1     -39.679  15.106  17.029  0.00  0.00    -0.163 NA
ATOM      4  C   UNL d   1     -39.474  14.066  17.838  0.00  0.00     0.089 A 
ATOM      5  C   UNL d   1     -38.557  14.207  16.698  0.00  0.00     0.303 C 
ATOM      6  C   UNL d   1     -40.249  15.127  17.629  0.00  0.00     0.104 A 
ATOM      7  O   UNL d   1     -38.128  13.525  16.908  0.00  0.00    -0.263 OA
ATOM      8  C   UNL d   1     -39.151  13.379  18.168  0.00  0.00     0.021 C 
ATOM      9  C   UNL d   1     -40.842  15.700  17.707  0.00  0.00     0.023 C 
ENDROOT
BRANCH   2  10
ATOM     10  C   UNL d   1     -40.565  14.290  18.804  0.00  0.00     0.089 C 
BRANCH  10  11
ATOM     11  N   UNL d   1     -40.339  14.576  19.546  0.00  0.00    -0.240 N 
ATOM     12  C   UNL d   1     -40.580  15.282  19.882  0.00  0.00     0.267 A 
ATOM     13  C   UNL d   1     -40.217  15.338  20.624  0.00  0.00     0.061 A 
ATOM     14  O   UNL d   1     -41.090  15.835  19.541  0.00  0.00    -0.267 OA
ATOM     15  C   UNL d   1     -40.255  15.922  21.203  0.00  0.00     0.005 A 
ATOM     16  C   UNL d   1     -39.757  14.673  20.743  0.00  0.00     0.061 A 
ATOM     17  C   UNL d   1     -39.830  15.836  21.903  0.00  0.00     0.000 A 
ATOM     18  C   UNL d   1     -39.366  15.165  22.024  0.00  0.00     0.000 A 
ATOM     19  C   UNL d   1     -39.328  14.581  21.444  0.00  0.00     0.005 A 
ATOM     20  C   UNL d   1     -39.827  14.190  20.075  0.00  0.00     0.267 A 
ATOM     21  O   UNL d   1     -39.455  13.460  19.959  0.00  0.00    -0.267 OA
ENDBRANCH  10  11
ENDBRANCH   2  10
BRANCH   5  22
ATOM     22  C   UNL d   1     -38.351  14.651  16.035  0.00  0.00     0.158 A 
ATOM     23  O   UNL d   1     -38.076  15.429  16.041  0.00  0.00    -0.300 OA
ATOM     24  C   UNL d   1     -37.940  15.652  15.259  0.00  0.00     0.123 A 
ATOM     25  C   UNL d   1     -38.127  15.023  14.775  0.00  0.00     0.029 A 
ATOM     26  C   UNL d   1     -38.384  14.397  15.255  0.00  0.00     0.032 A 
ENDBRANCH   5  22
TORSDOF 3
ENDMDL
MODEL 6
REMARK VINA RESULT:      -6.9      7.861      9.761
REMARK  3 active torsions:
REMARK  status: ('A' for Active; 'I' for Inactive)
REMARK    1  A    between atoms: C_9  and  N_1 
REMARK       I    between atoms: C_8  and  N_2 
REMARK    2  A    between atoms: C_3  and  C_9 
REMARK    3  A    between atoms: C_13  and  C_8 
ROOT
ATOM      1  N   UNL d   1     -39.806  14.530  20.082  0.00  0.00    -0.193 N 
ATOM      2  C   UNL d   1     -39.654  14.059  18.840  0.00  0.00     0.055 A 
ATOM      3  N   UNL d   1     -39.045  14.181  20.023  0.00  0.00    -0.163 NA
ATOM      4  C   UNL d   1     -40.167  14.448  19.353  0.00  0.00     0.089 A 
ATOM      5  C   UNL d   1     -40.116  14.884  20.755  0.00  0.00     0.303 C 
ATOM      6  C   UNL d   1     -38.962  13.893  19.251  0.00  0.00     0.104 A 
ATOM      7  O   UNL d   1     -40.883  15.206  20.724  0.00  0.00    -0.263 OA
ATOM      8  C   UNL d   1     -40.928  14.718  19.170  0.00  0.00     0.021 C 
ATOM      9  C   UNL d   1     -38.293  13.506  18.954  0.00  0.00     0.023 C 
ENDROOT
BRANCH   2  10
ATOM     10  C   UNL d   1     -39.812  13.868  18.044  0.00  0.00     0.089 C 
BRANCH  10  11
ATOM     11  N   UNL d   1     -39.425  14.270  17.435  0.00  0.00    -0.240 N 
ATOM     12  C   UNL d   1     -38.836  13.962  16.957  0.00  0.00     0.267 A 
ATOM     13  C   UNL d   1     -38.612  14.559  16.428  0.00  0.00     0.061 A 
ATOM     14  O   UNL d   1     -38.525  13.199  16.997  0.00  0.00    -0.267 OA
ATOM     15  C   UNL d   1     -38.051  14.567  15.826  0.00  0.00     0.005 A 
ATOM     16  C   UNL d   1     -39.059  15.226  16.580  0.00  0.00     0.061 A 
ATOM     17  C   UNL d   1     -37.940  15.247  15.376  0.00  0.00     0.000 A 
ATOM     18  C   UNL d   1     -38.390  15.921  15.528  0.00  0.00     0.000 A 
ATOM     19  C   UNL d   1     -38.952  15.913  16.130  0.00  0.00     0.005 A 
ATOM     20  C   UNL d   1     -39.570  15.055  17.207  0.00  0.00     0.267 A 
ATOM     21  O   UNL d   1     -40.121  15.573  17.543  0.00  0.00    -0.267 OA
ENDBRANCH  10  11
ENDBRANCH   2  10
BRANCH   5  22
ATOM     22  C   UNL d   1     -39.670  14.916  21.447  0.00  0.00     0.158 A 
ATOM     23  O   UNL d   1     -39.526  14.285  21.959  0.00  0.00    -0.300 OA
ATOM     24  C   UNL d   1     -39.057  14.564  22.576  0.00  0.00     0.123 A 
ATOM     25  C   UNL d   1     -38.911  15.357  22.450  0.00  0.00     0.029 A 
ATOM     26  C   UNL d   1     -39.292  15.580  21.748  0.00  0.00     0.032 A 
ENDBRANCH   5  22
TORSDOF 3
ENDMDL
