MODEL 1
REMARK VINA RESULT:      -6.6      0.000      0.000
REMARK  7 active torsions:
REMARK  status: ('A' for Active; 'I' for Inactive)
REMARK    1  A    between atoms: C_3  and  N_1 
REMARK       I    between atoms: C_2  and  N_4 
REMARK    2  A    between atoms: C_11  and  C_2 
REMARK    3  A    between atoms: N_4  and  C_12 
REMARK    4  A    between atoms: O_5  and  C_11 
REMARK    5  A    between atoms: C_6  and  O_5 
REMARK    6  A    between atoms: O_15  and  C_8 
REMARK    7  A    between atoms: C_20  and  O_15 
ROOT
ATOM      1  C   UNL d   1     -47.361  14.753  22.657  0.00  0.00     0.353 C 
ATOM      2  N   UNL d   1     -46.903  14.079  22.776  0.00  0.00    -0.363 NA
ATOM      3  O   UNL d   1     -47.062  15.383  22.215  0.00  0.00    -0.249 OA
ENDROOT
BRANCH   1   4
ATOM      4  C   UNL d   1     -48.118  14.804  22.975  0.00  0.00     0.199 C 
BRANCH   4   5
ATOM      5  O   UNL d   1     -48.782  14.807  22.480  0.00  0.00    -0.297 OA
BRANCH   5   6
ATOM      6  C   UNL d   1     -49.539  14.887  22.795  0.00  0.00     0.123 A 
ATOM      7  C   UNL d   1     -50.156  14.395  22.528  0.00  0.00     0.123 A 
ATOM      8  C   UNL d   1     -50.912  14.474  22.842  0.00  0.00     0.027 A 
ATOM      9  C   UNL d   1     -51.058  15.041  23.422  0.00  0.00     0.002 A 
ATOM     10  C   UNL d   1     -50.447  15.527  23.687  0.00  0.00     0.002 A 
ATOM     11  C   UNL d   1     -49.684  15.453  23.374  0.00  0.00     0.027 A 
BRANCH   7  12
ATOM     12  O   UNL d   1     -50.005  13.824  21.943  0.00  0.00    -0.303 OA
BRANCH  12  13
ATOM     13  C   UNL d   1     -50.623  13.359  21.655  0.00  0.00     0.123 C 
ATOM     14  C   UNL d   1     -50.471  12.600  21.373  0.00  0.00     0.029 C 
ENDBRANCH  12  13
ENDBRANCH   7  12
ENDBRANCH   5   6
ENDBRANCH   4   5
ENDBRANCH   1   4
BRANCH   2  15
ATOM     15  C   UNL d   1     -46.452  13.403  22.900  0.00  0.00     0.135 A 
ATOM     16  C   UNL d   1     -45.759  13.279  22.477  0.00  0.00     0.034 A 
ATOM     17  C   UNL d   1     -45.308  12.601  22.601  0.00  0.00     0.020 A 
ATOM     18  C   UNL d   1     -45.550  12.038  23.156  0.00  0.00     0.064 A 
ATOM     19  C   UNL d   1     -46.244  12.156  23.586  0.00  0.00     0.020 A 
ATOM     20  C   UNL d   1     -46.704  12.838  23.464  0.00  0.00     0.034 A 
BRANCH  18  21
ATOM     21  N   UNL d   1     -45.098  11.362  23.280  0.00  0.00    -0.304 N 
ATOM     22  C   UNL d   1     -45.457  10.677  23.572  0.00  0.00     0.080 A 
ATOM     23  C   UNL d   1     -45.013  10.004  23.696  0.00  0.00     0.019 A 
ATOM     24  C   UNL d   1     -44.201  10.005  23.530  0.00  0.00     0.003 A 
ATOM     25  C   UNL d   1     -43.843  10.689  23.239  0.00  0.00     0.019 A 
ATOM     26  C   UNL d   1     -44.288  11.376  23.110  0.00  0.00     0.080 A 
ENDBRANCH  18  21
ENDBRANCH   2  15
TORSDOF 7
ENDMDL
MODEL 2
REMARK VINA RESULT:      -5.7      4.224      5.487
REMARK  7 active torsions:
REMARK  status: ('A' for Active; 'I' for Inactive)
REMARK    1  A    between atoms: C_3  and  N_1 
REMARK       I    between atoms: C_2  and  N_4 
REMARK    2  A    between atoms: C_11  and  C_2 
REMARK    3  A    between atoms: N_4  and  C_12 
REMARK    4  A    between atoms: O_5  and  C_11 
REMARK    5  A    between atoms: C_6  and  O_5 
REMARK    6  A    between atoms: O_15  and  C_8 
REMARK    7  A    between atoms: C_20  and  O_15 
ROOT
ATOM      1  C   UNL d   1     -43.625  12.836  21.723  0.00  0.00     0.353 C 
ATOM      2  N   UNL d   1     -42.969  13.272  21.481  0.00  0.00    -0.363 NA
ATOM      3  O   UNL d   1     -43.563  12.020  21.826  0.00  0.00    -0.249 OA
ENDROOT
BRANCH   1   4
ATOM      4  C   UNL d   1     -44.344  13.210  21.865  0.00  0.00     0.199 C 
BRANCH   4   5
ATOM      5  O   UNL d   1     -44.913  12.854  22.351  0.00  0.00    -0.297 OA
BRANCH   5   6
ATOM      6  C   UNL d   1     -45.604  13.256  22.548  0.00  0.00     0.123 A 
ATOM      7  C   UNL d   1     -46.201  12.870  22.983  0.00  0.00     0.123 A 
ATOM      8  C   UNL d   1     -46.892  13.270  23.182  0.00  0.00     0.027 A 
ATOM      9  C   UNL d   1     -46.992  14.054  22.948  0.00  0.00     0.002 A 
ATOM     10  C   UNL d   1     -46.402  14.436  22.518  0.00  0.00     0.002 A 
ATOM     11  C   UNL d   1     -45.705  14.038  22.316  0.00  0.00     0.027 A 
BRANCH   7  12
ATOM     12  O   UNL d   1     -46.096  12.079  23.217  0.00  0.00    -0.303 OA
BRANCH  12  13
ATOM     13  C   UNL d   1     -46.697  11.689  23.626  0.00  0.00     0.123 C 
ATOM     14  C   UNL d   1     -46.682  10.869  23.698  0.00  0.00     0.029 C 
ENDBRANCH  12  13
ENDBRANCH   7  12
ENDBRANCH   5   6
ENDBRANCH   4   5
ENDBRANCH   1   4
BRANCH   2  15
ATOM     15  C   UNL d   1     -42.319  13.714  21.238  0.00  0.00     0.135 A 
ATOM     16  C   UNL d   1     -42.384  14.524  21.125  0.00  0.00     0.034 A 
ATOM     17  C   UNL d   1     -41.733  14.966  20.882  0.00  0.00     0.020 A 
ATOM     18  C   UNL d   1     -41.005  14.595  20.751  0.00  0.00     0.064 A 
ATOM     19  C   UNL d   1     -40.933  13.781  20.863  0.00  0.00     0.020 A 
ATOM     20  C   UNL d   1     -41.587  13.330  21.108  0.00  0.00     0.034 A 
BRANCH  18  21
ATOM     21  N   UNL d   1     -40.355  15.038  20.509  0.00  0.00    -0.304 N 
ATOM     22  C   UNL d   1     -40.191  15.118  19.703  0.00  0.00     0.080 A 
ATOM     23  C   UNL d   1     -39.547  15.556  19.459  0.00  0.00     0.019 A 
ATOM     24  C   UNL d   1     -39.056  15.921  20.018  0.00  0.00     0.003 A 
ATOM     25  C   UNL d   1     -39.220  15.840  20.822  0.00  0.00     0.019 A 
ATOM     26  C   UNL d   1     -39.873  15.397  21.077  0.00  0.00     0.080 A 
ENDBRANCH  18  21
ENDBRANCH   2  15
TORSDOF 7
ENDMDL
MODEL 3
REMARK VINA RESULT:      -5.5      3.847      6.697
REMARK  7 active torsions:
REMARK  status: ('A' for Active; 'I' for Inactive)
REMARK    1  A    between atoms: C_3  and  N_1 
REMARK       I    between atoms: C_2  and  N_4 
REMARK    2  A    between atoms: C_11  and  C_2 
REMARK    3  A    between atoms: N_4  and  C_12 
REMARK    4  A    between atoms: O_5  and  C_11 
REMARK    5  A    between atoms: C_6  and  O_5 
REMARK    6  A    between atoms: O_15  and  C_8 
REMARK    7  A    between atoms: C_20  and  O_15 
ROOT
ATOM      1  C   UNL d   1     -42.955  12.953  21.380  0.00  0.00     0.353 C 
ATOM      2  N   UNL d   1     -43.719  12.915  21.685  0.00  0.00    -0.363 NA
ATOM      3  O   UNL d   1     -42.549  12.259  21.194  0.00  0.00    -0.249 OA
ENDROOT
BRANCH   1   4
ATOM      4  C   UNL d   1     -42.591  13.681  21.258  0.00  0.00     0.199 C 
BRANCH   4   5
ATOM      5  O   UNL d   1     -41.765  13.734  21.211  0.00  0.00    -0.297 OA
BRANCH   5   6
ATOM      6  C   UNL d   1     -41.400  14.463  21.099  0.00  0.00     0.123 A 
ATOM      7  C   UNL d   1     -40.585  14.549  21.253  0.00  0.00     0.123 A 
ATOM      8  C   UNL d   1     -40.219  15.278  21.141  0.00  0.00     0.027 A 
ATOM      9  C   UNL d   1     -40.659  15.922  20.876  0.00  0.00     0.002 A 
ATOM     10  C   UNL d   1     -41.464  15.837  20.724  0.00  0.00     0.002 A 
ATOM     11  C   UNL d   1     -41.839  15.107  20.835  0.00  0.00     0.027 A 
BRANCH   7  12
ATOM     12  O   UNL d   1     -40.145  13.898  21.520  0.00  0.00    -0.303 OA
BRANCH  12  13
ATOM     13  C   UNL d   1     -39.362  14.002  21.760  0.00  0.00     0.123 C 
ATOM     14  C   UNL d   1     -38.938  13.369  22.072  0.00  0.00     0.029 C 
ENDBRANCH  12  13
ENDBRANCH   7  12
ENDBRANCH   5   6
ENDBRANCH   4   5
ENDBRANCH   1   4
BRANCH   2  15
ATOM     15  C   UNL d   1     -44.482  12.885  21.990  0.00  0.00     0.135 A 
ATOM     16  C   UNL d   1     -45.032  13.464  21.799  0.00  0.00     0.034 A 
ATOM     17  C   UNL d   1     -45.796  13.434  22.105  0.00  0.00     0.020 A 
ATOM     18  C   UNL d   1     -46.016  12.817  22.609  0.00  0.00     0.064 A 
ATOM     19  C   UNL d   1     -45.470  12.231  22.805  0.00  0.00     0.020 A 
ATOM     20  C   UNL d   1     -44.697  12.256  22.499  0.00  0.00     0.034 A 
BRANCH  18  21
ATOM     21  N   UNL d   1     -46.780  12.787  22.914  0.00  0.00    -0.304 N 
ATOM     22  C   UNL d   1     -47.053  12.092  23.268  0.00  0.00     0.080 A 
ATOM     23  C   UNL d   1     -47.809  12.059  23.572  0.00  0.00     0.019 A 
ATOM     24  C   UNL d   1     -48.306  12.721  23.526  0.00  0.00     0.003 A 
ATOM     25  C   UNL d   1     -48.033  13.414  23.172  0.00  0.00     0.019 A 
ATOM     26  C   UNL d   1     -47.265  13.455  22.862  0.00  0.00     0.080 A 
ENDBRANCH  18  21
ENDBRANCH   2  15
TORSDOF 7
ENDMDL
MODEL 4
REMARK VINA RESULT:      -5.2      1.318      2.090
REMARK  7 active torsions:
REMARK  status: ('A' for Active; 'I' for Inactive)
REMARK    1  A    between atoms: C_3  and  N_1 
REMARK       I    between atoms: C_2  and  N_4 
REMARK    2  A    between atoms: C_11  and  C_2 
REMARK    3  A    between atoms: N_4  and  C_12 
REMARK    4  A    between atoms: O_5  and  C_11 
REMARK    5  A    between atoms: C_6  and  O_5 
REMARK    6  A    between atoms: O_15  and  C_8 
REMARK    7  A    between atoms: C_20  and  O_15 
ROOT
ATOM      1  C   UNL d   1     -49.187  11.869  23.610  0.00  0.00     0.353 C 
ATOM      2  N   UNL d   1     -48.391  11.664  23.573  0.00  0.00    -0.363 NA
ATOM      3  O   UNL d   1     -49.767  11.284  23.559  0.00  0.00    -0.249 OA
ENDROOT
BRANCH   1   4
ATOM      4  C   UNL d   1     -49.412  12.656  23.698  0.00  0.00     0.199 C 
BRANCH   4   5
ATOM      5  O   UNL d   1     -49.503  13.142  23.033  0.00  0.00    -0.297 OA
BRANCH   5   6
ATOM      6  C   UNL d   1     -49.930  13.845  23.086  0.00  0.00     0.123 A 
ATOM      7  C   UNL d   1     -49.640  14.536  22.722  0.00  0.00     0.123 A 
ATOM      8  C   UNL d   1     -50.065  15.239  22.773  0.00  0.00     0.027 A 
ATOM      9  C   UNL d   1     -50.778  15.257  23.186  0.00  0.00     0.002 A 
ATOM     10  C   UNL d   1     -51.064  14.574  23.546  0.00  0.00     0.002 A 
ATOM     11  C   UNL d   1     -50.641  13.864  23.498  0.00  0.00     0.027 A 
BRANCH   7  12
ATOM     12  O   UNL d   1     -48.921  14.514  22.306  0.00  0.00    -0.303 OA
BRANCH  12  13
ATOM     13  C   UNL d   1     -48.433  15.179  22.295  0.00  0.00     0.123 C 
ATOM     14  C   UNL d   1     -47.750  15.183  21.834  0.00  0.00     0.029 C 
ENDBRANCH  12  13
ENDBRANCH   7  12
ENDBRANCH   5   6
ENDBRANCH   4   5
ENDBRANCH   1   4
BRANCH   2  15
ATOM     15  C   UNL d   1     -47.593  11.468  23.537  0.00  0.00     0.135 A 
ATOM     16  C   UNL d   1     -47.023  12.050  23.436  0.00  0.00     0.034 A 
ATOM     17  C   UNL d   1     -46.224  11.853  23.400  0.00  0.00     0.020 A 
ATOM     18  C   UNL d   1     -45.989  11.063  23.465  0.00  0.00     0.064 A 
ATOM     19  C   UNL d   1     -46.555  10.472  23.567  0.00  0.00     0.020 A 
ATOM     20  C   UNL d   1     -47.363  10.666  23.604  0.00  0.00     0.034 A 
BRANCH  18  21
ATOM     21  N   UNL d   1     -45.191  10.867  23.429  0.00  0.00    -0.304 N 
ATOM     22  C   UNL d   1     -44.937  10.128  23.698  0.00  0.00     0.080 A 
ATOM     23  C   UNL d   1     -44.147   9.930  23.664  0.00  0.00     0.019 A 
ATOM     24  C   UNL d   1     -43.596  10.468  23.359  0.00  0.00     0.003 A 
ATOM     25  C   UNL d   1     -43.849  11.206  23.090  0.00  0.00     0.019 A 
ATOM     26  C   UNL d   1     -44.651  11.414  23.122  0.00  0.00     0.080 A 
ENDBRANCH  18  21
ENDBRANCH   2  15
TORSDOF 7
ENDMDL
MODEL 5
REMARK VINA RESULT:      -4.9      7.949      9.970
REMARK  7 active torsions:
REMARK  status: ('A' for Active; 'I' for Inactive)
REMARK    1  A    between atoms: C_3  and  N_1 
REMARK       I    between atoms: C_2  and  N_4 
REMARK    2  A    between atoms: C_11  and  C_2 
REMARK    3  A    between atoms: N_4  and  C_12 
REMARK    4  A    between atoms: O_5  and  C_11 
REMARK    5  A    between atoms: C_6  and  O_5 
REMARK    6  A    between atoms: O_15  and  C_8 
REMARK    7  A    between atoms: C_20  and  O_15 
ROOT
ATOM      1  C   UNL d   1     -40.760  14.135  19.975  0.00  0.00     0.353 C 
ATOM      2  N   UNL d   1     -40.361  14.188  19.256  0.00  0.00    -0.363 NA
ATOM      3  O   UNL d   1     -41.405  13.626  20.053  0.00  0.00    -0.249 OA
ENDROOT
BRANCH   1   4
ATOM      4  C   UNL d   1     -40.519  14.586  20.620  0.00  0.00     0.199 C 
BRANCH   4   5
ATOM      5  O   UNL d   1     -40.180  14.223  21.282  0.00  0.00    -0.297 OA
BRANCH   5   6
ATOM      6  C   UNL d   1     -39.724  14.661  21.810  0.00  0.00     0.123 A 
ATOM      7  C   UNL d   1     -39.161  14.279  22.291  0.00  0.00     0.123 A 
ATOM      8  C   UNL d   1     -38.704  14.715  22.819  0.00  0.00     0.027 A 
ATOM      9  C   UNL d   1     -38.806  15.531  22.871  0.00  0.00     0.002 A 
ATOM     10  C   UNL d   1     -39.363  15.909  22.396  0.00  0.00     0.002 A 
ATOM     11  C   UNL d   1     -39.825  15.476  21.863  0.00  0.00     0.027 A 
BRANCH   7  12
ATOM     12  O   UNL d   1     -39.061  13.456  22.235  0.00  0.00    -0.303 OA
BRANCH  12  13
ATOM     13  C   UNL d   1     -38.419  13.094  22.606  0.00  0.00     0.123 C 
ATOM     14  C   UNL d   1     -37.940  12.572  22.186  0.00  0.00     0.029 C 
ENDBRANCH  12  13
ENDBRANCH   7  12
ENDBRANCH   5   6
ENDBRANCH   4   5
ENDBRANCH   1   4
BRANCH   2  15
ATOM     15  C   UNL d   1     -39.958  14.247  18.542  0.00  0.00     0.135 A 
ATOM     16  C   UNL d   1     -39.357  13.719  18.356  0.00  0.00     0.034 A 
ATOM     17  C   UNL d   1     -38.954  13.778  17.641  0.00  0.00     0.020 A 
ATOM     18  C   UNL d   1     -39.151  14.373  17.102  0.00  0.00     0.064 A 
ATOM     19  C   UNL d   1     -39.753  14.908  17.281  0.00  0.00     0.020 A 
ATOM     20  C   UNL d   1     -40.164  14.852  18.002  0.00  0.00     0.034 A 
BRANCH  18  21
ATOM     21  N   UNL d   1     -38.747  14.432  16.387  0.00  0.00    -0.304 N 
ATOM     22  C   UNL d   1     -38.489  15.170  16.122  0.00  0.00     0.080 A 
ATOM     23  C   UNL d   1     -38.089  15.233  15.414  0.00  0.00     0.019 A 
ATOM     24  C   UNL d   1     -37.940  14.557  14.959  0.00  0.00     0.003 A 
ATOM     25  C   UNL d   1     -38.198  13.819  15.224  0.00  0.00     0.019 A 
ATOM     26  C   UNL d   1     -38.605  13.749  15.943  0.00  0.00     0.080 A 
ENDBRANCH  18  21
ENDBRANCH   2  15
TORSDOF 7
ENDMDL
MODEL 6
REMARK VINA RESULT:      -4.7      1.337      1.840
REMARK  7 active torsions:
REMARK  status: ('A' for Active; 'I' for Inactive)
REMARK    1  A    between atoms: C_3  and  N_1 
REMARK       I    between atoms: C_2  and  N_4 
REMARK    2  A    between atoms: C_11  and  C_2 
REMARK    3  A    between atoms: N_4  and  C_12 
REMARK    4  A    between atoms: O_5  and  C_11 
REMARK    5  A    between atoms: C_6  and  O_5 
REMARK    6  A    between atoms: O_15  and  C_8 
REMARK    7  A    between atoms: C_20  and  O_15 
ROOT
ATOM      1  C   UNL d   1     -48.163  12.836  23.431  0.00  0.00     0.353 C 
ATOM      2  N   UNL d   1     -47.391  12.797  23.148  0.00  0.00    -0.363 NA
ATOM      3  O   UNL d   1     -48.541  12.153  23.697  0.00  0.00    -0.249 OA
ENDROOT
BRANCH   1   4
ATOM      4  C   UNL d   1     -48.564  13.555  23.452  0.00  0.00     0.199 C 
BRANCH   4   5
ATOM      5  O   UNL d   1     -49.317  13.625  23.114  0.00  0.00    -0.297 OA
BRANCH   5   6
ATOM      6  C   UNL d   1     -49.735  14.332  23.170  0.00  0.00     0.123 A 
ATOM      7  C   UNL d   1     -50.444  14.432  22.743  0.00  0.00     0.123 A 
ATOM      8  C   UNL d   1     -50.863  15.138  22.798  0.00  0.00     0.027 A 
ATOM      9  C   UNL d   1     -50.580  15.747  23.276  0.00  0.00     0.002 A 
ATOM     10  C   UNL d   1     -49.879  15.648  23.698  0.00  0.00     0.002 A 
ATOM     11  C   UNL d   1     -49.453  14.940  23.647  0.00  0.00     0.027 A 
BRANCH   7  12
ATOM     12  O   UNL d   1     -50.726  13.816  22.262  0.00  0.00    -0.303 OA
BRANCH  12  13
ATOM     13  C   UNL d   1     -51.061  13.989  21.528  0.00  0.00     0.123 C 
ATOM     14  C   UNL d   1     -51.062  13.422  20.930  0.00  0.00     0.029 C 
ENDBRANCH  12  13
ENDBRANCH   7  12
ENDBRANCH   5   6
ENDBRANCH   4   5
ENDBRANCH   1   4
BRANCH   2  15
ATOM     15  C   UNL d   1     -46.620  12.766  22.863  0.00  0.00     0.135 A 
ATOM     16  C   UNL d   1     -46.305  13.394  22.439  0.00  0.00     0.034 A 
ATOM     17  C   UNL d   1     -45.533  13.363  22.155  0.00  0.00     0.020 A 
ATOM     18  C   UNL d   1     -45.067  12.694  22.294  0.00  0.00     0.064 A 
ATOM     19  C   UNL d   1     -45.376  12.059  22.720  0.00  0.00     0.020 A 
ATOM     20  C   UNL d   1     -46.155  12.085  23.009  0.00  0.00     0.034 A 
BRANCH  18  21
ATOM     21  N   UNL d   1     -44.296  12.663  22.010  0.00  0.00    -0.304 N 
ATOM     22  C   UNL d   1     -43.776  12.089  22.296  0.00  0.00     0.080 A 
ATOM     23  C   UNL d   1     -43.010  12.055  22.016  0.00  0.00     0.019 A 
ATOM     24  C   UNL d   1     -42.752  12.596  21.444  0.00  0.00     0.003 A 
ATOM     25  C   UNL d   1     -43.271  13.169  21.158  0.00  0.00     0.019 A 
ATOM     26  C   UNL d   1     -44.050  13.210  21.439  0.00  0.00     0.080 A 
ENDBRANCH  18  21
ENDBRANCH   2  15
TORSDOF 7
ENDMDL
MODEL 7
REMARK VINA RESULT:      -4.1      4.414      6.425
REMARK  7 active torsions:
REMARK  status: ('A' for Active; 'I' for Inactive)
REMARK    1  A    between atoms: C_3  and  N_1 
REMARK       I    between atoms: C_2  and  N_4 
REMARK    2  A    between atoms: C_11  and  C_2 
REMARK    3  A    between atoms: N_4  and  C_12 
REMARK    4  A    between atoms: O_5  and  C_11 
REMARK    5  A    between atoms: C_6  and  O_5 
REMARK    6  A    between atoms: O_15  and  C_8 
REMARK    7  A    between atoms: C_20  and  O_15 
ROOT
ATOM      1  C   UNL d   1     -43.225  12.746  21.468  0.00  0.00     0.353 C 
ATOM      2  N   UNL d   1     -42.546  13.200  21.361  0.00  0.00    -0.363 NA
ATOM      3  O   UNL d   1     -43.870  12.843  20.963  0.00  0.00    -0.249 OA
ENDROOT
BRANCH   1   4
ATOM      4  C   UNL d   1     -43.264  12.193  22.076  0.00  0.00     0.199 C 
BRANCH   4   5
ATOM      5  O   UNL d   1     -43.963  12.098  22.511  0.00  0.00    -0.297 OA
BRANCH   5   6
ATOM      6  C   UNL d   1     -44.117  11.392  22.906  0.00  0.00     0.123 A 
ATOM      7  C   UNL d   1     -44.860  11.267  23.262  0.00  0.00     0.123 A 
ATOM      8  C   UNL d   1     -45.015  10.562  23.657  0.00  0.00     0.027 A 
ATOM      9  C   UNL d   1     -44.434   9.979  23.698  0.00  0.00     0.002 A 
ATOM     10  C   UNL d   1     -43.700  10.102  23.345  0.00  0.00     0.002 A 
ATOM     11  C   UNL d   1     -43.537  10.810  22.947  0.00  0.00     0.027 A 
BRANCH   7  12
ATOM     12  O   UNL d   1     -45.443  11.857  23.219  0.00  0.00    -0.303 OA
BRANCH  12  13
ATOM     13  C   UNL d   1     -46.208  11.697  23.482  0.00  0.00     0.123 C 
ATOM     14  C   UNL d   1     -46.816  12.233  23.334  0.00  0.00     0.029 C 
ENDBRANCH  12  13
ENDBRANCH   7  12
ENDBRANCH   5   6
ENDBRANCH   4   5
ENDBRANCH   1   4
BRANCH   2  15
ATOM     15  C   UNL d   1     -41.865  13.651  21.262  0.00  0.00     0.135 A 
ATOM     16  C   UNL d   1     -41.904  14.399  20.926  0.00  0.00     0.034 A 
ATOM     17  C   UNL d   1     -41.222  14.850  20.827  0.00  0.00     0.020 A 
ATOM     18  C   UNL d   1     -40.489  14.550  21.065  0.00  0.00     0.064 A 
ATOM     19  C   UNL d   1     -40.442  13.799  21.403  0.00  0.00     0.020 A 
ATOM     20  C   UNL d   1     -41.127  13.340  21.506  0.00  0.00     0.034 A 
BRANCH  18  21
ATOM     21  N   UNL d   1     -39.808  15.001  20.965  0.00  0.00    -0.304 N 
ATOM     22  C   UNL d   1     -39.465  15.376  21.617  0.00  0.00     0.080 A 
ATOM     23  C   UNL d   1     -38.790  15.823  21.522  0.00  0.00     0.019 A 
ATOM     24  C   UNL d   1     -38.445  15.903  20.773  0.00  0.00     0.003 A 
ATOM     25  C   UNL d   1     -38.787  15.528  20.122  0.00  0.00     0.019 A 
ATOM     26  C   UNL d   1     -39.474  15.072  20.211  0.00  0.00     0.080 A 
ENDBRANCH  18  21
ENDBRANCH   2  15
TORSDOF 7
ENDMDL
