MODEL 1
REMARK VINA RESULT:      -8.4      0.000      0.000
REMARK  3 active torsions:
REMARK  status: ('A' for Active; 'I' for Inactive)
REMARK    1  A    between atoms: C_9  and  S_1 
REMARK       I    between atoms: C_4  and  N_8 
REMARK    2  A    between atoms: C_5  and  C_4 
REMARK    3  A    between atoms: N_8  and  C_18 
ROOT
ATOM      1  C   UNL d   1     -48.795  11.389  23.372  0.00  0.00     0.302 C 
ATOM      2  N   UNL d   1     -49.592  11.564  23.461  0.00  0.00    -0.206 NA
ATOM      3  O   UNL d   1     -48.501  10.667  23.633  0.00  0.00    -0.263 OA
ENDROOT
BRANCH   1   4
ATOM      4  C   UNL d   1     -48.287  11.931  23.023  0.00  0.00     0.161 A 
ATOM      5  O   UNL d   1     -48.250  11.983  22.192  0.00  0.00    -0.268 OA
ATOM      6  C   UNL d   1     -47.735  12.531  21.835  0.00  0.00     0.300 A 
ATOM      7  O   UNL d   1     -47.699  12.582  21.016  0.00  0.00    -0.259 OA
ATOM      8  C   UNL d   1     -47.260  13.024  22.300  0.00  0.00     0.064 A 
ATOM      9  C   UNL d   1     -47.302  12.967  23.131  0.00  0.00     0.007 A 
ATOM     10  C   UNL d   1     -46.754  13.564  21.947  0.00  0.00     0.005 A 
ATOM     11  C   UNL d   1     -47.811  12.425  23.492  0.00  0.00     0.030 A 
ATOM     12  C   UNL d   1     -46.827  13.461  23.596  0.00  0.00     0.000 A 
ATOM     13  C   UNL d   1     -46.321  14.000  23.231  0.00  0.00     0.000 A 
ATOM     14  C   UNL d   1     -46.284  14.051  22.411  0.00  0.00     0.000 A 
ENDBRANCH   1   4
BRANCH   2  15
ATOM     15  C   UNL d   1     -49.885  12.291  23.198  0.00  0.00     0.085 A 
ATOM     16  C   UNL d   1     -49.867  12.939  23.698  0.00  0.00     0.020 A 
ATOM     17  C   UNL d   1     -50.158  13.663  23.440  0.00  0.00     0.015 A 
ATOM     18  C   UNL d   1     -50.466  13.733  22.674  0.00  0.00     0.107 A 
ATOM     19  C   UNL d   1     -50.480  13.075  22.178  0.00  0.00     0.015 A 
ATOM     20  C   UNL d   1     -50.193  12.358  22.433  0.00  0.00     0.020 A 
BRANCH  18  21
ATOM     21  S   UNL d   1     -50.757  14.458  22.416  0.00  0.00     0.302 S 
ATOM     22  O   UNL d   1     -50.607  14.323  21.628  0.00  0.00    -0.197 OA
ATOM     23  O   UNL d   1     -50.906  14.587  23.220  0.00  0.00    -0.197 OA
ATOM     24  N   UNL d   1     -51.064  15.198  22.243  0.00  0.00    -0.043 N 
ENDBRANCH  18  21
ENDBRANCH   2  15
TORSDOF 3
ENDMDL
MODEL 2
REMARK VINA RESULT:      -7.6      1.559      2.556
REMARK  3 active torsions:
REMARK  status: ('A' for Active; 'I' for Inactive)
REMARK    1  A    between atoms: C_9  and  S_1 
REMARK       I    between atoms: C_4  and  N_8 
REMARK    2  A    between atoms: C_5  and  C_4 
REMARK    3  A    between atoms: N_8  and  C_18 
ROOT
ATOM      1  C   UNL d   1     -46.752  14.065  22.472  0.00  0.00     0.302 C 
ATOM      2  N   UNL d   1     -47.032  14.830  22.577  0.00  0.00    -0.206 NA
ATOM      3  O   UNL d   1     -45.944  13.924  22.422  0.00  0.00    -0.263 OA
ENDROOT
BRANCH   1   4
ATOM      4  C   UNL d   1     -47.277  13.435  22.416  0.00  0.00     0.161 A 
ATOM      5  O   UNL d   1     -47.614  13.246  21.677  0.00  0.00    -0.268 OA
ATOM      6  C   UNL d   1     -48.145  12.608  21.618  0.00  0.00     0.300 A 
ATOM      7  O   UNL d   1     -48.477  12.422  20.889  0.00  0.00    -0.259 OA
ATOM      8  C   UNL d   1     -48.341  12.161  22.286  0.00  0.00     0.064 A 
ATOM      9  C   UNL d   1     -48.000  12.356  23.022  0.00  0.00     0.007 A 
ATOM     10  C   UNL d   1     -48.864  11.533  22.225  0.00  0.00     0.005 A 
ATOM     11  C   UNL d   1     -47.471  12.988  23.089  0.00  0.00     0.030 A 
ATOM     12  C   UNL d   1     -48.196  11.908  23.691  0.00  0.00     0.000 A 
ATOM     13  C   UNL d   1     -48.724  11.279  23.619  0.00  0.00     0.000 A 
ATOM     14  C   UNL d   1     -49.056  11.092  22.891  0.00  0.00     0.000 A 
ENDBRANCH   1   4
BRANCH   2  15
ATOM     15  C   UNL d   1     -47.845  14.967  22.626  0.00  0.00     0.085 A 
ATOM     16  C   UNL d   1     -48.263  15.167  21.951  0.00  0.00     0.020 A 
ATOM     17  C   UNL d   1     -49.072  15.304  21.997  0.00  0.00     0.015 A 
ATOM     18  C   UNL d   1     -49.460  15.241  22.726  0.00  0.00     0.107 A 
ATOM     19  C   UNL d   1     -49.030  15.040  23.401  0.00  0.00     0.015 A 
ATOM     20  C   UNL d   1     -48.229  14.903  23.355  0.00  0.00     0.020 A 
BRANCH  18  21
ATOM     21  S   UNL d   1     -50.270  15.378  22.772  0.00  0.00     0.302 S 
ATOM     22  O   UNL d   1     -50.468  14.854  22.183  0.00  0.00    -0.197 OA
ATOM     23  O   UNL d   1     -50.057  15.909  23.370  0.00  0.00    -0.197 OA
ATOM     24  N   UNL d   1     -51.057  15.573  22.882  0.00  0.00    -0.043 N 
ENDBRANCH  18  21
ENDBRANCH   2  15
TORSDOF 3
ENDMDL
MODEL 3
REMARK VINA RESULT:      -7.5      1.674      3.080
REMARK  3 active torsions:
REMARK  status: ('A' for Active; 'I' for Inactive)
REMARK    1  A    between atoms: C_9  and  S_1 
REMARK       I    between atoms: C_4  and  N_8 
REMARK    2  A    between atoms: C_5  and  C_4 
REMARK    3  A    between atoms: N_8  and  C_18 
ROOT
ATOM      1  C   UNL d   1     -47.749  11.170  23.275  0.00  0.00     0.302 C 
ATOM      2  N   UNL d   1     -47.060  11.607  23.362  0.00  0.00    -0.206 NA
ATOM      3  O   UNL d   1     -47.764  10.376  23.486  0.00  0.00    -0.263 OA
ENDROOT
BRANCH   1   4
ATOM      4  C   UNL d   1     -48.429  11.522  22.978  0.00  0.00     0.161 A 
ATOM      5  O   UNL d   1     -48.521  11.605  22.153  0.00  0.00    -0.268 OA
ATOM      6  C   UNL d   1     -49.209  11.961  21.849  0.00  0.00     0.300 A 
ATOM      7  O   UNL d   1     -49.300  12.043  21.036  0.00  0.00    -0.259 OA
ATOM      8  C   UNL d   1     -49.802  12.233  22.359  0.00  0.00     0.064 A 
ATOM      9  C   UNL d   1     -49.703  12.146  23.183  0.00  0.00     0.007 A 
ATOM     10  C   UNL d   1     -50.479  12.583  22.058  0.00  0.00     0.005 A 
ATOM     11  C   UNL d   1     -49.022  11.793  23.492  0.00  0.00     0.030 A 
ATOM     12  C   UNL d   1     -50.296  12.418  23.693  0.00  0.00     0.000 A 
ATOM     13  C   UNL d   1     -50.974  12.769  23.380  0.00  0.00     0.000 A 
ATOM     14  C   UNL d   1     -51.064  12.851  22.567  0.00  0.00     0.000 A 
ENDBRANCH   1   4
BRANCH   2  15
ATOM     15  C   UNL d   1     -47.049  12.405  23.150  0.00  0.00     0.085 A 
ATOM     16  C   UNL d   1     -47.268  12.973  23.698  0.00  0.00     0.020 A 
ATOM     17  C   UNL d   1     -47.258  13.768  23.490  0.00  0.00     0.015 A 
ATOM     18  C   UNL d   1     -47.027  13.991  22.726  0.00  0.00     0.107 A 
ATOM     19  C   UNL d   1     -46.809  13.412  22.181  0.00  0.00     0.015 A 
ATOM     20  C   UNL d   1     -46.818  12.625  22.387  0.00  0.00     0.020 A 
BRANCH  18  21
ATOM     21  S   UNL d   1     -47.018  14.787  22.518  0.00  0.00     0.302 S 
ATOM     22  O   UNL d   1     -47.824  14.851  22.432  0.00  0.00    -0.197 OA
ATOM     23  O   UNL d   1     -46.199  14.711  22.609  0.00  0.00    -0.197 OA
ATOM     24  N   UNL d   1     -46.921  15.575  22.320  0.00  0.00    -0.043 N 
ENDBRANCH  18  21
ENDBRANCH   2  15
TORSDOF 3
ENDMDL
MODEL 4
REMARK VINA RESULT:      -7.2      1.384      2.377
REMARK  3 active torsions:
REMARK  status: ('A' for Active; 'I' for Inactive)
REMARK    1  A    between atoms: C_9  and  S_1 
REMARK       I    between atoms: C_4  and  N_8 
REMARK    2  A    between atoms: C_5  and  C_4 
REMARK    3  A    between atoms: N_8  and  C_18 
ROOT
ATOM      1  C   UNL d   1     -48.829  15.147  22.060  0.00  0.00     0.302 C 
ATOM      2  N   UNL d   1     -49.587  14.976  22.324  0.00  0.00    -0.206 NA
ATOM      3  O   UNL d   1     -48.649  15.900  21.781  0.00  0.00    -0.263 OA
ENDROOT
BRANCH   1   4
ATOM      4  C   UNL d   1     -48.244  14.571  22.073  0.00  0.00     0.161 A 
ATOM      5  O   UNL d   1     -48.191  14.026  21.443  0.00  0.00    -0.268 OA
ATOM      6  C   UNL d   1     -47.600  13.441  21.454  0.00  0.00     0.300 A 
ATOM      7  O   UNL d   1     -47.548  12.904  20.833  0.00  0.00    -0.259 OA
ATOM      8  C   UNL d   1     -47.064  13.396  22.083  0.00  0.00     0.064 A 
ATOM      9  C   UNL d   1     -47.123  13.945  22.709  0.00  0.00     0.007 A 
ATOM     10  C   UNL d   1     -46.482  12.819  22.091  0.00  0.00     0.005 A 
ATOM     11  C   UNL d   1     -47.708  14.528  22.706  0.00  0.00     0.030 A 
ATOM     12  C   UNL d   1     -46.587  13.899  23.339  0.00  0.00     0.000 A 
ATOM     13  C   UNL d   1     -46.005  13.315  23.337  0.00  0.00     0.000 A 
ATOM     14  C   UNL d   1     -45.953  12.778  22.717  0.00  0.00     0.000 A 
ENDBRANCH   1   4
BRANCH   2  15
ATOM     15  C   UNL d   1     -49.764  14.219  22.603  0.00  0.00     0.085 A 
ATOM     16  C   UNL d   1     -49.634  14.038  23.391  0.00  0.00     0.020 A 
ATOM     17  C   UNL d   1     -49.809  13.286  23.673  0.00  0.00     0.015 A 
ATOM     18  C   UNL d   1     -50.115  12.715  23.158  0.00  0.00     0.107 A 
ATOM     19  C   UNL d   1     -50.242  12.905  22.366  0.00  0.00     0.015 A 
ATOM     20  C   UNL d   1     -50.069  13.650  22.087  0.00  0.00     0.020 A 
BRANCH  18  21
ATOM     21  S   UNL d   1     -50.290  11.962  23.440  0.00  0.00     0.302 S 
ATOM     22  O   UNL d   1     -49.527  11.785  23.659  0.00  0.00    -0.197 OA
ATOM     23  O   UNL d   1     -51.063  12.151  23.214  0.00  0.00    -0.197 OA
ATOM     24  N   UNL d   1     -50.547  11.229  23.698  0.00  0.00    -0.043 N 
ENDBRANCH  18  21
ENDBRANCH   2  15
TORSDOF 3
ENDMDL
MODEL 5
REMARK VINA RESULT:      -7.1      1.950      3.868
REMARK  3 active torsions:
REMARK  status: ('A' for Active; 'I' for Inactive)
REMARK    1  A    between atoms: C_9  and  S_1 
REMARK       I    between atoms: C_4  and  N_8 
REMARK    2  A    between atoms: C_5  and  C_4 
REMARK    3  A    between atoms: N_8  and  C_18 
ROOT
ATOM      1  C   UNL d   1     -47.317  15.024  22.251  0.00  0.00     0.302 C 
ATOM      2  N   UNL d   1     -46.685  14.545  22.461  0.00  0.00    -0.206 NA
ATOM      3  O   UNL d   1     -47.187  15.803  22.024  0.00  0.00    -0.263 OA
ENDROOT
BRANCH   1   4
ATOM      4  C   UNL d   1     -48.084  14.730  22.265  0.00  0.00     0.161 A 
ATOM      5  O   UNL d   1     -48.349  14.246  21.640  0.00  0.00    -0.268 OA
ATOM      6  C   UNL d   1     -49.126  13.947  21.652  0.00  0.00     0.300 A 
ATOM      7  O   UNL d   1     -49.387  13.470  21.035  0.00  0.00    -0.259 OA
ATOM      8  C   UNL d   1     -49.635  14.126  22.279  0.00  0.00     0.064 A 
ATOM      9  C   UNL d   1     -49.363  14.610  22.901  0.00  0.00     0.007 A 
ATOM     10  C   UNL d   1     -50.400  13.830  22.288  0.00  0.00     0.005 A 
ATOM     11  C   UNL d   1     -48.593  14.911  22.896  0.00  0.00     0.030 A 
ATOM     12  C   UNL d   1     -49.873  14.789  23.529  0.00  0.00     0.000 A 
ATOM     13  C   UNL d   1     -50.640  14.486  23.529  0.00  0.00     0.000 A 
ATOM     14  C   UNL d   1     -50.902  14.010  22.912  0.00  0.00     0.000 A 
ENDBRANCH   1   4
BRANCH   2  15
ATOM     15  C   UNL d   1     -46.819  13.762  22.688  0.00  0.00     0.085 A 
ATOM     16  C   UNL d   1     -46.783  13.167  22.127  0.00  0.00     0.020 A 
ATOM     17  C   UNL d   1     -46.917  12.387  22.350  0.00  0.00     0.015 A 
ATOM     18  C   UNL d   1     -47.087  12.208  23.140  0.00  0.00     0.107 A 
ATOM     19  C   UNL d   1     -47.120  12.814  23.698  0.00  0.00     0.015 A 
ATOM     20  C   UNL d   1     -46.988  13.586  23.478  0.00  0.00     0.020 A 
BRANCH  18  21
ATOM     21  S   UNL d   1     -47.220  11.427  23.363  0.00  0.00     0.302 S 
ATOM     22  O   UNL d   1     -48.030  11.496  23.396  0.00  0.00    -0.197 OA
ATOM     23  O   UNL d   1     -46.395  11.367  23.326  0.00  0.00    -0.197 OA
ATOM     24  N   UNL d   1     -47.265  10.639  23.582  0.00  0.00    -0.043 N 
ENDBRANCH  18  21
ENDBRANCH   2  15
TORSDOF 3
ENDMDL
MODEL 6
REMARK VINA RESULT:      -6.6      2.016      3.921
REMARK  3 active torsions:
REMARK  status: ('A' for Active; 'I' for Inactive)
REMARK    1  A    between atoms: C_9  and  S_1 
REMARK       I    between atoms: C_4  and  N_8 
REMARK    2  A    between atoms: C_5  and  C_4 
REMARK    3  A    between atoms: N_8  and  C_18 
ROOT
ATOM      1  C   UNL d   1     -48.083  14.879  22.347  0.00  0.00     0.302 C 
ATOM      2  N   UNL d   1     -47.292  14.767  22.537  0.00  0.00    -0.206 NA
ATOM      3  O   UNL d   1     -48.360  15.629  22.155  0.00  0.00    -0.263 OA
ENDROOT
BRANCH   1   4
ATOM      4  C   UNL d   1     -48.605  14.244  22.349  0.00  0.00     0.161 A 
ATOM      5  O   UNL d   1     -48.666  13.763  21.671  0.00  0.00    -0.268 OA
ATOM      6  C   UNL d   1     -49.194  13.119  21.669  0.00  0.00     0.300 A 
ATOM      7  O   UNL d   1     -49.255  12.644  21.001  0.00  0.00    -0.259 OA
ATOM      8  C   UNL d   1     -49.657  12.954  22.336  0.00  0.00     0.064 A 
ATOM      9  C   UNL d   1     -49.589  13.440  23.010  0.00  0.00     0.007 A 
ATOM     10  C   UNL d   1     -50.175  12.319  22.332  0.00  0.00     0.005 A 
ATOM     11  C   UNL d   1     -49.068  14.081  23.019  0.00  0.00     0.030 A 
ATOM     12  C   UNL d   1     -50.053  13.274  23.677  0.00  0.00     0.000 A 
ATOM     13  C   UNL d   1     -50.572  12.633  23.663  0.00  0.00     0.000 A 
ATOM     14  C   UNL d   1     -50.633  12.159  22.995  0.00  0.00     0.000 A 
ENDBRANCH   1   4
BRANCH   2  15
ATOM     15  C   UNL d   1     -47.018  14.012  22.730  0.00  0.00     0.085 A 
ATOM     16  C   UNL d   1     -47.076  13.746  23.502  0.00  0.00     0.020 A 
ATOM     17  C   UNL d   1     -46.804  12.996  23.698  0.00  0.00     0.015 A 
ATOM     18  C   UNL d   1     -46.474  12.512  23.112  0.00  0.00     0.107 A 
ATOM     19  C   UNL d   1     -46.420  12.788  22.337  0.00  0.00     0.015 A 
ATOM     20  C   UNL d   1     -46.689  13.532  22.143  0.00  0.00     0.020 A 
BRANCH  18  21
ATOM     21  S   UNL d   1     -46.202  11.761  23.309  0.00  0.00     0.302 S 
ATOM     22  O   UNL d   1     -46.938  11.415  23.318  0.00  0.00    -0.197 OA
ATOM     23  O   UNL d   1     -45.458  12.122  23.296  0.00  0.00    -0.197 OA
ATOM     24  N   UNL d   1     -45.850  11.047  23.503  0.00  0.00    -0.043 N 
ENDBRANCH  18  21
ENDBRANCH   2  15
TORSDOF 3
ENDMDL
MODEL 7
REMARK VINA RESULT:      -6.5      9.151     10.542
REMARK  3 active torsions:
REMARK  status: ('A' for Active; 'I' for Inactive)
REMARK    1  A    between atoms: C_9  and  S_1 
REMARK       I    between atoms: C_4  and  N_8 
REMARK    2  A    between atoms: C_5  and  C_4 
REMARK    3  A    between atoms: N_8  and  C_18 
ROOT
ATOM      1  C   UNL d   1     -40.809  15.627  18.342  0.00  0.00     0.302 C 
ATOM      2  N   UNL d   1     -41.047  15.726  19.121  0.00  0.00    -0.206 NA
ATOM      3  O   UNL d   1     -41.277  15.908  17.728  0.00  0.00    -0.263 OA
ENDROOT
BRANCH   1   4
ATOM      4  C   UNL d   1     -40.102  15.246  18.168  0.00  0.00     0.161 A 
ATOM      5  O   UNL d   1     -39.392  15.684  18.160  0.00  0.00    -0.268 OA
ATOM      6  C   UNL d   1     -38.674  15.301  17.985  0.00  0.00     0.300 A 
ATOM      7  O   UNL d   1     -37.974  15.732  17.976  0.00  0.00    -0.259 OA
ATOM      8  C   UNL d   1     -38.660  14.490  17.819  0.00  0.00     0.064 A 
ATOM      9  C   UNL d   1     -39.374  14.059  17.830  0.00  0.00     0.007 A 
ATOM     10  C   UNL d   1     -37.952  14.115  17.647  0.00  0.00     0.005 A 
ATOM     11  C   UNL d   1     -40.091  14.432  18.003  0.00  0.00     0.030 A 
ATOM     12  C   UNL d   1     -39.360  13.247  17.664  0.00  0.00     0.000 A 
ATOM     13  C   UNL d   1     -38.642  12.879  17.492  0.00  0.00     0.000 A 
ATOM     14  C   UNL d   1     -37.943  13.310  17.483  0.00  0.00     0.000 A 
ENDBRANCH   1   4
BRANCH   2  15
ATOM     15  C   UNL d   1     -40.574  15.442  19.735  0.00  0.00     0.085 A 
ATOM     16  C   UNL d   1     -40.695  14.684  20.022  0.00  0.00     0.020 A 
ATOM     17  C   UNL d   1     -40.226  14.398  20.633  0.00  0.00     0.015 A 
ATOM     18  C   UNL d   1     -39.632  14.877  20.955  0.00  0.00     0.107 A 
ATOM     19  C   UNL d   1     -39.517  15.638  20.659  0.00  0.00     0.015 A 
ATOM     20  C   UNL d   1     -39.981  15.922  20.054  0.00  0.00     0.020 A 
BRANCH  18  21
ATOM     21  S   UNL d   1     -39.163  14.591  21.567  0.00  0.00     0.302 S 
ATOM     22  O   UNL d   1     -39.286  13.805  21.394  0.00  0.00    -0.197 OA
ATOM     23  O   UNL d   1     -39.044  15.392  21.734  0.00  0.00    -0.197 OA
ATOM     24  N   UNL d   1     -38.680  14.389  22.197  0.00  0.00    -0.043 N 
ENDBRANCH  18  21
ENDBRANCH   2  15
TORSDOF 3
ENDMDL
MODEL 8
REMARK VINA RESULT:      -6.1      9.736     10.782
REMARK  3 active torsions:
REMARK  status: ('A' for Active; 'I' for Inactive)
REMARK    1  A    between atoms: C_9  and  S_1 
REMARK       I    between atoms: C_4  and  N_8 
REMARK    2  A    between atoms: C_5  and  C_4 
REMARK    3  A    between atoms: N_8  and  C_18 
ROOT
ATOM      1  C   UNL d   1     -38.280  13.122  18.327  0.00  0.00     0.302 C 
ATOM      2  N   UNL d   1     -37.941  13.166  19.073  0.00  0.00    -0.206 NA
ATOM      3  O   UNL d   1     -37.987  12.592  17.771  0.00  0.00    -0.263 OA
ENDROOT
BRANCH   1   4
ATOM      4  C   UNL d   1     -38.913  13.606  18.129  0.00  0.00     0.161 A 
ATOM      5  O   UNL d   1     -39.679  13.409  18.395  0.00  0.00    -0.268 OA
ATOM      6  C   UNL d   1     -40.323  13.897  18.196  0.00  0.00     0.300 A 
ATOM      7  O   UNL d   1     -41.077  13.704  18.459  0.00  0.00    -0.259 OA
ATOM      8  C   UNL d   1     -40.208  14.576  17.736  0.00  0.00     0.064 A 
ATOM      9  C   UNL d   1     -39.440  14.766  17.473  0.00  0.00     0.007 A 
ATOM     10  C   UNL d   1     -40.844  15.056  17.541  0.00  0.00     0.005 A 
ATOM     11  C   UNL d   1     -38.796  14.286  17.667  0.00  0.00     0.030 A 
ATOM     12  C   UNL d   1     -39.326  15.446  17.013  0.00  0.00     0.000 A 
ATOM     13  C   UNL d   1     -39.972  15.922  16.822  0.00  0.00     0.000 A 
ATOM     14  C   UNL d   1     -40.726  15.728  17.085  0.00  0.00     0.000 A 
ENDBRANCH   1   4
BRANCH   2  15
ATOM     15  C   UNL d   1     -38.238  13.700  19.629  0.00  0.00     0.085 A 
ATOM     16  C   UNL d   1     -38.799  13.449  20.170  0.00  0.00     0.020 A 
ATOM     17  C   UNL d   1     -39.098  13.978  20.725  0.00  0.00     0.015 A 
ATOM     18  C   UNL d   1     -38.828  14.761  20.733  0.00  0.00     0.107 A 
ATOM     19  C   UNL d   1     -38.263  15.004  20.184  0.00  0.00     0.015 A 
ATOM     20  C   UNL d   1     -37.968  14.481  19.635  0.00  0.00     0.020 A 
BRANCH  18  21
ATOM     21  S   UNL d   1     -39.127  15.290  21.288  0.00  0.00     0.302 S 
ATOM     22  O   UNL d   1     -38.675  15.920  21.042  0.00  0.00    -0.197 OA
ATOM     23  O   UNL d   1     -39.582  14.643  21.531  0.00  0.00    -0.197 OA
ATOM     24  N   UNL d   1     -39.474  15.750  21.869  0.00  0.00    -0.043 N 
ENDBRANCH  18  21
ENDBRANCH   2  15
TORSDOF 3
ENDMDL
MODEL 9
REMARK VINA RESULT:      -6.1      9.146     10.509
REMARK  3 active torsions:
REMARK  status: ('A' for Active; 'I' for Inactive)
REMARK    1  A    between atoms: C_9  and  S_1 
REMARK       I    between atoms: C_4  and  N_8 
REMARK    2  A    between atoms: C_5  and  C_4 
REMARK    3  A    between atoms: N_8  and  C_18 
ROOT
ATOM      1  C   UNL d   1     -38.386  13.242  19.352  0.00  0.00     0.302 C 
ATOM      2  N   UNL d   1     -38.494  13.164  18.542  0.00  0.00    -0.206 NA
ATOM      3  O   UNL d   1     -37.940  12.688  19.764  0.00  0.00    -0.263 OA
ENDROOT
BRANCH   1   4
ATOM      4  C   UNL d   1     -38.720  13.873  19.757  0.00  0.00     0.161 A 
ATOM      5  O   UNL d   1     -38.289  14.582  19.841  0.00  0.00    -0.268 OA
ATOM      6  C   UNL d   1     -38.626  15.223  20.251  0.00  0.00     0.300 A 
ATOM      7  O   UNL d   1     -38.201  15.922  20.333  0.00  0.00    -0.259 OA
ATOM      8  C   UNL d   1     -39.385  15.162  20.576  0.00  0.00     0.064 A 
ATOM      9  C   UNL d   1     -39.810  14.449  20.488  0.00  0.00     0.007 A 
ATOM     10  C   UNL d   1     -39.714  15.795  20.980  0.00  0.00     0.005 A 
ATOM     11  C   UNL d   1     -39.482  13.809  20.083  0.00  0.00     0.030 A 
ATOM     12  C   UNL d   1     -40.569  14.388  20.814  0.00  0.00     0.000 A 
ATOM     13  C   UNL d   1     -40.892  15.031  21.218  0.00  0.00     0.000 A 
ATOM     14  C   UNL d   1     -40.467  15.730  21.300  0.00  0.00     0.000 A 
ENDBRANCH   1   4
BRANCH   2  15
ATOM     15  C   UNL d   1     -38.943  13.723  18.132  0.00  0.00     0.085 A 
ATOM     16  C   UNL d   1     -38.577  14.386  17.821  0.00  0.00     0.020 A 
ATOM     17  C   UNL d   1     -39.020  14.944  17.411  0.00  0.00     0.015 A 
ATOM     18  C   UNL d   1     -39.835  14.832  17.316  0.00  0.00     0.107 A 
ATOM     19  C   UNL d   1     -40.195  14.162  17.633  0.00  0.00     0.015 A 
ATOM     20  C   UNL d   1     -39.757  13.609  18.038  0.00  0.00     0.020 A 
BRANCH  18  21
ATOM     21  S   UNL d   1     -40.279  15.391  16.907  0.00  0.00     0.302 S 
ATOM     22  O   UNL d   1     -39.643  15.731  16.530  0.00  0.00    -0.197 OA
ATOM     23  O   UNL d   1     -40.920  15.039  17.295  0.00  0.00    -0.197 OA
ATOM     24  N   UNL d   1     -40.791  15.913  16.538  0.00  0.00    -0.043 N 
ENDBRANCH  18  21
ENDBRANCH   2  15
TORSDOF 3
ENDMDL
