MODEL 1
REMARK VINA RESULT:      -7.6      0.000      0.000
REMARK  4 active torsions:
REMARK  status: ('A' for Active; 'I' for Inactive)
REMARK    1  A    between atoms: N_2  and  S_1 
REMARK    2  A    between atoms: C_4  and  C_3 
REMARK       I    between atoms: N_9  and  C_4 
REMARK    3  A    between atoms: C_15  and  N_9 
REMARK    4  A    between atoms: C_10  and  C_15 
ROOT
ATOM      1  N   UNL d   1      52.719  33.808  53.758  0.00  0.00    -0.233 N 
ATOM      2  C   UNL d   1      53.583  32.695  53.953  0.00  0.00     0.076 A 
ATOM      3  C   UNL d   1      52.994  33.067  53.524  0.00  0.00     0.096 A 
ATOM      4  C   UNL d   1      53.039  34.174  54.423  0.00  0.00     0.091 A 
ATOM      5  C   UNL d   1      53.905  33.060  54.621  0.00  0.00     0.008 A 
ATOM      6  C   UNL d   1      53.631  33.798  54.852  0.00  0.00     0.020 A 
ENDROOT
BRANCH   2   7
ATOM      7  C   UNL d   1      53.858  31.950  53.717  0.00  0.00     0.281 C 
ATOM      8  O   UNL d   1      54.570  31.882  53.311  0.00  0.00    -0.265 OA
ATOM      9  N   UNL d   1      53.417  31.274  53.888  0.00  0.00    -0.206 NA
BRANCH   9  10
ATOM     10  C   UNL d   1      53.693  30.541  53.652  0.00  0.00     0.102 C 
BRANCH  10  11
ATOM     11  C   UNL d   1      53.180  29.896  53.654  0.00  0.00     0.021 C 
ATOM     12  C   UNL d   1      53.325  29.254  54.154  0.00  0.00     0.002 C 
ENDBRANCH  10  11
ENDBRANCH   9  10
ENDBRANCH   2   7
BRANCH   1  13
ATOM     13  S   UNL d   1      52.126  34.183  53.326  0.00  0.00     0.252 S 
ATOM     14  O   UNL d   1      51.560  33.708  53.692  0.00  0.00    -0.204 OA
ATOM     15  O   UNL d   1      52.691  34.656  52.961  0.00  0.00    -0.204 OA
ATOM     16  C   UNL d   1      51.532  34.558  52.893  0.00  0.00     0.164 C 
ENDBRANCH   1  13
TORSDOF 4
ENDMDL
MODEL 2
REMARK VINA RESULT:      -7.5      1.506      2.081
REMARK  4 active torsions:
REMARK  status: ('A' for Active; 'I' for Inactive)
REMARK    1  A    between atoms: N_2  and  S_1 
REMARK    2  A    between atoms: C_4  and  C_3 
REMARK       I    between atoms: N_9  and  C_4 
REMARK    3  A    between atoms: C_15  and  N_9 
REMARK    4  A    between atoms: C_10  and  C_15 
ROOT
ATOM      1  N   UNL d   1      53.811  32.904  54.010  0.00  0.00    -0.233 N 
ATOM      2  C   UNL d   1      53.242  31.748  53.406  0.00  0.00     0.076 A 
ATOM      3  C   UNL d   1      53.788  32.085  53.915  0.00  0.00     0.096 A 
ATOM      4  C   UNL d   1      53.285  33.382  53.595  0.00  0.00     0.091 A 
ATOM      5  C   UNL d   1      52.713  32.225  52.987  0.00  0.00     0.008 A 
ATOM      6  C   UNL d   1      52.737  33.040  53.084  0.00  0.00     0.020 A 
ENDROOT
BRANCH   2   7
ATOM      7  C   UNL d   1      53.221  30.926  53.311  0.00  0.00     0.281 C 
ATOM      8  O   UNL d   1      53.141  30.599  52.560  0.00  0.00    -0.265 OA
ATOM      9  N   UNL d   1      53.280  30.431  53.968  0.00  0.00    -0.206 NA
BRANCH   9  10
ATOM     10  C   UNL d   1      53.258  29.621  53.868  0.00  0.00     0.102 C 
BRANCH  10  11
ATOM     11  C   UNL d   1      53.120  29.135  54.521  0.00  0.00     0.021 C 
ATOM     12  C   UNL d   1      53.574  28.454  54.632  0.00  0.00     0.002 C 
ENDBRANCH  10  11
ENDBRANCH   9  10
ENDBRANCH   2   7
BRANCH   1  13
ATOM     13  S   UNL d   1      54.360  33.243  54.523  0.00  0.00     0.252 S 
ATOM     14  O   UNL d   1      54.955  33.125  53.963  0.00  0.00    -0.204 OA
ATOM     15  O   UNL d   1      53.767  33.361  55.080  0.00  0.00    -0.204 OA
ATOM     16  C   UNL d   1      54.910  33.583  55.035  0.00  0.00     0.164 C 
ENDBRANCH   1  13
TORSDOF 4
ENDMDL
MODEL 3
REMARK VINA RESULT:      -7.5      1.499      3.341
REMARK  4 active torsions:
REMARK  status: ('A' for Active; 'I' for Inactive)
REMARK    1  A    between atoms: N_2  and  S_1 
REMARK    2  A    between atoms: C_4  and  C_3 
REMARK       I    between atoms: N_9  and  C_4 
REMARK    3  A    between atoms: C_15  and  N_9 
REMARK    4  A    between atoms: C_10  and  C_15 
ROOT
ATOM      1  N   UNL d   1      53.852  32.714  54.140  0.00  0.00    -0.233 N 
ATOM      2  C   UNL d   1      52.786  32.800  53.200  0.00  0.00     0.076 A 
ATOM      3  C   UNL d   1      53.302  33.165  53.723  0.00  0.00     0.096 A 
ATOM      4  C   UNL d   1      53.883  31.899  54.032  0.00  0.00     0.091 A 
ATOM      5  C   UNL d   1      52.816  31.982  53.090  0.00  0.00     0.008 A 
ATOM      6  C   UNL d   1      53.364  31.535  53.507  0.00  0.00     0.020 A 
ENDROOT
BRANCH   2   7
ATOM      7  C   UNL d   1      52.235  33.254  52.782  0.00  0.00     0.281 C 
ATOM      8  O   UNL d   1      52.368  33.439  51.992  0.00  0.00    -0.265 OA
ATOM      9  N   UNL d   1      51.550  33.522  53.156  0.00  0.00    -0.206 NA
BRANCH   9  10
ATOM     10  C   UNL d   1      51.009  33.970  52.738  0.00  0.00     0.102 C 
BRANCH  10  11
ATOM     11  C   UNL d   1      50.383  34.328  53.139  0.00  0.00     0.021 C 
ATOM     12  C   UNL d   1      49.736  34.621  52.716  0.00  0.00     0.002 C 
ENDBRANCH  10  11
ENDBRANCH   9  10
ENDBRANCH   2   7
BRANCH   1  13
ATOM     13  S   UNL d   1      54.370  33.081  54.666  0.00  0.00     0.252 S 
ATOM     14  O   UNL d   1      53.822  32.982  55.275  0.00  0.00    -0.204 OA
ATOM     15  O   UNL d   1      54.916  33.179  54.059  0.00  0.00    -0.204 OA
ATOM     16  C   UNL d   1      54.889  33.448  55.192  0.00  0.00     0.164 C 
ENDBRANCH   1  13
TORSDOF 4
ENDMDL
MODEL 4
REMARK VINA RESULT:      -7.2      1.397      3.518
REMARK  4 active torsions:
REMARK  status: ('A' for Active; 'I' for Inactive)
REMARK    1  A    between atoms: N_2  and  S_1 
REMARK    2  A    between atoms: C_4  and  C_3 
REMARK       I    between atoms: N_9  and  C_4 
REMARK    3  A    between atoms: C_15  and  N_9 
REMARK    4  A    between atoms: C_10  and  C_15 
ROOT
ATOM      1  N   UNL d   1      53.381  31.487  53.368  0.00  0.00    -0.233 N 
ATOM      2  C   UNL d   1      53.003  32.850  53.522  0.00  0.00     0.076 A 
ATOM      3  C   UNL d   1      52.795  32.062  53.445  0.00  0.00     0.096 A 
ATOM      4  C   UNL d   1      54.175  31.705  53.369  0.00  0.00     0.091 A 
ATOM      5  C   UNL d   1      53.799  33.072  53.523  0.00  0.00     0.008 A 
ATOM      6  C   UNL d   1      54.381  32.498  53.447  0.00  0.00     0.020 A 
ENDROOT
BRANCH   2   7
ATOM      7  C   UNL d   1      52.413  33.426  53.599  0.00  0.00     0.281 C 
ATOM      8  O   UNL d   1      52.349  33.859  54.295  0.00  0.00    -0.265 OA
ATOM      9  N   UNL d   1      51.889  33.567  52.978  0.00  0.00    -0.206 NA
BRANCH   9  10
ATOM     10  C   UNL d   1      51.309  34.137  53.060  0.00  0.00     0.102 C 
BRANCH  10  11
ATOM     11  C   UNL d   1      50.803  34.294  52.428  0.00  0.00     0.021 C 
ATOM     12  C   UNL d   1      50.024  34.529  52.570  0.00  0.00     0.002 C 
ENDBRANCH  10  11
ENDBRANCH   9  10
ENDBRANCH   2   7
BRANCH   1  13
ATOM     13  S   UNL d   1      53.172  30.693  53.290  0.00  0.00     0.252 S 
ATOM     14  O   UNL d   1      52.984  30.821  52.497  0.00  0.00    -0.204 OA
ATOM     15  O   UNL d   1      53.359  30.567  54.081  0.00  0.00    -0.204 OA
ATOM     16  C   UNL d   1      52.962  29.899  53.213  0.00  0.00     0.164 C 
ENDBRANCH   1  13
TORSDOF 4
ENDMDL
