MODEL 1
REMARK VINA RESULT:      -7.9      0.000      0.000
REMARK  0 active torsions:
REMARK  status: ('A' for Active; 'I' for Inactive)
ROOT
ATOM      1  C   UNL d   1      53.705  32.781  53.849  0.00  0.00     0.020 A 
ATOM      2  N   UNL d   1      52.980  32.057  52.848  0.00  0.00    -0.242 NA
ATOM      3  C   UNL d   1      53.079  33.312  53.910  0.00  0.00     0.003 A 
ATOM      4  C   UNL d   1      54.380  32.870  54.312  0.00  0.00     0.013 A 
ATOM      5  C   UNL d   1      53.133  33.941  54.446  0.00  0.00     0.001 A 
ATOM      6  C   UNL d   1      54.430  33.495  54.842  0.00  0.00     0.058 A 
ATOM      7  C   UNL d   1      53.804  34.032  54.909  0.00  0.00     0.011 A 
ATOM      8  C   UNL d   1      53.654  32.150  53.314  0.00  0.00     0.099 A 
ATOM      9 CL   UNL d   1      55.101  33.586  55.305  0.00  0.00    -0.082 Cl
ATOM     10  C   UNL d   1      52.355  32.594  52.915  0.00  0.00     0.099 A 
ATOM     11  C   UNL d   1      52.401  33.226  53.448  0.00  0.00     0.021 A 
ENDROOT
TORSDOF 0
ENDMDL
MODEL 2
REMARK VINA RESULT:      -7.8      1.655      2.610
REMARK  0 active torsions:
REMARK  status: ('A' for Active; 'I' for Inactive)
ROOT
ATOM      1  C   UNL d   1      53.463  33.492  54.227  0.00  0.00     0.020 A 
ATOM      2  N   UNL d   1      54.169  34.316  55.162  0.00  0.00    -0.242 NA
ATOM      3  C   UNL d   1      54.088  32.956  54.236  0.00  0.00     0.003 A 
ATOM      4  C   UNL d   1      52.798  33.356  53.761  0.00  0.00     0.013 A 
ATOM      5  C   UNL d   1      54.042  32.274  53.769  0.00  0.00     0.001 A 
ATOM      6  C   UNL d   1      52.756  32.679  53.300  0.00  0.00     0.058 A 
ATOM      7  C   UNL d   1      53.380  32.136  53.304  0.00  0.00     0.011 A 
ATOM      8  C   UNL d   1      53.505  34.176  54.694  0.00  0.00     0.099 A 
ATOM      9 CL   UNL d   1      52.094  32.541  52.834  0.00  0.00    -0.082 Cl
ATOM     10  C   UNL d   1      54.793  33.774  55.166  0.00  0.00     0.099 A 
ATOM     11  C   UNL d   1      54.755  33.088  54.702  0.00  0.00     0.021 A 
ENDROOT
TORSDOF 0
ENDMDL
MODEL 3
REMARK VINA RESULT:      -7.6      1.568      2.226
REMARK  0 active torsions:
REMARK  status: ('A' for Active; 'I' for Inactive)
ROOT
ATOM      1  C   UNL d   1      53.221  33.318  53.877  0.00  0.00     0.020 A 
ATOM      2  N   UNL d   1      54.061  32.378  54.557  0.00  0.00    -0.242 NA
ATOM      3  C   UNL d   1      53.506  33.917  54.365  0.00  0.00     0.003 A 
ATOM      4  C   UNL d   1      52.662  33.479  53.294  0.00  0.00     0.013 A 
ATOM      5  C   UNL d   1      53.223  34.689  54.265  0.00  0.00     0.001 A 
ATOM      6  C   UNL d   1      52.385  34.245  53.198  0.00  0.00     0.058 A 
ATOM      7  C   UNL d   1      52.666  34.852  53.685  0.00  0.00     0.011 A 
ATOM      8  C   UNL d   1      53.501  32.544  53.975  0.00  0.00     0.099 A 
ATOM      9 CL   UNL d   1      51.827  34.409  52.618  0.00  0.00    -0.082 Cl
ATOM     10  C   UNL d   1      54.343  32.984  55.044  0.00  0.00     0.099 A 
ATOM     11  C   UNL d   1      54.065  33.759  54.950  0.00  0.00     0.021 A 
ENDROOT
TORSDOF 0
ENDMDL
MODEL 4
REMARK VINA RESULT:      -7.5      1.399      2.025
REMARK  0 active torsions:
REMARK  status: ('A' for Active; 'I' for Inactive)
ROOT
ATOM      1  C   UNL d   1      53.122  33.532  53.734  0.00  0.00     0.020 A 
ATOM      2  N   UNL d   1      52.555  34.834  53.542  0.00  0.00    -0.242 NA
ATOM      3  C   UNL d   1      53.501  33.803  54.412  0.00  0.00     0.003 A 
ATOM      4  C   UNL d   1      53.210  32.752  53.485  0.00  0.00     0.013 A 
ATOM      5  C   UNL d   1      53.975  33.281  54.846  0.00  0.00     0.001 A 
ATOM      6  C   UNL d   1      53.680  32.238  53.917  0.00  0.00     0.058 A 
ATOM      7  C   UNL d   1      54.064  32.503  54.600  0.00  0.00     0.011 A 
ATOM      8  C   UNL d   1      52.647  34.052  53.297  0.00  0.00     0.099 A 
ATOM      9 CL   UNL d   1      53.770  31.460  53.671  0.00  0.00    -0.082 Cl
ATOM     10  C   UNL d   1      52.939  35.099  54.225  0.00  0.00     0.099 A 
ATOM     11  C   UNL d   1      53.415  34.583  54.665  0.00  0.00     0.021 A 
ENDROOT
TORSDOF 0
ENDMDL
MODEL 5
REMARK VINA RESULT:      -7.2      1.387      2.067
REMARK  0 active torsions:
REMARK  status: ('A' for Active; 'I' for Inactive)
ROOT
ATOM      1  C   UNL d   1      52.982  31.952  53.115  0.00  0.00     0.020 A 
ATOM      2  N   UNL d   1      52.981  30.528  52.959  0.00  0.00    -0.242 NA
ATOM      3  C   UNL d   1      53.618  31.890  53.634  0.00  0.00     0.003 A 
ATOM      4  C   UNL d   1      52.659  32.687  52.930  0.00  0.00     0.013 A 
ATOM      5  C   UNL d   1      53.934  32.577  53.970  0.00  0.00     0.001 A 
ATOM      6  C   UNL d   1      52.976  33.366  53.265  0.00  0.00     0.058 A 
ATOM      7  C   UNL d   1      53.615  33.311  53.787  0.00  0.00     0.011 A 
ATOM      8  C   UNL d   1      52.662  31.266  52.777  0.00  0.00     0.099 A 
ATOM      9 CL   UNL d   1      52.657  34.100  53.082  0.00  0.00    -0.082 Cl
ATOM     10  C   UNL d   1      53.621  30.473  53.481  0.00  0.00     0.099 A 
ATOM     11  C   UNL d   1      53.943  31.156  53.822  0.00  0.00     0.021 A 
ENDROOT
TORSDOF 0
ENDMDL
MODEL 6
REMARK VINA RESULT:      -6.2      1.110      1.368
REMARK  0 active torsions:
REMARK  status: ('A' for Active; 'I' for Inactive)
ROOT
ATOM      1  C   UNL d   1      52.879  33.570  53.230  0.00  0.00     0.020 A 
ATOM      2  N   UNL d   1      51.732  33.760  52.393  0.00  0.00    -0.242 NA
ATOM      3  C   UNL d   1      52.533  34.047  53.804  0.00  0.00     0.003 A 
ATOM      4  C   UNL d   1      53.621  33.234  53.353  0.00  0.00     0.013 A 
ATOM      5  C   UNL d   1      52.939  34.188  54.512  0.00  0.00     0.001 A 
ATOM      6  C   UNL d   1      54.020  33.376  54.055  0.00  0.00     0.058 A 
ATOM      7  C   UNL d   1      53.678  33.855  54.636  0.00  0.00     0.011 A 
ATOM      8  C   UNL d   1      52.475  33.426  52.521  0.00  0.00     0.099 A 
ATOM      9 CL   UNL d   1      54.760  33.042  54.180  0.00  0.00    -0.082 Cl
ATOM     10  C   UNL d   1      51.390  34.239  52.975  0.00  0.00     0.099 A 
ATOM     11  C   UNL d   1      51.790  34.385  53.685  0.00  0.00     0.021 A 
ENDROOT
TORSDOF 0
ENDMDL
