MODEL 1
REMARK VINA RESULT:      89.0      0.000      0.000
REMARK  5 active torsions:
REMARK  status: ('A' for Active; 'I' for Inactive)
REMARK    1  A    between atoms: N_12  and  C_4 
REMARK    2  A    between atoms: C_19  and  N_5 
REMARK    3  A    between atoms: C_11  and  S_18 
REMARK    4  A    between atoms: S_18  and  C_21 
REMARK    5  A    between atoms: C_21  and  C_19 
ROOT
ATOM      1  C   UNL d   1      59.590  49.672  52.332  0.00  0.00     0.191 A 
ATOM      2  C   UNL d   1      60.185  49.645  51.763  0.00  0.00     0.174 A 
ATOM      3  N   UNL d   1      58.867  49.687  51.940  0.00  0.00    -0.042 NA
ATOM      4  C   UNL d   1      59.011  49.670  51.137  0.00  0.00     0.722 A 
ATOM      5  N   UNL d   1      59.830  49.644  51.019  0.00  0.00    -0.132 N 
ATOM      6  N   UNL d   1      59.786  49.679  53.133  0.00  0.00    -0.239 N 
ATOM      7  C   UNL d   1      60.577  49.660  53.366  0.00  0.00     0.358 A 
ATOM      8  N   UNL d   1      61.173  49.633  52.797  0.00  0.00    -0.152 NA
ATOM      9  C   UNL d   1      60.977  49.626  51.994  0.00  0.00     0.303 A 
ATOM     10  O   UNL d   1      60.769  49.667  54.170  0.00  0.00    -0.244 OA
ATOM     11  O   UNL d   1      61.573  49.599  51.425  0.00  0.00    -0.263 OA
ATOM     12  C   UNL d   1      59.196  49.706  53.697  0.00  0.00     0.105 C 
ENDROOT
BRANCH   5  13
ATOM     13  C   UNL d   1      60.222  49.620  50.290  0.00  0.00     0.105 C 
BRANCH  13  14
ATOM     14  C   UNL d   1      60.896  49.146  50.195  0.00  0.00     0.058 C 
BRANCH  14  15
ATOM     15  S   UNL d   1      61.009  48.726  49.481  0.00  0.00    -0.041 SA
BRANCH  15  16
ATOM     16  C   UNL d   1      61.270  47.942  49.513  0.00  0.00     0.215 A 
ATOM     17  N   UNL d   1      62.030  47.743  49.286  0.00  0.00    -0.214 NA
ATOM     18  C   UNL d   1      62.123  46.942  49.377  0.00  0.00     0.107 A 
ATOM     19  C   UNL d   1      62.775  46.451  49.231  0.00  0.00     0.021 A 
ATOM     20  C   UNL d   1      61.433  46.626  49.659  0.00  0.00     0.120 A 
ATOM     21  C   UNL d   1      62.717  45.637  49.375  0.00  0.00     0.002 A 
ATOM     22  C   UNL d   1      62.026  45.325  49.657  0.00  0.00     0.002 A 
ATOM     23  C   UNL d   1      61.381  45.821  49.800  0.00  0.00     0.026 A 
ATOM     24  O   UNL d   1      60.891  47.254  49.746  0.00  0.00    -0.283 OA
ENDBRANCH  15  16
ENDBRANCH  14  15
ENDBRANCH  13  14
ENDBRANCH   5  13
BRANCH   4  25
ATOM     25  N   UNL d   1      58.465  49.676  50.518  0.00  0.00    -0.139 N 
ATOM     26  C   UNL d   1      58.732  49.701  49.731  0.00  0.00     0.098 A 
ATOM     27  C   UNL d   1      58.185  49.707  49.113  0.00  0.00     0.020 A 
ATOM     28  C   UNL d   1      57.382  49.688  49.271  0.00  0.00     0.003 A 
ATOM     29  C   UNL d   1      57.121  49.663  50.053  0.00  0.00     0.020 A 
ATOM     30  C   UNL d   1      57.661  49.656  50.678  0.00  0.00     0.098 A 
ENDBRANCH   4  25
TORSDOF 5
ENDMDL
