MODEL 1
REMARK VINA RESULT:      29.8      0.000      0.000
REMARK  1 active torsions:
REMARK  status: ('A' for Active; 'I' for Inactive)
REMARK    1  A    between atoms: C_15  and  C_6 
ROOT
ATOM      1  C   UNL d   1      14.188  12.979  -1.899  0.00  0.00     0.087 A 
ATOM      2  C   UNL d   1      14.708  14.179  -1.313  0.00  0.00     0.111 A 
ATOM      3  C   UNL d   1      14.069  13.381  -2.612  0.00  0.00     0.109 A 
ATOM      4  C   UNL d   1      13.991  12.181  -1.829  0.00  0.00     0.302 A 
ATOM      5  C   UNL d   1      14.585  14.577  -2.032  0.00  0.00     0.213 A 
ATOM      6  C   UNL d   1      14.507  13.368  -1.245  0.00  0.00     0.020 A 
ATOM      7  O   UNL d   1      14.267  14.175  -2.674  0.00  0.00    -0.287 OA
ATOM      8  C   UNL d   1      13.751  12.988  -3.258  0.00  0.00     0.050 A 
ATOM      9  O   UNL d   1      13.668  11.781  -2.488  0.00  0.00    -0.273 OA
ATOM     10  C   UNL d   1      15.027  14.571  -0.663  0.00  0.00     0.105 C 
ATOM     11  C   UNL d   1      13.549  12.181  -3.196  0.00  0.00     0.105 A 
ATOM     12  N   UNL d   1      15.348  14.976  -0.015  0.00  0.00    -0.191 NA
ATOM     13  O   UNL d   1      14.111  11.779  -1.117  0.00  0.00    -0.259 OA
ATOM     14  N   UNL d   1      14.787  15.378  -2.091  0.00  0.00    -0.120 N 
ATOM     15  C   UNL d   1      13.228  11.780  -3.847  0.00  0.00     0.027 C 
ENDROOT
BRANCH   6  16
ATOM     16  C   UNL d   1      14.625  12.972  -0.544  0.00  0.00     0.001 C 
ATOM     17  C   UNL d   1      15.373  12.685  -0.344  0.00  0.00     0.000 C 
ATOM     18  C   UNL d   1      13.998  12.854  -0.028  0.00  0.00     0.000 C 
ENDBRANCH   6  16
TORSDOF 1
ENDMDL
MODEL 2
REMARK VINA RESULT:      31.0      1.061      2.019
REMARK  1 active torsions:
REMARK  status: ('A' for Active; 'I' for Inactive)
REMARK    1  A    between atoms: C_15  and  C_6 
ROOT
ATOM      1  C   UNL d   1      14.007  12.999  -2.525  0.00  0.00     0.087 A 
ATOM      2  C   UNL d   1      14.642  12.999  -1.240  0.00  0.00     0.111 A 
ATOM      3  C   UNL d   1      13.873  12.186  -2.456  0.00  0.00     0.109 A 
ATOM      4  C   UNL d   1      13.759  13.410  -3.196  0.00  0.00     0.302 A 
ATOM      5  C   UNL d   1      14.504  12.182  -1.178  0.00  0.00     0.213 A 
ATOM      6  C   UNL d   1      14.390  13.414  -1.924  0.00  0.00     0.020 A 
ATOM      7  O   UNL d   1      14.121  11.784  -1.785  0.00  0.00    -0.287 OA
ATOM      8  C   UNL d   1      13.491  11.780  -3.058  0.00  0.00     0.050 A 
ATOM      9  O   UNL d   1      13.370  12.995  -3.809  0.00  0.00    -0.273 OA
ATOM     10  C   UNL d   1      15.025  13.409  -0.638  0.00  0.00     0.105 C 
ATOM     11  C   UNL d   1      13.237  12.187  -3.740  0.00  0.00     0.105 A 
ATOM     12  N   UNL d   1      15.411  13.813  -0.025  0.00  0.00    -0.191 NA
ATOM     13  O   UNL d   1      13.893  14.222  -3.265  0.00  0.00    -0.259 OA
ATOM     14  N   UNL d   1      14.756  11.780  -0.500  0.00  0.00    -0.120 N 
ATOM     15  C   UNL d   1      12.851  11.780  -4.350  0.00  0.00     0.027 C 
ENDROOT
BRANCH   6  16
ATOM     16  C   UNL d   1      14.522  14.215  -1.992  0.00  0.00     0.001 C 
ATOM     17  C   UNL d   1      14.661  14.556  -2.730  0.00  0.00     0.000 C 
ATOM     18  C   UNL d   1      14.517  14.690  -1.323  0.00  0.00     0.000 C 
ENDBRANCH   6  16
TORSDOF 1
ENDMDL
MODEL 3
REMARK VINA RESULT:      31.5      1.450      2.759
REMARK  1 active torsions:
REMARK  status: ('A' for Active; 'I' for Inactive)
REMARK    1  A    between atoms: C_15  and  C_6 
ROOT
ATOM      1  C   UNL d   1      14.659  13.570  -1.288  0.00  0.00     0.087 A 
ATOM      2  C   UNL d   1      14.025  13.053  -2.465  0.00  0.00     0.111 A 
ATOM      3  C   UNL d   1      14.656  14.327  -1.622  0.00  0.00     0.109 A 
ATOM      4  C   UNL d   1      14.975  13.444  -0.537  0.00  0.00     0.302 A 
ATOM      5  C   UNL d   1      14.025  13.816  -2.793  0.00  0.00     0.213 A 
ATOM      6  C   UNL d   1      14.347  12.928  -1.701  0.00  0.00     0.020 A 
ATOM      7  O   UNL d   1      14.340  14.445  -2.370  0.00  0.00    -0.287 OA
ATOM      8  C   UNL d   1      14.968  14.961  -1.206  0.00  0.00     0.050 A 
ATOM      9  O   UNL d   1      15.293  14.091  -0.114  0.00  0.00    -0.273 OA
ATOM     10  C   UNL d   1      13.712  12.415  -2.880  0.00  0.00     0.105 C 
ATOM     11  C   UNL d   1      15.290  14.843  -0.445  0.00  0.00     0.105 A 
ATOM     12  N   UNL d   1      13.394  11.779  -3.308  0.00  0.00    -0.191 NA
ATOM     13  O   UNL d   1      14.979  12.688  -0.204  0.00  0.00    -0.259 OA
ATOM     14  N   UNL d   1      13.705  13.931  -3.548  0.00  0.00    -0.120 N 
ATOM     15  C   UNL d   1      15.606  15.481  -0.022  0.00  0.00     0.027 C 
ENDROOT
BRANCH   6  16
ATOM     16  C   UNL d   1      14.350  12.183  -1.373  0.00  0.00     0.001 C 
ATOM     17  C   UNL d   1      15.063  11.811  -1.182  0.00  0.00     0.000 C 
ATOM     18  C   UNL d   1      13.642  11.794  -1.228  0.00  0.00     0.000 C 
ENDBRANCH   6  16
TORSDOF 1
ENDMDL
MODEL 4
REMARK VINA RESULT:      32.2      1.958      3.230
REMARK  1 active torsions:
REMARK  status: ('A' for Active; 'I' for Inactive)
REMARK    1  A    between atoms: C_15  and  C_6 
ROOT
ATOM      1  C   UNL d   1      13.887  13.001  -2.673  0.00  0.00     0.087 A 
ATOM      2  C   UNL d   1      13.270  13.001  -3.966  0.00  0.00     0.111 A 
ATOM      3  C   UNL d   1      13.758  12.186  -2.614  0.00  0.00     0.109 A 
ATOM      4  C   UNL d   1      14.258  13.412  -2.062  0.00  0.00     0.302 A 
ATOM      5  C   UNL d   1      13.143  12.182  -3.899  0.00  0.00     0.213 A 
ATOM      6  C   UNL d   1      13.647  13.416  -3.344  0.00  0.00     0.020 A 
ATOM      7  O   UNL d   1      13.388  11.783  -3.225  0.00  0.00    -0.287 OA
ATOM      8  C   UNL d   1      13.999  11.779  -1.943  0.00  0.00     0.050 A 
ATOM      9  O   UNL d   1      14.504  12.997  -1.379  0.00  0.00    -0.273 OA
ATOM     10  C   UNL d   1      13.029  13.411  -4.638  0.00  0.00     0.105 C 
ATOM     11  C   UNL d   1      14.375  12.187  -1.321  0.00  0.00     0.105 A 
ATOM     12  N   UNL d   1      12.782  13.815  -5.318  0.00  0.00    -0.191 NA
ATOM     13  O   UNL d   1      14.387  14.226  -2.121  0.00  0.00    -0.259 OA
ATOM     14  N   UNL d   1      12.769  11.779  -4.519  0.00  0.00    -0.120 N 
ATOM     15  C   UNL d   1      14.620  11.779  -0.642  0.00  0.00     0.027 C 
ENDROOT
BRANCH   6  16
ATOM     16  C   UNL d   1      13.774  14.218  -3.402  0.00  0.00     0.001 C 
ATOM     17  C   UNL d   1      14.542  14.521  -3.422  0.00  0.00     0.000 C 
ATOM     18  C   UNL d   1      13.137  14.734  -3.441  0.00  0.00     0.000 C 
ENDBRANCH   6  16
TORSDOF 1
ENDMDL
