MODEL 1
REMARK VINA RESULT:       5.5      0.000      0.000
REMARK  5 active torsions:
REMARK  status: ('A' for Active; 'I' for Inactive)
REMARK    1  A    between atoms: C_3  and  C_1 
REMARK    2  A    between atoms: S_2  and  C_3 
REMARK    3  A    between atoms: C_8  and  S_2 
REMARK    4  A    between atoms: C_9  and  C_3 
REMARK    5  A    between atoms: N_7  and  C_4 
ROOT
ATOM      1  C   UNL d   1     -41.911-122.357 -52.447  0.00  0.00     0.128 A 
ATOM      2  C   UNL d   1     -41.588-121.649 -52.707  0.00  0.00     0.166 A 
ATOM      3  N   UNL d   1     -41.983-122.996 -52.963  0.00  0.00    -0.240 NA
ATOM      4  N   UNL d   1     -41.334-121.572 -53.485  0.00  0.00    -0.225 NA
ATOM      5  C   UNL d   1     -41.729-122.914 -53.738  0.00  0.00     0.099 A 
ATOM      6  C   UNL d   1     -41.404-122.209 -54.006  0.00  0.00     0.101 A 
ATOM      7  C   UNL d   1     -41.154-122.139 -54.782  0.00  0.00     0.021 A 
ATOM      8  C   UNL d   1     -41.800-123.554 -54.259  0.00  0.00     0.021 A 
ATOM      9  C   UNL d   1     -41.223-122.769 -55.296  0.00  0.00     0.002 A 
ATOM     10  C   UNL d   1     -41.547-123.476 -55.033  0.00  0.00     0.002 A 
ENDROOT
BRANCH   1  11
ATOM     11  C   UNL d   1     -42.166-122.439 -51.671  0.00  0.00     0.129 C 
BRANCH  11  12
ATOM     12  S   UNL d   1     -41.879-123.142 -51.210  0.00  0.00     0.213 S 
ATOM     13  O   UNL d   1     -41.526-123.816 -51.668  0.00  0.00    -0.217 OA
ATOM     14  O   UNL d   1     -41.729-123.317 -52.008  0.00  0.00    -0.217 OA
BRANCH  12  15
ATOM     15  C   UNL d   1     -41.867-123.323 -50.397  0.00  0.00     0.088 A 
ATOM     16  C   UNL d   1     -42.585-123.423 -49.990  0.00  0.00     0.011 A 
ATOM     17  C   UNL d   1     -42.567-123.603 -49.183  0.00  0.00     0.001 A 
ATOM     18  C   UNL d   1     -43.270-123.703 -48.772  0.00  0.00     0.000 C 
ATOM     19  C   UNL d   1     -41.845-123.682 -48.784  0.00  0.00     0.000 A 
ATOM     20  C   UNL d   1     -41.131-123.580 -49.203  0.00  0.00     0.001 A 
ATOM     21  C   UNL d   1     -41.154-123.401 -50.008  0.00  0.00     0.011 A 
ENDBRANCH  12  15
ENDBRANCH  11  12
BRANCH  11  22
ATOM     22  C   UNL d   1     -42.691-121.934 -51.202  0.00  0.00     0.135 C 
ATOM     23  N   UNL d   1     -43.563-121.820 -51.290  0.00  0.00    -0.146 N 
ENDBRANCH  11  22
ENDBRANCH   1  11
BRANCH   2  24
ATOM     24  N   UNL d   1     -41.518-121.011 -52.182  0.00  0.00    -0.284 N 
ATOM     25  C   UNL d   1     -41.777-120.252 -52.418  0.00  0.00     0.108 A 
ATOM     26  C   UNL d   1     -41.703-119.615 -51.882  0.00  0.00     0.142 A 
ATOM     27  O   UNL d   1     -41.376-119.735 -51.124  0.00  0.00    -0.300 OA
ATOM     28  C   UNL d   1     -41.124-120.492 -50.904  0.00  0.00     0.142 A 
ATOM     29  C   UNL d   1     -41.192-121.131 -51.424  0.00  0.00     0.108 A 
ENDBRANCH   2  24
TORSDOF 5
ENDMDL
MODEL 2
REMARK VINA RESULT:       7.0      1.153      3.706
REMARK  5 active torsions:
REMARK  status: ('A' for Active; 'I' for Inactive)
REMARK    1  A    between atoms: C_3  and  C_1 
REMARK    2  A    between atoms: S_2  and  C_3 
REMARK    3  A    between atoms: C_8  and  S_2 
REMARK    4  A    between atoms: C_9  and  C_3 
REMARK    5  A    between atoms: N_7  and  C_4 
ROOT
ATOM      1  C   UNL d   1     -41.880-122.143 -51.817  0.00  0.00     0.128 A 
ATOM      2  C   UNL d   1     -41.884-121.992 -51.010  0.00  0.00     0.166 A 
ATOM      3  N   UNL d   1     -41.689-121.547 -52.351  0.00  0.00    -0.240 NA
ATOM      4  N   UNL d   1     -41.696-121.242 -50.731  0.00  0.00    -0.225 NA
ATOM      5  C   UNL d   1     -41.502-120.800 -52.068  0.00  0.00     0.099 A 
ATOM      6  C   UNL d   1     -41.503-120.640 -51.262  0.00  0.00     0.101 A 
ATOM      7  C   UNL d   1     -41.316-119.891 -50.991  0.00  0.00     0.021 A 
ATOM      8  C   UNL d   1     -41.310-120.198 -52.603  0.00  0.00     0.021 A 
ATOM      9  C   UNL d   1     -41.125-119.297 -51.517  0.00  0.00     0.002 A 
ATOM     10  C   UNL d   1     -41.123-119.452 -52.324  0.00  0.00     0.002 A 
ENDROOT
BRANCH   1  11
ATOM     11  C   UNL d   1     -42.067-122.890 -52.100  0.00  0.00     0.129 C 
BRANCH  11  12
ATOM     12  S   UNL d   1     -41.706-123.146 -52.871  0.00  0.00     0.213 S 
ATOM     13  O   UNL d   1     -41.124-123.817 -52.846  0.00  0.00    -0.217 OA
ATOM     14  O   UNL d   1     -41.378-123.641 -52.289  0.00  0.00    -0.217 OA
BRANCH  12  15
ATOM     15  C   UNL d   1     -41.794-122.885 -53.656  0.00  0.00     0.088 A 
ATOM     16  C   UNL d   1     -42.542-122.926 -54.018  0.00  0.00     0.011 A 
ATOM     17  C   UNL d   1     -42.624-122.665 -54.799  0.00  0.00     0.001 A 
ATOM     18  C   UNL d   1     -43.358-122.701 -55.165  0.00  0.00     0.000 C 
ATOM     19  C   UNL d   1     -41.973-122.367 -55.215  0.00  0.00     0.000 A 
ATOM     20  C   UNL d   1     -41.228-122.331 -54.842  0.00  0.00     0.001 A 
ATOM     21  C   UNL d   1     -41.151-122.592 -54.063  0.00  0.00     0.011 A 
ENDBRANCH  12  15
ENDBRANCH  11  12
BRANCH  11  22
ATOM     22  C   UNL d   1     -42.580-123.501 -51.763  0.00  0.00     0.135 C 
ATOM     23  N   UNL d   1     -43.411-123.704 -51.988  0.00  0.00    -0.146 N 
ENDBRANCH  11  22
ENDBRANCH   1  11
BRANCH   2  24
ATOM     24  N   UNL d   1     -42.078-122.597 -50.478  0.00  0.00    -0.284 N 
ATOM     25  C   UNL d   1     -42.881-122.766 -50.318  0.00  0.00     0.108 A 
ATOM     26  C   UNL d   1     -43.065-123.378 -49.780  0.00  0.00     0.142 A 
ATOM     27  O   UNL d   1     -42.459-123.813 -49.408  0.00  0.00    -0.300 OA
ATOM     28  C   UNL d   1     -41.668-123.635 -49.575  0.00  0.00     0.142 A 
ATOM     29  C   UNL d   1     -41.471-123.031 -50.106  0.00  0.00     0.108 A 
ENDBRANCH   2  24
TORSDOF 5
ENDMDL
