MODEL 1
REMARK VINA RESULT:      56.8      0.000      0.000
REMARK  3 active torsions:
REMARK  status: ('A' for Active; 'I' for Inactive)
REMARK    1  A    between atoms: O_9  and  C_1 
REMARK    2  A    between atoms: C_13  and  O_9 
REMARK    3  A    between atoms: C_16  and  C_11 
ROOT
ATOM      1  C   UNL d   1      60.283  49.559  50.804  0.00  0.00     0.161 A 
ATOM      2  C   UNL d   1      58.856  49.603  50.773  0.00  0.00     0.064 A 
ATOM      3  C   UNL d   1      59.566  49.569  50.373  0.00  0.00     0.222 A 
ATOM      4  C   UNL d   1      58.830  49.628  51.594  0.00  0.00     0.106 A 
ATOM      5  C   UNL d   1      60.257  49.585  51.641  0.00  0.00     0.126 A 
ATOM      6  O   UNL d   1      59.514  49.619  52.017  0.00  0.00    -0.305 OA
ATOM      7  C   UNL d   1      58.161  49.611  50.327  0.00  0.00     0.008 A 
ATOM      8  C   UNL d   1      58.109  49.662  51.970  0.00  0.00     0.067 A 
ATOM      9  C   UNL d   1      57.410  49.671  51.547  0.00  0.00     0.198 A 
ATOM     10  C   UNL d   1      57.437  49.646  50.710  0.00  0.00     0.039 A 
ATOM     11  O   UNL d   1      59.592  49.543  49.551  0.00  0.00    -0.284 OA
ATOM     12  O   UNL d   1      56.681  49.707  51.965  0.00  0.00    -0.286 OA
ATOM     13  C   UNL d   1      60.958  49.576  52.106  0.00  0.00     0.029 C 
ENDROOT
BRANCH   1  14
ATOM     14  O   UNL d   1      61.013  49.523  50.386  0.00  0.00    -0.302 OA
BRANCH  14  15
ATOM     15  C   UNL d   1      61.372  48.785  50.246  0.00  0.00     0.100 A 
ATOM     16  C   UNL d   1      61.764  48.648  49.535  0.00  0.00     0.025 A 
ATOM     17  C   UNL d   1      62.113  47.926  49.404  0.00  0.00     0.002 A 
ATOM     18  C   UNL d   1      62.077  47.317  49.988  0.00  0.00     0.000 A 
ATOM     19  C   UNL d   1      61.681  47.471  50.693  0.00  0.00     0.002 A 
ATOM     20  C   UNL d   1      61.327  48.208  50.823  0.00  0.00     0.025 A 
ENDBRANCH  14  15
ENDBRANCH   1  14
BRANCH  10  21
ATOM     21  C   UNL d   1      56.736  49.654  50.245  0.00  0.00     0.003 C 
ATOM     22  C   UNL d   1      56.782  49.665  49.408  0.00  0.00     0.000 C 
ENDBRANCH  10  21
TORSDOF 3
ENDMDL
