MODEL 1
REMARK VINA RESULT:      -9.3      0.000      0.000
REMARK  3 active torsions:
REMARK  status: ('A' for Active; 'I' for Inactive)
REMARK    1  A    between atoms: C_11  and  N_2 
REMARK    2  A    between atoms: C_9  and  N_3 
REMARK    3  A    between atoms: C_10  and  C_12 
ROOT
ATOM      1  C   UNL d   1     -48.475  13.881  23.091  0.00  0.00     0.339 A 
ATOM      2  N   UNL d   1     -49.239  13.971  22.798  0.00  0.00    -0.258 N 
ATOM      3  N   UNL d   1     -48.133  13.213  22.740  0.00  0.00    -0.258 N 
ATOM      4  S   UNL d   1     -49.591  12.363  21.394  0.00  0.00     0.214 S 
ATOM      5  C   UNL d   1     -49.380  13.350  22.254  0.00  0.00     0.097 A 
ATOM      6  C   UNL d   1     -48.690  12.887  22.225  0.00  0.00     0.097 A 
ATOM      7  C   UNL d   1     -49.930  13.023  21.741  0.00  0.00     0.118 A 
ATOM      8  C   UNL d   1     -48.831  12.274  21.686  0.00  0.00     0.118 A 
ATOM      9  O   UNL d   1     -48.106  14.374  23.646  0.00  0.00    -0.245 OA
ATOM     10  O   UNL d   1     -49.244  11.691  21.041  0.00  0.00    -0.217 OA
ATOM     11  O   UNL d   1     -50.350  12.405  21.066  0.00  0.00    -0.217 OA
ENDROOT
BRANCH   3  12
ATOM     12  C   UNL d   1     -47.370  12.922  22.878  0.00  0.00     0.068 A 
ATOM     13  C   UNL d   1     -46.728  13.230  22.465  0.00  0.00     0.021 A 
ATOM     14  C   UNL d   1     -45.970  12.945  22.598  0.00  0.00     0.073 A 
ATOM     15  C   UNL d   1     -45.853  12.344  23.152  0.00  0.00     0.004 A 
ATOM     16  C   UNL d   1     -46.492  12.029  23.572  0.00  0.00     0.001 A 
ATOM     17  C   UNL d   1     -47.252  12.321  23.432  0.00  0.00     0.018 A 
BRANCH  14  18
ATOM     18  C   UNL d   1     -45.326  13.255  22.183  0.00  0.00     0.419 C 
ATOM     19  F   UNL d   1     -44.738  13.533  21.801  0.00  0.00    -0.166 F 
ATOM     20  F   UNL d   1     -44.827  12.872  21.587  0.00  0.00    -0.166 F 
ATOM     21  F   UNL d   1     -44.972  14.039  22.225  0.00  0.00    -0.166 F 
ENDBRANCH  14  18
ENDBRANCH   3  12
BRANCH   2  22
ATOM     22  C   UNL d   1     -49.779  14.566  23.000  0.00  0.00     0.068 A 
ATOM     23  C   UNL d   1     -49.676  15.329  22.706  0.00  0.00     0.016 A 
ATOM     24  C   UNL d   1     -49.042  15.506  22.212  0.00  0.00     0.002 C 
ATOM     25  C   UNL d   1     -50.223  15.917  22.914  0.00  0.00     0.001 A 
ATOM     26  C   UNL d   1     -50.858  15.740  23.407  0.00  0.00     0.000 A 
ATOM     27  C   UNL d   1     -50.953  14.976  23.697  0.00  0.00     0.002 A 
ATOM     28  C   UNL d   1     -50.414  14.390  23.493  0.00  0.00     0.018 A 
ENDBRANCH   2  22
TORSDOF 3
ENDMDL
MODEL 2
REMARK VINA RESULT:      -8.0      1.459      2.252
REMARK  3 active torsions:
REMARK  status: ('A' for Active; 'I' for Inactive)
REMARK    1  A    between atoms: C_11  and  N_2 
REMARK    2  A    between atoms: C_9  and  N_3 
REMARK    3  A    between atoms: C_10  and  C_12 
ROOT
ATOM      1  C   UNL d   1     -48.030  12.595  22.707  0.00  0.00     0.339 A 
ATOM      2  N   UNL d   1     -48.663  13.118  22.645  0.00  0.00    -0.258 N 
ATOM      3  N   UNL d   1     -47.326  13.032  22.728  0.00  0.00    -0.258 N 
ATOM      4  S   UNL d   1     -47.849  15.122  22.597  0.00  0.00     0.214 S 
ATOM      5  C   UNL d   1     -48.353  13.896  22.626  0.00  0.00     0.097 A 
ATOM      6  C   UNL d   1     -47.526  13.832  22.678  0.00  0.00     0.097 A 
ATOM      7  C   UNL d   1     -48.545  14.692  22.577  0.00  0.00     0.118 A 
ATOM      8  C   UNL d   1     -47.220  14.602  22.659  0.00  0.00     0.118 A 
ATOM      9  O   UNL d   1     -48.084  11.769  22.744  0.00  0.00    -0.245 OA
ATOM     10  O   UNL d   1     -47.140  15.560  22.618  0.00  0.00    -0.217 OA
ATOM     11  O   UNL d   1     -48.447  15.693  22.534  0.00  0.00    -0.217 OA
ENDROOT
BRANCH   3  12
ATOM     12  C   UNL d   1     -46.560  12.725  22.787  0.00  0.00     0.068 A 
ATOM     13  C   UNL d   1     -45.966  12.994  22.285  0.00  0.00     0.021 A 
ATOM     14  C   UNL d   1     -45.204  12.693  22.340  0.00  0.00     0.073 A 
ATOM     15  C   UNL d   1     -45.035  12.115  22.905  0.00  0.00     0.004 A 
ATOM     16  C   UNL d   1     -45.625  11.839  23.414  0.00  0.00     0.001 A 
ATOM     17  C   UNL d   1     -46.390  12.148  23.352  0.00  0.00     0.018 A 
BRANCH  14  18
ATOM     18  C   UNL d   1     -44.608  12.963  21.835  0.00  0.00     0.419 C 
ATOM     19  F   UNL d   1     -44.064  13.214  21.377  0.00  0.00    -0.166 F 
ATOM     20  F   UNL d   1     -44.182  13.717  21.850  0.00  0.00    -0.166 F 
ATOM     21  F   UNL d   1     -44.246  12.574  21.157  0.00  0.00    -0.166 F 
ENDBRANCH  14  18
ENDBRANCH   3  12
BRANCH   2  22
ATOM     22  C   UNL d   1     -49.466  12.920  22.607  0.00  0.00     0.068 A 
ATOM     23  C   UNL d   1     -49.808  12.731  21.881  0.00  0.00     0.016 A 
ATOM     24  C   UNL d   1     -49.358  12.738  21.192  0.00  0.00     0.002 C 
ATOM     25  C   UNL d   1     -50.613  12.533  21.855  0.00  0.00     0.001 A 
ATOM     26  C   UNL d   1     -51.064  12.526  22.544  0.00  0.00     0.000 A 
ATOM     27  C   UNL d   1     -50.715  12.716  23.265  0.00  0.00     0.002 A 
ATOM     28  C   UNL d   1     -49.917  12.912  23.296  0.00  0.00     0.018 A 
ENDBRANCH   2  22
TORSDOF 3
ENDMDL
MODEL 3
REMARK VINA RESULT:      -6.6      8.785     10.016
REMARK  3 active torsions:
REMARK  status: ('A' for Active; 'I' for Inactive)
REMARK    1  A    between atoms: C_11  and  N_2 
REMARK    2  A    between atoms: C_9  and  N_3 
REMARK    3  A    between atoms: C_10  and  C_12 
ROOT
ATOM      1  C   UNL d   1     -39.086  14.275  19.108  0.00  0.00     0.339 A 
ATOM      2  N   UNL d   1     -39.647  14.806  19.392  0.00  0.00    -0.258 N 
ATOM      3  N   UNL d   1     -39.232  14.140  18.303  0.00  0.00    -0.258 N 
ATOM      4  S   UNL d   1     -40.949  15.322  17.743  0.00  0.00     0.214 S 
ATOM      5  C   UNL d   1     -40.153  15.009  18.757  0.00  0.00     0.097 A 
ATOM      6  C   UNL d   1     -39.889  14.592  18.088  0.00  0.00     0.097 A 
ATOM      7  C   UNL d   1     -40.805  15.456  18.538  0.00  0.00     0.118 A 
ATOM      8  C   UNL d   1     -40.391  14.793  17.461  0.00  0.00     0.118 A 
ATOM      9  O   UNL d   1     -38.476  13.930  19.550  0.00  0.00    -0.245 OA
ATOM     10  O   UNL d   1     -41.094  15.185  16.933  0.00  0.00    -0.217 OA
ATOM     11  O   UNL d   1     -41.536  15.859  17.974  0.00  0.00    -0.217 OA
ENDROOT
BRANCH   3  12
ATOM     12  C   UNL d   1     -38.800  13.642  17.803  0.00  0.00     0.068 A 
ATOM     13  C   UNL d   1     -38.752  12.835  17.960  0.00  0.00     0.021 A 
ATOM     14  C   UNL d   1     -38.325  12.338  17.467  0.00  0.00     0.073 A 
ATOM     15  C   UNL d   1     -37.939  12.651  16.808  0.00  0.00     0.004 A 
ATOM     16  C   UNL d   1     -37.982  13.460  16.641  0.00  0.00     0.001 A 
ATOM     17  C   UNL d   1     -38.414  13.955  17.143  0.00  0.00     0.018 A 
BRANCH  14  18
ATOM     18  C   UNL d   1     -38.277  11.528  17.627  0.00  0.00     0.419 C 
ATOM     19  F   UNL d   1     -38.237  10.788  17.768  0.00  0.00    -0.166 F 
ATOM     20  F   UNL d   1     -38.544  10.861  17.142  0.00  0.00    -0.166 F 
ATOM     21  F   UNL d   1     -37.953  11.122  18.314  0.00  0.00    -0.166 F 
ENDBRANCH  14  18
ENDBRANCH   3  12
BRANCH   2  22
ATOM     22  C   UNL d   1     -39.707  15.095  20.166  0.00  0.00     0.068 A 
ATOM     23  C   UNL d   1     -39.154  15.640  20.444  0.00  0.00     0.016 A 
ATOM     24  C   UNL d   1     -38.543  15.901  19.959  0.00  0.00     0.002 C 
ATOM     25  C   UNL d   1     -39.224  15.922  21.221  0.00  0.00     0.001 A 
ATOM     26  C   UNL d   1     -39.836  15.661  21.707  0.00  0.00     0.000 A 
ATOM     27  C   UNL d   1     -40.383  15.116  21.422  0.00  0.00     0.002 A 
ATOM     28  C   UNL d   1     -40.318  14.834  20.652  0.00  0.00     0.018 A 
ENDBRANCH   2  22
TORSDOF 3
ENDMDL
MODEL 4
REMARK VINA RESULT:      -6.6      8.611      9.942
REMARK  3 active torsions:
REMARK  status: ('A' for Active; 'I' for Inactive)
REMARK    1  A    between atoms: C_11  and  N_2 
REMARK    2  A    between atoms: C_9  and  N_3 
REMARK    3  A    between atoms: C_10  and  C_12 
ROOT
ATOM      1  C   UNL d   1     -38.665  14.397  20.560  0.00  0.00     0.339 A 
ATOM      2  N   UNL d   1     -39.121  14.574  21.222  0.00  0.00    -0.258 N 
ATOM      3  N   UNL d   1     -39.050  14.688  19.886  0.00  0.00    -0.258 N 
ATOM      4  S   UNL d   1     -40.881  15.629  20.537  0.00  0.00     0.214 S 
ATOM      5  C   UNL d   1     -39.803  14.983  20.961  0.00  0.00     0.097 A 
ATOM      6  C   UNL d   1     -39.751  15.048  20.134  0.00  0.00     0.097 A 
ATOM      7  C   UNL d   1     -40.500  15.342  21.203  0.00  0.00     0.118 A 
ATOM      8  C   UNL d   1     -40.427  15.453  19.879  0.00  0.00     0.118 A 
ATOM      9  O   UNL d   1     -37.941  13.995  20.562  0.00  0.00    -0.245 OA
ATOM     10  O   UNL d   1     -41.268  15.922  19.858  0.00  0.00    -0.217 OA
ATOM     11  O   UNL d   1     -41.379  15.834  21.167  0.00  0.00    -0.217 OA
ENDROOT
BRANCH   3  12
ATOM     12  C   UNL d   1     -38.785  14.630  19.105  0.00  0.00     0.068 A 
ATOM     13  C   UNL d   1     -38.941  13.953  18.663  0.00  0.00     0.021 A 
ATOM     14  C   UNL d   1     -38.679  13.890  17.888  0.00  0.00     0.073 A 
ATOM     15  C   UNL d   1     -38.256  14.513  17.549  0.00  0.00     0.004 A 
ATOM     16  C   UNL d   1     -38.095  15.197  17.985  0.00  0.00     0.001 A 
ATOM     17  C   UNL d   1     -38.362  15.252  18.766  0.00  0.00     0.018 A 
BRANCH  14  18
ATOM     18  C   UNL d   1     -38.837  13.209  17.445  0.00  0.00     0.419 C 
ATOM     19  F   UNL d   1     -38.978  12.586  17.045  0.00  0.00    -0.166 F 
ATOM     20  F   UNL d   1     -38.694  12.380  17.652  0.00  0.00    -0.166 F 
ATOM     21  F   UNL d   1     -39.183  13.134  16.660  0.00  0.00    -0.166 F 
ENDBRANCH  14  18
ENDBRANCH   3  12
BRANCH   2  22
ATOM     22  C   UNL d   1     -38.943  14.386  22.008  0.00  0.00     0.068 A 
ATOM     23  C   UNL d   1     -38.468  14.892  22.454  0.00  0.00     0.016 A 
ATOM     24  C   UNL d   1     -38.169  15.584  22.124  0.00  0.00     0.002 C 
ATOM     25  C   UNL d   1     -38.297  14.693  23.241  0.00  0.00     0.001 A 
ATOM     26  C   UNL d   1     -38.597  14.001  23.571  0.00  0.00     0.000 A 
ATOM     27  C   UNL d   1     -39.070  13.501  23.120  0.00  0.00     0.002 A 
ATOM     28  C   UNL d   1     -39.242  13.694  22.339  0.00  0.00     0.018 A 
ENDBRANCH   2  22
TORSDOF 3
ENDMDL
MODEL 5
REMARK VINA RESULT:      -6.5      2.388      4.215
REMARK  3 active torsions:
REMARK  status: ('A' for Active; 'I' for Inactive)
REMARK    1  A    between atoms: C_11  and  N_2 
REMARK    2  A    between atoms: C_9  and  N_3 
REMARK    3  A    between atoms: C_10  and  C_12 
ROOT
ATOM      1  C   UNL d   1     -47.526  13.639  22.491  0.00  0.00     0.339 A 
ATOM      2  N   UNL d   1     -46.994  13.014  22.551  0.00  0.00    -0.258 N 
ATOM      3  N   UNL d   1     -48.262  13.390  22.780  0.00  0.00    -0.258 N 
ATOM      4  S   UNL d   1     -48.057  11.335  23.408  0.00  0.00     0.214 S 
ATOM      5  C   UNL d   1     -47.401  12.361  22.882  0.00  0.00     0.097 A 
ATOM      6  C   UNL d   1     -48.184  12.604  23.020  0.00  0.00     0.097 A 
ATOM      7  C   UNL d   1     -47.329  11.580  23.123  0.00  0.00     0.118 A 
ATOM      8  C   UNL d   1     -48.586  11.957  23.348  0.00  0.00     0.118 A 
ATOM      9  O   UNL d   1     -47.358  14.393  22.193  0.00  0.00    -0.245 OA
ATOM     10  O   UNL d   1     -48.798  11.086  23.698  0.00  0.00    -0.217 OA
ATOM     11  O   UNL d   1     -47.565  10.673  23.491  0.00  0.00    -0.217 OA
ENDROOT
BRANCH   3  12
ATOM     12  C   UNL d   1     -48.953  13.845  22.821  0.00  0.00     0.068 A 
ATOM     13  C   UNL d   1     -49.442  13.917  22.163  0.00  0.00     0.021 A 
ATOM     14  C   UNL d   1     -50.127  14.366  22.199  0.00  0.00     0.073 A 
ATOM     15  C   UNL d   1     -50.327  14.749  22.902  0.00  0.00     0.004 A 
ATOM     16  C   UNL d   1     -49.841  14.683  23.568  0.00  0.00     0.001 A 
ATOM     17  C   UNL d   1     -49.152  14.228  23.524  0.00  0.00     0.018 A 
BRANCH  14  18
ATOM     18  C   UNL d   1     -50.618  14.437  21.536  0.00  0.00     0.419 C 
ATOM     19  F   UNL d   1     -51.064  14.497  20.932  0.00  0.00    -0.166 F 
ATOM     20  F   UNL d   1     -50.869  13.826  20.976  0.00  0.00    -0.166 F 
ATOM     21  F   UNL d   1     -51.014  15.134  21.220  0.00  0.00    -0.166 F 
ENDBRANCH  14  18
ENDBRANCH   3  12
BRANCH   2  22
ATOM     22  C   UNL d   1     -46.197  13.020  22.326  0.00  0.00     0.068 A 
ATOM     23  C   UNL d   1     -45.632  13.348  22.829  0.00  0.00     0.016 A 
ATOM     24  C   UNL d   1     -45.853  13.670  23.554  0.00  0.00     0.002 C 
ATOM     25  C   UNL d   1     -44.837  13.349  22.594  0.00  0.00     0.001 A 
ATOM     26  C   UNL d   1     -44.616  13.027  21.869  0.00  0.00     0.000 A 
ATOM     27  C   UNL d   1     -45.185  12.701  21.373  0.00  0.00     0.002 A 
ATOM     28  C   UNL d   1     -45.976  12.698  21.602  0.00  0.00     0.018 A 
ENDBRANCH   2  22
TORSDOF 3
ENDMDL
