MODEL 1
REMARK VINA RESULT:      60.5      0.000      0.000
REMARK  4 active torsions:
REMARK  status: ('A' for Active; 'I' for Inactive)
REMARK    1  A    between atoms: C_2  and  S_1 
REMARK    2  A    between atoms: N_3  and  S_1 
REMARK    3  A    between atoms: C_5  and  C_11 
REMARK    4  A    between atoms: O_20  and  C_8 
ROOT
ATOM      1  S   UNL d   1      61.145  47.649  50.743  0.00  0.00     0.273 S 
ATOM      2  O   UNL d   1      60.619  47.235  51.233  0.00  0.00    -0.200 OA
ATOM      3  O   UNL d   1      61.670  48.067  50.257  0.00  0.00    -0.200 OA
ENDROOT
BRANCH   1   4
ATOM      4  C   UNL d   1      60.978  48.334  51.164  0.00  0.00     0.128 A 
ATOM      5  C   UNL d   1      61.071  48.350  51.983  0.00  0.00     0.044 A 
ATOM      6  C   UNL d   1      60.903  49.038  52.406  0.00  0.00     0.141 A 
ATOM      7  F   UNL d   1      60.997  49.052  53.227  0.00  0.00    -0.204 F 
ATOM      8  C   UNL d   1      60.643  49.708  52.004  0.00  0.00     0.032 A 
ATOM      9  C   UNL d   1      60.549  49.694  51.183  0.00  0.00     0.027 A 
ATOM     10  C   UNL d   1      60.717  49.007  50.765  0.00  0.00     0.106 A 
BRANCH  10  11
ATOM     11  O   UNL d   1      60.625  48.985  49.940  0.00  0.00    -0.327 OA
ATOM     12  C   UNL d   1      60.306  49.640  49.545  0.00  0.00     0.181 C 
ENDBRANCH  10  11
ENDBRANCH   1   4
BRANCH   1  13
ATOM     13  N   UNL d   1      61.313  46.958  50.319  0.00  0.00    -0.229 N 
ATOM     14  C   UNL d   1      61.028  46.222  50.579  0.00  0.00     0.092 A 
ATOM     15  C   UNL d   1      61.197  45.530  50.154  0.00  0.00     0.025 A 
ATOM     16  C   UNL d   1      61.651  45.575  49.469  0.00  0.00     0.062 A 
ATOM     17  C   UNL d   1      61.939  46.298  49.200  0.00  0.00     0.025 A 
ATOM     18  C   UNL d   1      61.771  46.989  49.625  0.00  0.00     0.092 A 
BRANCH  16  19
ATOM     19  C   UNL d   1      61.819  44.884  49.044  0.00  0.00     0.297 C 
ATOM     20  O   UNL d   1      62.599  44.708  48.831  0.00  0.00    -0.264 OA
ATOM     21  N   UNL d   1      61.209  44.362  48.829  0.00  0.00    -0.102 N 
ENDBRANCH  16  19
ENDBRANCH   1  13
TORSDOF 4
ENDMDL
