MODEL 1
REMARK VINA RESULT:      83.7      0.000      0.000
REMARK  5 active torsions:
REMARK  status: ('A' for Active; 'I' for Inactive)
REMARK    1  A    between atoms: N_5  and  C_1 
REMARK    2  A    between atoms: N_8  and  C_2 
REMARK    3  A    between atoms: C_26  and  N_4 
REMARK    4  A    between atoms: C_22  and  N_9 
REMARK    5  A    between atoms: C_21  and  C_22 
ROOT
ATOM      1  C   UNL d   1     -55.196-100.052 -42.378  0.00  0.00     0.199 A 
ATOM      2  C   UNL d   1     -55.037-100.864 -42.476  0.00  0.00     0.092 A 
ATOM      3  C   UNL d   1     -55.276 -99.558 -43.032  0.00  0.00     0.288 A 
ATOM      4  N   UNL d   1     -55.197 -99.875 -43.796  0.00  0.00    -0.272 N 
ATOM      5  C   UNL d   1     -54.960-101.173 -43.244  0.00  0.00     0.034 A 
ATOM      6  C   UNL d   1     -55.040-100.678 -43.901  0.00  0.00     0.068 A 
ATOM      7  O   UNL d   1     -55.433 -98.756 -42.927  0.00  0.00    -0.265 OA
ATOM      8  C   UNL d   1     -54.803-101.976 -43.349  0.00  0.00     0.003 A 
ATOM      9  C   UNL d   1     -54.963-100.988 -44.661  0.00  0.00     0.018 A 
ATOM     10  C   UNL d   1     -54.726-102.284 -44.112  0.00  0.00     0.000 A 
ATOM     11  C   UNL d   1     -54.806-101.791 -44.766  0.00  0.00     0.002 A 
ENDROOT
BRANCH   2  12
ATOM     12  N   UNL d   1     -54.957-101.357 -41.831  0.00  0.00    -0.300 N 
ATOM     13  C   UNL d   1     -55.015-102.173 -41.933  0.00  0.00     0.100 A 
ATOM     14  C   UNL d   1     -54.935-102.681 -41.282  0.00  0.00     0.100 A 
ATOM     15  N   UNL d   1     -54.796-102.372 -40.530  0.00  0.00    -0.300 N 
ATOM     16  C   UNL d   1     -54.737-101.551 -40.426  0.00  0.00     0.100 A 
ATOM     17  C   UNL d   1     -54.818-101.051 -41.078  0.00  0.00     0.100 A 
BRANCH  15  18
ATOM     18  C   UNL d   1     -54.716-102.873 -39.882  0.00  0.00     0.080 C 
BRANCH  18  19
ATOM     19  C   UNL d   1     -55.126-102.713 -39.186  0.00  0.00     0.020 A 
ATOM     20  C   UNL d   1     -54.775-102.868 -38.458  0.00  0.00     0.028 A 
ATOM     21  C   UNL d   1     -55.185-102.708 -37.762  0.00  0.00     0.119 A 
ATOM     22  O   UNL d   1     -54.983-102.803 -36.970  0.00  0.00    -0.300 OA
ATOM     23  C   UNL d   1     -55.947-102.394 -37.795  0.00  0.00     0.119 A 
ATOM     24  C   UNL d   1     -55.620-102.547 -36.509  0.00  0.00     0.304 A 
ATOM     25  O   UNL d   1     -56.218-102.293 -37.019  0.00  0.00    -0.300 OA
ATOM     26  C   UNL d   1     -56.299-102.238 -38.528  0.00  0.00     0.026 A 
ATOM     27  C   UNL d   1     -55.888-102.398 -39.224  0.00  0.00     0.004 A 
ENDBRANCH  18  19
ENDBRANCH  15  18
ENDBRANCH   2  12
BRANCH   1  28
ATOM     28  N   UNL d   1     -55.272 -99.743 -41.612  0.00  0.00    -0.107 N 
ATOM     29  O   UNL d   1     -54.721 -99.199 -41.331  0.00  0.00    -0.531 OA
ATOM     30  O   UNL d   1     -55.901 -99.980 -41.128  0.00  0.00    -0.531 OA
ENDBRANCH   1  28
BRANCH   4  31
ATOM     31  C   UNL d   1     -55.277 -99.382 -44.451  0.00  0.00     0.083 C 
ATOM     32  C   UNL d   1     -55.952 -98.905 -44.535  0.00  0.00     0.021 C 
ENDBRANCH   4  31
TORSDOF 5
ENDMDL
