MODEL 1
REMARK VINA RESULT:      -8.1      0.000      0.000
REMARK  7 active torsions:
REMARK  status: ('A' for Active; 'I' for Inactive)
REMARK    1  A    between atoms: C_6  and  C_1 
REMARK    2  A    between atoms: C_8  and  N_3 
REMARK    3  A    between atoms: O_7  and  C_6 
REMARK    4  A    between atoms: C_9  and  O_7 
REMARK    5  A    between atoms: C_19  and  C_8 
REMARK    6  A    between atoms: O_16  and  C_10 
REMARK    7  A    between atoms: O_18  and  C_19 
ROOT
ATOM      1  C   UNL d   1      52.431  33.316  53.482  0.00  0.00     0.173 A 
ATOM      2  N   UNL d   1      52.595  33.892  54.060  0.00  0.00    -0.225 NA
ATOM      3  N   UNL d   1      53.086  32.795  53.440  0.00  0.00    -0.286 N 
ATOM      4  C   UNL d   1      53.657  33.054  53.998  0.00  0.00     0.083 A 
ATOM      5  C   UNL d   1      53.348  33.731  54.376  0.00  0.00     0.099 A 
ATOM      6  C   UNL d   1      54.403  32.775  54.213  0.00  0.00     0.019 A 
ATOM      7  C   UNL d   1      53.790  34.115  54.962  0.00  0.00     0.021 A 
ATOM      8  C   UNL d   1      54.842  33.160  54.796  0.00  0.00     0.002 A 
ATOM      9  C   UNL d   1      54.535  33.830  55.170  0.00  0.00     0.002 A 
ENDROOT
BRANCH   1  10
ATOM     10  C   UNL d   1      51.694  33.434  53.138  0.00  0.00     0.160 C 
BRANCH  10  11
ATOM     11  O   UNL d   1      51.455  34.196  52.917  0.00  0.00    -0.302 OA
BRANCH  11  12
ATOM     12  C   UNL d   1      50.745  34.308  52.513  0.00  0.00     0.100 A 
ATOM     13  C   UNL d   1      50.072  34.527  52.934  0.00  0.00     0.027 A 
ATOM     14  C   UNL d   1      49.361  34.640  52.531  0.00  0.00     0.026 A 
ATOM     15  C   UNL d   1      49.326  34.533  51.710  0.00  0.00     0.094 A 
ATOM     16  C   UNL d   1      50.001  34.314  51.297  0.00  0.00     0.026 A 
ATOM     17  C   UNL d   1      50.711  34.202  51.700  0.00  0.00     0.027 A 
BRANCH  15  18
ATOM     18  O   UNL d   1      48.617  34.645  51.309  0.00  0.00    -0.328 OA
ATOM     19  C   UNL d   1      48.144  35.302  51.473  0.00  0.00     0.181 C 
ENDBRANCH  15  18
ENDBRANCH  11  12
ENDBRANCH  10  11
ENDBRANCH   1  10
BRANCH   3  20
ATOM     20  C   UNL d   1      53.161  32.144  52.943  0.00  0.00     0.108 C 
BRANCH  20  21
ATOM     21  C   UNL d   1      52.833  31.415  53.157  0.00  0.00     0.135 C 
BRANCH  21  22
ATOM     22  O   UNL d   1      52.879  30.779  52.643  0.00  0.00    -0.325 OA
ATOM     23  C   UNL d   1      52.743  30.016  52.919  0.00  0.00     0.182 C 
ENDBRANCH  21  22
ENDBRANCH  20  21
ENDBRANCH   3  20
TORSDOF 7
ENDMDL
MODEL 2
REMARK VINA RESULT:      -6.9      1.219      4.303
REMARK  7 active torsions:
REMARK  status: ('A' for Active; 'I' for Inactive)
REMARK    1  A    between atoms: C_6  and  C_1 
REMARK    2  A    between atoms: C_8  and  N_3 
REMARK    3  A    between atoms: O_7  and  C_6 
REMARK    4  A    between atoms: C_9  and  O_7 
REMARK    5  A    between atoms: C_19  and  C_8 
REMARK    6  A    between atoms: O_16  and  C_10 
REMARK    7  A    between atoms: O_18  and  C_19 
ROOT
ATOM      1  C   UNL d   1      52.537  33.208  53.497  0.00  0.00     0.173 A 
ATOM      2  N   UNL d   1      53.042  33.303  54.151  0.00  0.00    -0.225 NA
ATOM      3  N   UNL d   1      52.290  33.969  53.245  0.00  0.00    -0.286 N 
ATOM      4  C   UNL d   1      52.648  34.536  53.750  0.00  0.00     0.083 A 
ATOM      5  C   UNL d   1      53.110  34.118  54.306  0.00  0.00     0.099 A 
ATOM      6  C   UNL d   1      52.620  35.359  53.784  0.00  0.00     0.019 A 
ATOM      7  C   UNL d   1      53.535  34.532  54.884  0.00  0.00     0.021 A 
ATOM      8  C   UNL d   1      53.044  35.770  54.360  0.00  0.00     0.002 A 
ATOM      9  C   UNL d   1      53.502  35.356  54.911  0.00  0.00     0.002 A 
ENDROOT
BRANCH   1  10
ATOM     10  C   UNL d   1      52.438  32.416  53.304  0.00  0.00     0.160 C 
BRANCH  10  11
ATOM     11  O   UNL d   1      53.096  31.945  53.129  0.00  0.00    -0.302 OA
BRANCH  11  12
ATOM     12  C   UNL d   1      53.097  31.143  53.322  0.00  0.00     0.100 A 
ATOM     13  C   UNL d   1      53.704  30.841  53.788  0.00  0.00     0.027 A 
ATOM     14  C   UNL d   1      53.706  30.039  53.982  0.00  0.00     0.026 A 
ATOM     15  C   UNL d   1      53.101  29.543  53.709  0.00  0.00     0.094 A 
ATOM     16  C   UNL d   1      52.499  29.851  53.244  0.00  0.00     0.026 A 
ATOM     17  C   UNL d   1      52.497  30.653  53.050  0.00  0.00     0.027 A 
BRANCH  15  18
ATOM     18  O   UNL d   1      53.103  28.744  53.902  0.00  0.00    -0.328 OA
ATOM     19  C   UNL d   1      53.366  28.495  54.644  0.00  0.00     0.181 C 
ENDBRANCH  15  18
ENDBRANCH  11  12
ENDBRANCH  10  11
ENDBRANCH   1  10
BRANCH   3  20
ATOM     20  C   UNL d   1      51.787  34.136  52.617  0.00  0.00     0.108 C 
BRANCH  20  21
ATOM     21  C   UNL d   1      50.966  34.104  52.719  0.00  0.00     0.135 C 
BRANCH  21  22
ATOM     22  O   UNL d   1      50.469  34.239  52.081  0.00  0.00    -0.325 OA
ATOM     23  C   UNL d   1      49.682  34.442  52.209  0.00  0.00     0.182 C 
ENDBRANCH  21  22
ENDBRANCH  20  21
ENDBRANCH   3  20
TORSDOF 7
ENDMDL
MODEL 3
REMARK VINA RESULT:      -6.8      1.070      2.423
REMARK  7 active torsions:
REMARK  status: ('A' for Active; 'I' for Inactive)
REMARK    1  A    between atoms: C_6  and  C_1 
REMARK    2  A    between atoms: C_8  and  N_3 
REMARK    3  A    between atoms: O_7  and  C_6 
REMARK    4  A    between atoms: C_9  and  O_7 
REMARK    5  A    between atoms: C_19  and  C_8 
REMARK    6  A    between atoms: O_16  and  C_10 
REMARK    7  A    between atoms: O_18  and  C_19 
ROOT
ATOM      1  C   UNL d   1      52.473  32.568  53.266  0.00  0.00     0.173 A 
ATOM      2  N   UNL d   1      52.047  31.869  53.113  0.00  0.00    -0.225 NA
ATOM      3  N   UNL d   1      53.274  32.360  53.405  0.00  0.00    -0.286 N 
ATOM      4  C   UNL d   1      53.339  31.525  53.336  0.00  0.00     0.083 A 
ATOM      5  C   UNL d   1      52.579  31.230  53.156  0.00  0.00     0.099 A 
ATOM      6  C   UNL d   1      53.970  31.001  53.411  0.00  0.00     0.019 A 
ATOM      7  C   UNL d   1      52.465  30.416  53.054  0.00  0.00     0.021 A 
ATOM      8  C   UNL d   1      53.855  30.190  53.308  0.00  0.00     0.002 A 
ATOM      9  C   UNL d   1      53.103  29.898  53.130  0.00  0.00     0.002 A 
ENDROOT
BRANCH   1  10
ATOM     10  C   UNL d   1      51.989  33.230  53.235  0.00  0.00     0.160 C 
BRANCH  10  11
ATOM     11  O   UNL d   1      51.666  33.476  52.512  0.00  0.00    -0.302 OA
BRANCH  11  12
ATOM     12  C   UNL d   1      50.977  33.928  52.497  0.00  0.00     0.100 A 
ATOM     13  C   UNL d   1      50.537  33.968  51.802  0.00  0.00     0.027 A 
ATOM     14  C   UNL d   1      49.847  34.420  51.786  0.00  0.00     0.026 A 
ATOM     15  C   UNL d   1      49.599  34.828  52.464  0.00  0.00     0.094 A 
ATOM     16  C   UNL d   1      50.043  34.783  53.153  0.00  0.00     0.026 A 
ATOM     17  C   UNL d   1      50.733  34.331  53.169  0.00  0.00     0.027 A 
BRANCH  15  18
ATOM     18  O   UNL d   1      48.911  35.278  52.447  0.00  0.00    -0.328 OA
ATOM     19  C   UNL d   1      48.592  35.580  53.146  0.00  0.00     0.181 C 
ENDBRANCH  15  18
ENDBRANCH  11  12
ENDBRANCH  10  11
ENDBRANCH   1  10
BRANCH   3  20
ATOM     20  C   UNL d   1      53.889  32.876  53.578  0.00  0.00     0.108 C 
BRANCH  20  21
ATOM     21  C   UNL d   1      54.051  33.086  54.363  0.00  0.00     0.135 C 
BRANCH  21  22
ATOM     22  O   UNL d   1      54.660  33.607  54.531  0.00  0.00    -0.325 OA
ATOM     23  C   UNL d   1      54.944  33.674  55.300  0.00  0.00     0.182 C 
ENDBRANCH  21  22
ENDBRANCH  20  21
ENDBRANCH   3  20
TORSDOF 7
ENDMDL
MODEL 4
REMARK VINA RESULT:      -6.7      1.735      4.755
REMARK  7 active torsions:
REMARK  status: ('A' for Active; 'I' for Inactive)
REMARK    1  A    between atoms: C_6  and  C_1 
REMARK    2  A    between atoms: C_8  and  N_3 
REMARK    3  A    between atoms: O_7  and  C_6 
REMARK    4  A    between atoms: C_9  and  O_7 
REMARK    5  A    between atoms: C_19  and  C_8 
REMARK    6  A    between atoms: O_16  and  C_10 
REMARK    7  A    between atoms: O_18  and  C_19 
ROOT
ATOM      1  C   UNL d   1      52.815  32.690  53.247  0.00  0.00     0.173 A 
ATOM      2  N   UNL d   1      52.309  32.749  52.588  0.00  0.00    -0.225 NA
ATOM      3  N   UNL d   1      52.728  33.386  53.706  0.00  0.00    -0.286 N 
ATOM      4  C   UNL d   1      52.164  33.877  53.325  0.00  0.00     0.083 A 
ATOM      5  C   UNL d   1      51.910  33.478  52.637  0.00  0.00     0.099 A 
ATOM      6  C   UNL d   1      51.850  34.618  53.503  0.00  0.00     0.019 A 
ATOM      7  C   UNL d   1      51.347  33.828  52.141  0.00  0.00     0.021 A 
ATOM      8  C   UNL d   1      51.289  34.965  53.007  0.00  0.00     0.002 A 
ATOM      9  C   UNL d   1      51.038  34.570  52.326  0.00  0.00     0.002 A 
ENDROOT
BRANCH   1  10
ATOM     10  C   UNL d   1      53.234  31.983  53.244  0.00  0.00     0.160 C 
BRANCH  10  11
ATOM     11  O   UNL d   1      52.883  31.293  52.949  0.00  0.00    -0.302 OA
BRANCH  11  12
ATOM     12  C   UNL d   1      53.021  30.567  53.314  0.00  0.00     0.100 A 
ATOM     13  C   UNL d   1      52.406  30.024  53.379  0.00  0.00     0.027 A 
ATOM     14  C   UNL d   1      52.543  29.297  53.744  0.00  0.00     0.026 A 
ATOM     15  C   UNL d   1      53.294  29.117  54.044  0.00  0.00     0.094 A 
ATOM     16  C   UNL d   1      53.903  29.663  53.976  0.00  0.00     0.026 A 
ATOM     17  C   UNL d   1      53.766  30.389  53.610  0.00  0.00     0.027 A 
BRANCH  15  18
ATOM     18  O   UNL d   1      53.431  28.392  54.408  0.00  0.00    -0.328 OA
ATOM     19  C   UNL d   1      53.466  28.339  55.232  0.00  0.00     0.181 C 
ENDBRANCH  15  18
ENDBRANCH  11  12
ENDBRANCH  10  11
ENDBRANCH   1  10
BRANCH   3  20
ATOM     20  C   UNL d   1      53.123  33.561  54.406  0.00  0.00     0.108 C 
BRANCH  20  21
ATOM     21  C   UNL d   1      53.918  33.795  54.389  0.00  0.00     0.135 C 
BRANCH  21  22
ATOM     22  O   UNL d   1      54.283  34.049  55.077  0.00  0.00    -0.325 OA
ATOM     23  C   UNL d   1      55.078  33.880  55.207  0.00  0.00     0.182 C 
ENDBRANCH  21  22
ENDBRANCH  20  21
ENDBRANCH   3  20
TORSDOF 7
ENDMDL
