MODEL 1
REMARK VINA RESULT:      22.4      0.000      0.000
REMARK  1 active torsions:
REMARK  status: ('A' for Active; 'I' for Inactive)
REMARK    1  A    between atoms: C_10  and  C_5 
ROOT
ATOM      1  C   UNL d   1      58.818  49.705  51.169  0.00  0.00     0.118 A 
ATOM      2  C   UNL d   1      59.331  49.706  50.539  0.00  0.00     0.088 A 
ATOM      3  N   UNL d   1      57.986  49.706  51.032  0.00  0.00    -0.219 NA
ATOM      4  C   UNL d   1      59.008  49.707  49.775  0.00  0.00     0.303 A 
ATOM      5  C   UNL d   1      57.694  49.707  50.270  0.00  0.00     0.162 A 
ATOM      6  O   UNL d   1      58.206  49.707  49.645  0.00  0.00    -0.259 OA
ATOM      7  S   UNL d   1      59.274  49.704  51.875  0.00  0.00    -0.068 SA
ATOM      8  C   UNL d   1      60.092  49.705  50.842  0.00  0.00     0.013 A 
ATOM      9  C   UNL d   1      60.048  49.704  51.638  0.00  0.00     0.031 A 
ATOM     10  O   UNL d   1      59.500  49.707  49.107  0.00  0.00    -0.259 OA
ATOM     11  C   UNL d   1      60.818  49.705  50.459  0.00  0.00     0.001 A 
ATOM     12  C   UNL d   1      60.717  49.703  52.121  0.00  0.00     0.006 A 
ATOM     13  C   UNL d   1      61.507  49.704  50.944  0.00  0.00     0.000 A 
ATOM     14  C   UNL d   1      61.469  49.703  51.731  0.00  0.00     0.001 A 
ENDROOT
BRANCH   5  15
ATOM     15  C   UNL d   1      56.858  49.707  50.171  0.00  0.00     0.058 C 
ATOM     16  C   UNL d   1      56.780  49.707  50.994  0.00  0.00     0.008 C 
ATOM     17  C   UNL d   1      56.038  49.708  50.109  0.00  0.00     0.008 C 
ATOM     18  C   UNL d   1      56.930  49.708  49.347  0.00  0.00     0.008 C 
ENDBRANCH   5  15
TORSDOF 1
ENDMDL
MODEL 2
REMARK VINA RESULT:      23.0      1.174      3.639
REMARK  1 active torsions:
REMARK  status: ('A' for Active; 'I' for Inactive)
REMARK    1  A    between atoms: C_10  and  C_5 
ROOT
ATOM      1  C   UNL d   1      58.729  49.677  50.225  0.00  0.00     0.118 A 
ATOM      2  C   UNL d   1      58.208  49.682  50.848  0.00  0.00     0.088 A 
ATOM      3  N   UNL d   1      59.559  49.674  50.374  0.00  0.00    -0.219 NA
ATOM      4  C   UNL d   1      58.520  49.683  51.617  0.00  0.00     0.303 A 
ATOM      5  C   UNL d   1      59.841  49.675  51.140  0.00  0.00     0.162 A 
ATOM      6  O   UNL d   1      59.320  49.680  51.758  0.00  0.00    -0.259 OA
ATOM      7  S   UNL d   1      58.282  49.676  49.514  0.00  0.00    -0.068 SA
ATOM      8  C   UNL d   1      57.450  49.684  50.536  0.00  0.00     0.013 A 
ATOM      9  C   UNL d   1      57.505  49.681  49.740  0.00  0.00     0.031 A 
ATOM     10  O   UNL d   1      58.019  49.688  52.278  0.00  0.00    -0.259 OA
ATOM     11  C   UNL d   1      56.719  49.689  50.909  0.00  0.00     0.001 A 
ATOM     12  C   UNL d   1      56.843  49.682  49.248  0.00  0.00     0.006 A 
ATOM     13  C   UNL d   1      56.037  49.690  50.414  0.00  0.00     0.000 A 
ATOM     14  C   UNL d   1      56.085  49.687  49.628  0.00  0.00     0.001 A 
ENDROOT
BRANCH   5  15
ATOM     15  C   UNL d   1      60.675  49.672  51.250  0.00  0.00     0.058 C 
ATOM     16  C   UNL d   1      60.548  49.702  52.066  0.00  0.00     0.008 C 
ATOM     17  C   UNL d   1      61.485  49.670  51.392  0.00  0.00     0.008 C 
ATOM     18  C   UNL d   1      60.808  49.642  50.434  0.00  0.00     0.008 C 
ENDBRANCH   5  15
TORSDOF 1
ENDMDL
