MODEL 1
REMARK VINA RESULT:       2.2      0.000      0.000
REMARK  8 active torsions:
REMARK  status: ('A' for Active; 'I' for Inactive)
REMARK    1  A    between atoms: C_13  and  N_1 
REMARK    2  A    between atoms: C_2  and  N_6 
REMARK    3  A    between atoms: C_9  and  C_5 
REMARK       I    between atoms: N_6  and  C_9 
REMARK    4  A    between atoms: S_16  and  C_7 
REMARK    5  A    between atoms: C_14  and  C_27 
REMARK       I    between atoms: N_20  and  C_14 
REMARK    6  A    between atoms: C_15  and  C_28 
REMARK    7  A    between atoms: C_27  and  S_16 
REMARK    8  A    between atoms: C_28  and  N_20 
ROOT
ATOM      1  C   UNL d   1      56.942  -0.334  31.452  0.00  0.00     0.219 A 
ATOM      2  S   UNL d   1      57.098  -0.295  32.206  0.00  0.00    -0.019 SA
ATOM      3  C   UNL d   1      56.594   0.178  32.526  0.00  0.00     0.165 A 
ATOM      4  N   UNL d   1      56.337   0.118  31.306  0.00  0.00    -0.120 NA
ATOM      5  N   UNL d   1      56.117   0.441  31.983  0.00  0.00    -0.133 NA
ENDROOT
BRANCH   1   6
ATOM      6  N   UNL d   1      57.324  -0.752  30.932  0.00  0.00    -0.181 NA
ATOM      7  C   UNL d   1      57.962  -0.473  30.602  0.00  0.00     0.283 C 
ATOM      8  O   UNL d   1      58.220   0.227  30.793  0.00  0.00    -0.265 OA
BRANCH   7   9
ATOM      9  C   UNL d   1      58.339  -0.894  30.084  0.00  0.00     0.080 A 
ATOM     10  C   UNL d   1      58.355  -1.659  30.040  0.00  0.00     0.088 A 
ATOM     11  N   UNL d   1      58.796  -1.855  29.442  0.00  0.00    -0.273 N 
ATOM     12  C   UNL d   1      59.052  -1.213  29.117  0.00  0.00     0.265 A 
ATOM     13  C   UNL d   1      58.771  -0.611  29.513  0.00  0.00     0.067 A 
ATOM     14  O   UNL d   1      59.515  -1.170  28.498  0.00  0.00    -0.267 OA
BRANCH  11  15
ATOM     15  C   UNL d   1      58.962  -2.631  29.196  0.00  0.00     0.067 A 
ATOM     16  C   UNL d   1      58.344  -3.123  28.959  0.00  0.00     0.020 A 
ATOM     17  C   UNL d   1      58.520  -3.895  28.716  0.00  0.00     0.031 A 
ATOM     18  C   UNL d   1      59.291  -4.167  28.709  0.00  0.00     0.140 A 
ATOM     19  C   UNL d   1      59.908  -3.667  28.949  0.00  0.00     0.031 A 
ATOM     20  F   UNL d   1      59.466  -4.945  28.464  0.00  0.00    -0.204 F 
ATOM     21  C   UNL d   1      59.745  -2.907  29.190  0.00  0.00     0.020 A 
ENDBRANCH  11  15
ENDBRANCH   7   9
ENDBRANCH   1   6
BRANCH   3  22
ATOM     22  S   UNL d   1      56.738   0.425  34.198  0.00  0.00    -0.054 SA
BRANCH  22  23
ATOM     23  C   UNL d   1      56.302  -0.038  34.725  0.00  0.00     0.100 C 
BRANCH  23  24
ATOM     24  C   UNL d   1      55.692   0.305  35.168  0.00  0.00     0.286 C 
ATOM     25  N   UNL d   1      54.934   0.340  34.849  0.00  0.00    -0.204 NA
ATOM     26  O   UNL d   1      55.843   0.610  35.923  0.00  0.00    -0.265 OA
BRANCH  25  27
ATOM     27  C   UNL d   1      54.324   0.681  35.288  0.00  0.00     0.127 C 
BRANCH  27  28
ATOM     28  C   UNL d   1      53.545   0.625  35.011  0.00  0.00     0.119 A 
ATOM     29  O   UNL d   1      53.298   0.682  34.222  0.00  0.00    -0.304 OA
ATOM     30  C   UNL d   1      52.472   0.593  34.208  0.00  0.00     0.123 A 
ATOM     31  C   UNL d   1      52.203   0.481  34.984  0.00  0.00     0.029 A 
ATOM     32  C   UNL d   1      52.870   0.501  35.483  0.00  0.00     0.028 A 
ENDBRANCH  27  28
ENDBRANCH  25  27
ENDBRANCH  23  24
ENDBRANCH  22  23
ENDBRANCH   3  22
TORSDOF 8
ENDMDL
