MODEL 1
REMARK VINA RESULT:      97.5      0.000      0.000
REMARK  5 active torsions:
REMARK  status: ('A' for Active; 'I' for Inactive)
REMARK    1  A    between atoms: C_4  and  C_1 
REMARK    2  A    between atoms: N_5  and  C_2 
REMARK       I    between atoms: N_9  and  C_4 
REMARK       I    between atoms: C_7  and  N_5 
REMARK    3  A    between atoms: C_10  and  C_7 
REMARK    4  A    between atoms: C_21  and  N_9 
REMARK    5  A    between atoms: O_29  and  C_22 
ROOT
ATOM      1  C   UNL d   1     -51.249  26.225  33.969  0.00  0.00     0.175 A 
ATOM      2  C   UNL d   1     -50.826  26.389  34.667  0.00  0.00     0.114 A 
ATOM      3  O   UNL d   1     -50.849  26.605  33.348  0.00  0.00    -0.301 OA
ATOM      4  C   UNL d   1     -50.184  26.858  34.471  0.00  0.00     0.043 A 
ATOM      5  C   UNL d   1     -50.196  26.994  33.655  0.00  0.00     0.102 A 
ATOM      6  C   UNL d   1     -49.582  27.184  34.933  0.00  0.00     0.004 A 
ATOM      7  C   UNL d   1     -49.611  27.451  33.307  0.00  0.00     0.025 A 
ATOM      8  C   UNL d   1     -48.993  27.645  34.578  0.00  0.00     0.000 A 
ATOM      9  C   UNL d   1     -49.012  27.776  33.761  0.00  0.00     0.002 A 
ENDROOT
BRANCH   2  10
ATOM     10  N   UNL d   1     -51.026  26.120  35.427  0.00  0.00    -0.206 NA
ATOM     11  C   UNL d   1     -51.340  26.647  35.978  0.00  0.00     0.279 C 
ATOM     12  O   UNL d   1     -51.455  27.438  35.779  0.00  0.00    -0.265 OA
BRANCH  11  13
ATOM     13  C   UNL d   1     -51.537  26.380  36.731  0.00  0.00     0.060 A 
ATOM     14  C   UNL d   1     -52.243  25.980  36.851  0.00  0.00     0.031 A 
ATOM     15  C   UNL d   1     -52.438  25.716  37.598  0.00  0.00     0.119 A 
ATOM     16  O   UNL d   1     -53.097  25.304  37.887  0.00  0.00    -0.300 OA
ATOM     17  C   UNL d   1     -51.924  25.852  38.229  0.00  0.00     0.119 A 
ATOM     18  C   UNL d   1     -52.985  25.188  38.699  0.00  0.00     0.304 A 
ATOM     19  O   UNL d   1     -52.261  25.527  38.904  0.00  0.00    -0.300 OA
ATOM     20  C   UNL d   1     -51.218  26.251  38.108  0.00  0.00     0.026 A 
ATOM     21  C   UNL d   1     -51.028  26.517  37.345  0.00  0.00     0.007 A 
ENDBRANCH  11  13
ENDBRANCH   2  10
BRANCH   1  22
ATOM     22  C   UNL d   1     -51.937  25.771  33.907  0.00  0.00     0.303 C 
ATOM     23  N   UNL d   1     -51.902  25.026  33.568  0.00  0.00    -0.206 NA
ATOM     24  O   UNL d   1     -52.656  26.071  34.188  0.00  0.00    -0.263 OA
BRANCH  23  25
ATOM     25  C   UNL d   1     -52.588  24.569  33.504  0.00  0.00     0.085 A 
ATOM     26  C   UNL d   1     -52.528  23.748  33.567  0.00  0.00     0.021 A 
ATOM     27  C   UNL d   1     -53.211  23.282  33.505  0.00  0.00     0.026 A 
ATOM     28  C   UNL d   1     -53.945  23.646  33.380  0.00  0.00     0.094 A 
ATOM     29  C   UNL d   1     -53.995  24.464  33.318  0.00  0.00     0.026 A 
ATOM     30  C   UNL d   1     -53.307  24.925  33.382  0.00  0.00     0.021 A 
BRANCH  28  31
ATOM     31  O   UNL d   1     -54.625  23.188  33.317  0.00  0.00    -0.328 OA
ATOM     32  C   UNL d   1     -55.365  23.549  33.373  0.00  0.00     0.181 C 
ENDBRANCH  28  31
ENDBRANCH  23  25
ENDBRANCH   1  22
TORSDOF 5
ENDMDL
MODEL 2
REMARK VINA RESULT:      99.4      0.833      1.155
REMARK  5 active torsions:
REMARK  status: ('A' for Active; 'I' for Inactive)
REMARK    1  A    between atoms: C_4  and  C_1 
REMARK    2  A    between atoms: N_5  and  C_2 
REMARK       I    between atoms: N_9  and  C_4 
REMARK       I    between atoms: C_7  and  N_5 
REMARK    3  A    between atoms: C_10  and  C_7 
REMARK    4  A    between atoms: C_21  and  N_9 
REMARK    5  A    between atoms: O_29  and  C_22 
ROOT
ATOM      1  C   UNL d   1     -50.218  26.743  34.258  0.00  0.00     0.175 A 
ATOM      2  C   UNL d   1     -49.965  26.955  35.023  0.00  0.00     0.114 A 
ATOM      3  O   UNL d   1     -49.763  27.185  33.722  0.00  0.00    -0.301 OA
ATOM      4  C   UNL d   1     -49.371  27.513  34.949  0.00  0.00     0.043 A 
ATOM      5  C   UNL d   1     -49.243  27.658  34.145  0.00  0.00     0.102 A 
ATOM      6  C   UNL d   1     -48.922  27.914  35.515  0.00  0.00     0.004 A 
ATOM      7  C   UNL d   1     -48.673  28.198  33.911  0.00  0.00     0.025 A 
ATOM      8  C   UNL d   1     -48.347  28.459  35.275  0.00  0.00     0.000 A 
ATOM      9  C   UNL d   1     -48.226  28.599  34.468  0.00  0.00     0.002 A 
ENDROOT
BRANCH   2  10
ATOM     10  N   UNL d   1     -50.269  26.648  35.733  0.00  0.00    -0.206 NA
ATOM     11  C   UNL d   1     -50.758  27.117  36.204  0.00  0.00     0.279 C 
ATOM     12  O   UNL d   1     -50.947  27.885  35.974  0.00  0.00    -0.265 OA
BRANCH  11  13
ATOM     13  C   UNL d   1     -51.058  26.813  36.908  0.00  0.00     0.060 A 
ATOM     14  C   UNL d   1     -51.757  26.385  36.903  0.00  0.00     0.031 A 
ATOM     15  C   UNL d   1     -52.054  26.084  37.601  0.00  0.00     0.119 A 
ATOM     16  O   UNL d   1     -52.732  25.639  37.771  0.00  0.00    -0.300 OA
ATOM     17  C   UNL d   1     -51.648  26.212  38.309  0.00  0.00     0.119 A 
ATOM     18  C   UNL d   1     -52.741  25.494  38.586  0.00  0.00     0.304 A 
ATOM     19  O   UNL d   1     -52.071  25.849  38.913  0.00  0.00    -0.300 OA
ATOM     20  C   UNL d   1     -50.949  26.640  38.312  0.00  0.00     0.026 A 
ATOM     21  C   UNL d   1     -50.655  26.942  37.597  0.00  0.00     0.007 A 
ENDBRANCH  11  13
ENDBRANCH   2  10
BRANCH   1  22
ATOM     22  C   UNL d   1     -50.809  26.197  34.070  0.00  0.00     0.303 C 
ATOM     23  N   UNL d   1     -50.634  25.397  34.060  0.00  0.00    -0.206 NA
ATOM     24  O   UNL d   1     -51.573  26.461  33.892  0.00  0.00    -0.263 OA
BRANCH  23  25
ATOM     25  C   UNL d   1     -51.222  24.847  33.873  0.00  0.00     0.085 A 
ATOM     26  C   UNL d   1     -51.007  24.141  33.503  0.00  0.00     0.021 A 
ATOM     27  C   UNL d   1     -51.591  23.585  33.312  0.00  0.00     0.026 A 
ATOM     28  C   UNL d   1     -52.384  23.745  33.494  0.00  0.00     0.094 A 
ATOM     29  C   UNL d   1     -52.589  24.450  33.862  0.00  0.00     0.026 A 
ATOM     30  C   UNL d   1     -51.999  25.003  34.051  0.00  0.00     0.021 A 
BRANCH  28  31
ATOM     31  O   UNL d   1     -52.967  23.196  33.306  0.00  0.00    -0.328 OA
ATOM     32  C   UNL d   1     -53.759  23.428  33.306  0.00  0.00     0.181 C 
ENDBRANCH  28  31
ENDBRANCH  23  25
ENDBRANCH   1  22
TORSDOF 5
ENDMDL
