MODEL 1
REMARK VINA RESULT:      70.4      0.000      0.000
REMARK  4 active torsions:
REMARK  status: ('A' for Active; 'I' for Inactive)
REMARK    1  A    between atoms: C_2  and  S_1 
REMARK    2  A    between atoms: N_3  and  S_1 
REMARK    3  A    between atoms: C_5  and  C_6 
REMARK       I    between atoms: N_7  and  C_5 
REMARK    4  A    between atoms: C_15  and  N_7 
ROOT
ATOM      1  C   UNL d   1     -49.931  26.105  33.773  0.00  0.00     0.115 A 
ATOM      2  C   UNL d   1     -49.731  26.862  34.060  0.00  0.00     0.019 A 
ATOM      3  C   UNL d   1     -48.939  27.070  34.164  0.00  0.00     0.059 A 
ATOM      4  C   UNL d   1     -49.330  25.570  33.595  0.00  0.00     0.070 A 
ATOM      5  C   UNL d   1     -48.344  26.522  33.982  0.00  0.00     0.006 A 
ATOM      6  C   UNL d   1     -48.539  25.778  33.699  0.00  0.00     0.012 A 
ATOM      7 CL   UNL d   1     -49.530  24.814  33.307  0.00  0.00    -0.082 Cl
ENDROOT
BRANCH   1   8
ATOM      8  S   UNL d   1     -50.722  25.897  33.668  0.00  0.00     0.272 S 
ATOM      9  O   UNL d   1     -50.918  26.696  33.563  0.00  0.00    -0.200 OA
ATOM     10  O   UNL d   1     -50.528  25.106  33.773  0.00  0.00    -0.200 OA
BRANCH   8  11
ATOM     11  N   UNL d   1     -51.509  25.690  33.565  0.00  0.00    -0.229 N 
ATOM     12  C   UNL d   1     -51.640  24.840  33.632  0.00  0.00     0.092 A 
ATOM     13  C   UNL d   1     -52.212  24.410  33.585  0.00  0.00     0.020 A 
ATOM     14  C   UNL d   1     -52.998  24.662  33.435  0.00  0.00     0.002 A 
ATOM     15  C   UNL d   1     -53.273  25.481  33.306  0.00  0.00     0.002 A 
ATOM     16  C   UNL d   1     -52.781  26.221  33.308  0.00  0.00     0.020 A 
ATOM     17  C   UNL d   1     -51.953  26.260  33.436  0.00  0.00     0.092 A 
ENDBRANCH   8  11
ENDBRANCH   1   8
BRANCH   3  18
ATOM     18  C   UNL d   1     -48.737  27.816  34.448  0.00  0.00     0.279 C 
ATOM     19  N   UNL d   1     -48.134  27.903  34.998  0.00  0.00    -0.206 NA
ATOM     20  O   UNL d   1     -49.144  28.481  34.176  0.00  0.00    -0.265 OA
BRANCH  19  21
ATOM     21  C   UNL d   1     -47.929  28.649  35.284  0.00  0.00     0.104 A 
ATOM     22  C   UNL d   1     -48.291  28.941  35.951  0.00  0.00     0.118 A 
ATOM     23  N   UNL d   1     -48.084  29.685  36.234  0.00  0.00    -0.241 NA
ATOM     24  C   UNL d   1     -47.509  30.132  35.838  0.00  0.00     0.099 A 
ATOM     25  C   UNL d   1     -47.146  29.834  35.165  0.00  0.00     0.022 A 
ATOM     26  C   UNL d   1     -47.355  29.081  34.879  0.00  0.00     0.022 A 
ENDBRANCH  19  21
ENDBRANCH   3  18
TORSDOF 4
ENDMDL
MODEL 2
REMARK VINA RESULT:      71.5      2.798      5.867
REMARK  4 active torsions:
REMARK  status: ('A' for Active; 'I' for Inactive)
REMARK    1  A    between atoms: C_2  and  S_1 
REMARK    2  A    between atoms: N_3  and  S_1 
REMARK    3  A    between atoms: C_5  and  C_6 
REMARK       I    between atoms: N_7  and  C_5 
REMARK    4  A    between atoms: C_15  and  N_7 
ROOT
ATOM      1  C   UNL d   1     -47.840  30.418  35.008  0.00  0.00     0.115 A 
ATOM      2  C   UNL d   1     -48.341  29.801  34.756  0.00  0.00     0.019 A 
ATOM      3  C   UNL d   1     -48.296  29.059  35.113  0.00  0.00     0.059 A 
ATOM      4  C   UNL d   1     -47.301  30.277  35.615  0.00  0.00     0.070 A 
ATOM      5  C   UNL d   1     -47.749  28.930  35.723  0.00  0.00     0.006 A 
ATOM      6  C   UNL d   1     -47.256  29.534  35.972  0.00  0.00     0.012 A 
ATOM      7 CL   UNL d   1     -46.800  30.894  35.867  0.00  0.00    -0.082 Cl
ENDROOT
BRANCH   1   8
ATOM      8  S   UNL d   1     -47.885  31.161  34.652  0.00  0.00     0.272 S 
ATOM      9  O   UNL d   1     -48.154  30.808  33.952  0.00  0.00    -0.200 OA
ATOM     10  O   UNL d   1     -47.618  31.510  35.345  0.00  0.00    -0.200 OA
BRANCH   8  11
ATOM     11  N   UNL d   1     -47.930  31.899  34.297  0.00  0.00    -0.229 N 
ATOM     12  C   UNL d   1     -47.189  32.133  33.923  0.00  0.00     0.092 A 
ATOM     13  C   UNL d   1     -46.965  32.708  33.557  0.00  0.00     0.020 A 
ATOM     14  C   UNL d   1     -47.429  33.382  33.380  0.00  0.00     0.002 A 
ATOM     15  C   UNL d   1     -48.264  33.520  33.601  0.00  0.00     0.002 A 
ATOM     16  C   UNL d   1     -48.796  32.975  34.059  0.00  0.00     0.020 A 
ATOM     17  C   UNL d   1     -48.586  32.223  34.363  0.00  0.00     0.092 A 
ENDBRANCH   8  11
ENDBRANCH   1   8
BRANCH   3  18
ATOM     18  C   UNL d   1     -48.789  28.447  34.868  0.00  0.00     0.279 C 
ATOM     19  N   UNL d   1     -48.970  28.350  34.073  0.00  0.00    -0.206 NA
ATOM     20  O   UNL d   1     -49.103  27.926  35.426  0.00  0.00    -0.265 OA
BRANCH  19  21
ATOM     21  C   UNL d   1     -49.463  27.738  33.824  0.00  0.00     0.104 A 
ATOM     22  C   UNL d   1     -49.181  26.976  33.798  0.00  0.00     0.118 A 
ATOM     23  N   UNL d   1     -49.676  26.367  33.549  0.00  0.00    -0.241 NA
ATOM     24  C   UNL d   1     -50.457  26.535  33.327  0.00  0.00     0.099 A 
ATOM     25  C   UNL d   1     -50.738  27.306  33.354  0.00  0.00     0.022 A 
ATOM     26  C   UNL d   1     -50.237  27.921  33.606  0.00  0.00     0.022 A 
ENDBRANCH  19  21
ENDBRANCH   3  18
TORSDOF 4
ENDMDL
MODEL 3
REMARK VINA RESULT:      71.5      1.463      5.247
REMARK  4 active torsions:
REMARK  status: ('A' for Active; 'I' for Inactive)
REMARK    1  A    between atoms: C_2  and  S_1 
REMARK    2  A    between atoms: N_3  and  S_1 
REMARK    3  A    between atoms: C_5  and  C_6 
REMARK       I    between atoms: N_7  and  C_5 
REMARK    4  A    between atoms: C_15  and  N_7 
ROOT
ATOM      1  C   UNL d   1     -50.148  25.782  33.756  0.00  0.00     0.115 A 
ATOM      2  C   UNL d   1     -50.969  25.651  33.814  0.00  0.00     0.019 A 
ATOM      3  C   UNL d   1     -51.286  24.913  33.624  0.00  0.00     0.059 A 
ATOM      4  C   UNL d   1     -49.659  25.168  33.508  0.00  0.00     0.070 A 
ATOM      5  C   UNL d   1     -50.782  24.303  33.375  0.00  0.00     0.006 A 
ATOM      6  C   UNL d   1     -49.975  24.430  33.317  0.00  0.00     0.012 A 
ATOM      7 CL   UNL d   1     -48.837  25.300  33.450  0.00  0.00    -0.082 Cl
ENDROOT
BRANCH   1   8
ATOM      8  S   UNL d   1     -49.832  26.520  33.946  0.00  0.00     0.272 S 
ATOM      9  O   UNL d   1     -50.366  26.587  34.577  0.00  0.00    -0.200 OA
ATOM     10  O   UNL d   1     -49.303  26.454  33.322  0.00  0.00    -0.200 OA
BRANCH   8  11
ATOM     11  N   UNL d   1     -49.518  27.254  34.135  0.00  0.00    -0.229 N 
ATOM     12  C   UNL d   1     -49.739  27.866  33.569  0.00  0.00     0.092 A 
ATOM     13  C   UNL d   1     -49.604  28.567  33.502  0.00  0.00     0.020 A 
ATOM     14  C   UNL d   1     -49.137  29.024  34.026  0.00  0.00     0.002 A 
ATOM     15  C   UNL d   1     -48.727  28.745  34.746  0.00  0.00     0.002 A 
ATOM     16  C   UNL d   1     -48.719  27.920  35.076  0.00  0.00     0.020 A 
ATOM     17  C   UNL d   1     -49.109  27.256  34.746  0.00  0.00     0.092 A 
ENDBRANCH   8  11
ENDBRANCH   1   8
BRANCH   3  18
ATOM     18  C   UNL d   1     -52.096  24.778  33.680  0.00  0.00     0.279 C 
ATOM     19  N   UNL d   1     -52.388  24.014  33.742  0.00  0.00    -0.206 NA
ATOM     20  O   UNL d   1     -52.618  25.418  33.672  0.00  0.00    -0.265 OA
BRANCH  19  21
ATOM     21  C   UNL d   1     -53.199  23.875  33.798  0.00  0.00     0.104 A 
ATOM     22  C   UNL d   1     -53.712  24.270  33.306  0.00  0.00     0.118 A 
ATOM     23  N   UNL d   1     -54.521  24.130  33.364  0.00  0.00    -0.241 NA
ATOM     24  C   UNL d   1     -54.807  23.588  33.923  0.00  0.00     0.099 A 
ATOM     25  C   UNL d   1     -54.285  23.192  34.418  0.00  0.00     0.022 A 
ATOM     26  C   UNL d   1     -53.468  23.334  34.359  0.00  0.00     0.022 A 
ENDBRANCH  19  21
ENDBRANCH   3  18
TORSDOF 4
ENDMDL
MODEL 4
REMARK VINA RESULT:      72.6      1.242      1.784
REMARK  4 active torsions:
REMARK  status: ('A' for Active; 'I' for Inactive)
REMARK    1  A    between atoms: C_2  and  S_1 
REMARK    2  A    between atoms: N_3  and  S_1 
REMARK    3  A    between atoms: C_5  and  C_6 
REMARK       I    between atoms: N_7  and  C_5 
REMARK    4  A    between atoms: C_15  and  N_7 
ROOT
ATOM      1  C   UNL d   1     -50.830  26.848  33.649  0.00  0.00     0.115 A 
ATOM      2  C   UNL d   1     -50.090  27.168  33.864  0.00  0.00     0.019 A 
ATOM      3  C   UNL d   1     -50.000  27.984  33.946  0.00  0.00     0.059 A 
ATOM      4  C   UNL d   1     -51.466  27.355  33.520  0.00  0.00     0.070 A 
ATOM      5  C   UNL d   1     -50.648  28.483  33.813  0.00  0.00     0.006 A 
ATOM      6  C   UNL d   1     -51.375  28.171  33.602  0.00  0.00     0.012 A 
ATOM      7 CL   UNL d   1     -52.205  27.035  33.305  0.00  0.00    -0.082 Cl
ENDROOT
BRANCH   1   8
ATOM      8  S   UNL d   1     -50.920  26.032  33.567  0.00  0.00     0.272 S 
ATOM      9  O   UNL d   1     -51.704  26.092  33.831  0.00  0.00    -0.200 OA
ATOM     10  O   UNL d   1     -50.144  25.972  33.306  0.00  0.00    -0.200 OA
BRANCH   8  11
ATOM     11  N   UNL d   1     -51.010  25.221  33.486  0.00  0.00    -0.229 N 
ATOM     12  C   UNL d   1     -50.256  24.806  33.439  0.00  0.00     0.092 A 
ATOM     13  C   UNL d   1     -50.057  24.121  33.369  0.00  0.00     0.020 A 
ATOM     14  C   UNL d   1     -50.579  23.468  33.306  0.00  0.00     0.002 A 
ATOM     15  C   UNL d   1     -51.453  23.489  33.313  0.00  0.00     0.002 A 
ATOM     16  C   UNL d   1     -51.973  24.206  33.389  0.00  0.00     0.020 A 
ATOM     17  C   UNL d   1     -51.710  24.998  33.467  0.00  0.00     0.092 A 
ENDBRANCH   8  11
ENDBRANCH   1   8
BRANCH   3  18
ATOM     18  C   UNL d   1     -49.272  28.304  34.158  0.00  0.00     0.279 C 
ATOM     19  N   UNL d   1     -49.121  28.518  34.936  0.00  0.00    -0.206 NA
ATOM     20  O   UNL d   1     -48.689  28.412  33.583  0.00  0.00    -0.265 OA
BRANCH  19  21
ATOM     21  C   UNL d   1     -48.392  28.840  35.151  0.00  0.00     0.104 A 
ATOM     22  C   UNL d   1     -48.365  29.481  35.650  0.00  0.00     0.118 A 
ATOM     23  N   UNL d   1     -47.637  29.800  35.863  0.00  0.00    -0.241 NA
ATOM     24  C   UNL d   1     -46.937  29.465  35.569  0.00  0.00     0.099 A 
ATOM     25  C   UNL d   1     -46.970  28.817  35.065  0.00  0.00     0.022 A 
ATOM     26  C   UNL d   1     -47.707  28.496  34.850  0.00  0.00     0.022 A 
ENDBRANCH  19  21
ENDBRANCH   3  18
TORSDOF 4
ENDMDL
