MODEL 1
REMARK VINA RESULT:      45.9      0.000      0.000
REMARK  2 active torsions:
REMARK  status: ('A' for Active; 'I' for Inactive)
REMARK    1  A    between atoms: C_18  and  N_5 
REMARK    2  A    between atoms: C_21  and  C_18 
ROOT
ATOM      1  C   UNL d   1     -57.712 -98.758 -44.000  0.00  0.00     0.155 A 
ATOM      2  C   UNL d   1     -57.471 -98.757 -44.789  0.00  0.00     0.092 A 
ATOM      3  N   UNL d   1     -57.143 -98.758 -43.399  0.00  0.00    -0.210 NA
ATOM      4  N   UNL d   1     -56.111 -98.758 -44.376  0.00  0.00    -0.258 N 
ATOM      5  N   UNL d   1     -58.514 -98.758 -43.814  0.00  0.00    -0.275 N 
ATOM      6  C   UNL d   1     -56.349 -98.758 -43.586  0.00  0.00     0.152 A 
ATOM      7  C   UNL d   1     -56.668 -98.757 -44.979  0.00  0.00     0.269 A 
ATOM      8  C   UNL d   1     -58.837 -98.757 -45.208  0.00  0.00     0.105 A 
ATOM      9  C   UNL d   1     -59.082 -98.757 -44.407  0.00  0.00     0.180 A 
ATOM     10  C   UNL d   1     -58.035 -98.757 -45.393  0.00  0.00     0.021 A 
ATOM     11  C   UNL d   1     -55.791 -98.758 -42.993  0.00  0.00     0.035 A 
ATOM     12  C   UNL d   1     -59.400 -98.757 -45.803  0.00  0.00     0.104 C 
ATOM     13  N   UNL d   1     -59.961 -98.757 -46.402  0.00  0.00    -0.191 NA
ATOM     14  C   UNL d   1     -55.307 -98.757 -44.570  0.00  0.00     0.084 A 
ATOM     15  N   UNL d   1     -59.909 -98.757 -44.399  0.00  0.00    -0.128 N 
ATOM     16  O   UNL d   1     -56.429 -98.757 -45.769  0.00  0.00    -0.266 OA
ATOM     17  C   UNL d   1     -54.748 -98.758 -43.958  0.00  0.00     0.019 A 
ATOM     18  C   UNL d   1     -54.990 -98.758 -43.170  0.00  0.00     0.005 A 
ATOM     19  C   UNL d   1     -56.032 -98.758 -42.204  0.00  0.00     0.003 C 
ENDROOT
BRANCH   5  20
ATOM     20  C   UNL d   1     -58.749 -98.758 -43.023  0.00  0.00     0.067 C 
ATOM     21  C   UNL d   1     -58.154 -98.756 -42.449  0.00  0.00     0.019 C 
BRANCH  20  22
ATOM     22  C   UNL d   1     -59.535 -98.760 -42.747  0.00  0.00     0.018 C 
ATOM     23  C   UNL d   1     -59.774 -98.761 -41.951  0.00  0.00     0.002 C 
ENDBRANCH  20  22
ENDBRANCH   5  20
TORSDOF 2
ENDMDL
