MODEL 1
REMARK VINA RESULT:      22.8      0.000      0.000
REMARK  2 active torsions:
REMARK  status: ('A' for Active; 'I' for Inactive)
REMARK    1  A    between atoms: C_6  and  N_1 
REMARK    2  A    between atoms: C_14  and  C_13 
ROOT
ATOM      1  C   UNL d   1     -57.011 -98.766 -44.305  0.00  0.00     0.070 A 
ATOM      2  C   UNL d   1     -57.598 -98.757 -44.883  0.00  0.00     0.018 A 
ATOM      3  C   UNL d   1     -57.219 -98.774 -43.506  0.00  0.00     0.018 A 
ATOM      4  C   UNL d   1     -58.399 -98.755 -44.666  0.00  0.00     0.002 A 
ATOM      5  C   UNL d   1     -58.015 -98.772 -43.283  0.00  0.00     0.002 A 
ATOM      6  C   UNL d   1     -58.607 -98.763 -43.868  0.00  0.00     0.000 A 
ENDROOT
BRANCH   1   7
ATOM      7  N   UNL d   1     -56.224 -98.768 -44.530  0.00  0.00    -0.242 N 
ATOM      8  C   UNL d   1     -55.580 -98.774 -44.015  0.00  0.00     0.267 A 
ATOM      9  C   UNL d   1     -54.894 -98.774 -44.477  0.00  0.00     0.066 A 
ATOM     10  O   UNL d   1     -55.615 -98.780 -43.193  0.00  0.00    -0.267 OA
ATOM     11  C   UNL d   1     -55.110 -98.768 -45.266  0.00  0.00     0.066 A 
ATOM     12  C   UNL d   1     -55.933 -98.764 -45.302  0.00  0.00     0.267 A 
ATOM     13  O   UNL d   1     -56.387 -98.757 -45.995  0.00  0.00    -0.267 OA
ENDBRANCH   1   7
BRANCH   6  14
ATOM     14  C   UNL d   1     -59.398 -98.761 -43.643  0.00  0.00     0.000 C 
ATOM     15  C   UNL d   1     -59.590 -98.756 -42.838  0.00  0.00     0.000 C 
ENDBRANCH   6  14
TORSDOF 2
ENDMDL
