MODEL 1
REMARK VINA RESULT:      -7.4      0.000      0.000
REMARK  8 active torsions:
REMARK  status: ('A' for Active; 'I' for Inactive)
REMARK    1  A    between atoms: N_7  and  N_1 
REMARK    2  A    between atoms: S_9  and  C_2 
REMARK       I    between atoms: C_8  and  N_7 
REMARK    3  A    between atoms: C_16  and  C_8 
REMARK    4  A    between atoms: C_15  and  S_9 
REMARK    5  A    between atoms: C_10  and  C_15 
REMARK       I    between atoms: N_12  and  C_10 
REMARK    6  A    between atoms: C_17  and  N_12 
REMARK    7  A    between atoms: C_19  and  C_16 
REMARK    8  A    between atoms: C_20  and  C_17 
ROOT
ATOM      1  N   UNL d   1     -46.048  12.512  23.030  0.00  0.00    -0.168 N 
ATOM      2  C   UNL d   1     -46.035  13.199  22.602  0.00  0.00     0.199 A 
ATOM      3  C   UNL d   1     -45.389  12.010  23.031  0.00  0.00     0.283 A 
ATOM      4  N   UNL d   1     -45.357  13.413  22.154  0.00  0.00    -0.221 NA
ATOM      5  C   UNL d   1     -44.710  12.220  22.587  0.00  0.00     0.076 A 
ATOM      6  C   UNL d   1     -44.697  12.920  22.150  0.00  0.00     0.088 A 
ATOM      7  O   UNL d   1     -45.397  11.309  23.466  0.00  0.00    -0.265 OA
ATOM      8  C   UNL d   1     -44.054  11.713  22.592  0.00  0.00     0.006 A 
ATOM      9  C   UNL d   1     -44.029  13.117  21.719  0.00  0.00     0.019 A 
ATOM     10  C   UNL d   1     -43.386  11.924  22.152  0.00  0.00     0.000 A 
ATOM     11  C   UNL d   1     -43.372  12.624  21.716  0.00  0.00     0.002 A 
ENDROOT
BRANCH   2  12
ATOM     12  S   UNL d   1     -46.682  13.692  22.600  0.00  0.00    -0.043 SA
BRANCH  12  13
ATOM     13  C   UNL d   1     -46.605  14.478  22.835  0.00  0.00     0.101 C 
BRANCH  13  14
ATOM     14  C   UNL d   1     -47.148  15.035  22.586  0.00  0.00     0.286 C 
ATOM     15  N   UNL d   1     -47.929  14.991  22.838  0.00  0.00    -0.206 NA
ATOM     16  O   UNL d   1     -46.914  15.643  22.080  0.00  0.00    -0.265 OA
BRANCH  15  17
ATOM     17  C   UNL d   1     -48.473  15.549  22.588  0.00  0.00     0.102 C 
BRANCH  17  18
ATOM     18  C   UNL d   1     -49.269  15.453  22.761  0.00  0.00     0.019 A 
ATOM     19  C   UNL d   1     -49.798  15.212  22.174  0.00  0.00     0.002 A 
ATOM     20  C   UNL d   1     -50.594  15.115  22.347  0.00  0.00     0.000 A 
ATOM     21  C   UNL d   1     -50.869  15.260  23.110  0.00  0.00     0.000 A 
ATOM     22  C   UNL d   1     -50.339  15.501  23.698  0.00  0.00     0.000 A 
ATOM     23  C   UNL d   1     -49.545  15.597  23.524  0.00  0.00     0.002 A 
ENDBRANCH  17  18
ENDBRANCH  15  17
ENDBRANCH  13  14
ENDBRANCH  12  13
ENDBRANCH   2  12
BRANCH   1  24
ATOM     24  N   UNL d   1     -46.709  12.307  23.463  0.00  0.00    -0.119 NA
ATOM     25  C   UNL d   1     -47.267  11.808  23.139  0.00  0.00     0.296 C 
ATOM     26  O   UNL d   1     -47.171  11.506  22.377  0.00  0.00    -0.264 OA
BRANCH  25  27
ATOM     27  C   UNL d   1     -47.936  11.602  23.580  0.00  0.00     0.064 C 
BRANCH  27  28
ATOM     28  C   UNL d   1     -48.668  11.624  23.233  0.00  0.00     0.005 A 
ATOM     29  C   UNL d   1     -49.332  11.781  23.698  0.00  0.00     0.000 A 
ATOM     30  C   UNL d   1     -50.077  11.803  23.344  0.00  0.00     0.000 A 
ATOM     31  C   UNL d   1     -50.157  11.672  22.546  0.00  0.00     0.000 A 
ATOM     32  C   UNL d   1     -49.484  11.515  22.087  0.00  0.00     0.000 A 
ATOM     33  C   UNL d   1     -48.748  11.492  22.435  0.00  0.00     0.000 A 
ENDBRANCH  27  28
ENDBRANCH  25  27
ENDBRANCH   1  24
TORSDOF 8
ENDMDL
MODEL 2
REMARK VINA RESULT:      -6.2      4.543      7.344
REMARK  8 active torsions:
REMARK  status: ('A' for Active; 'I' for Inactive)
REMARK    1  A    between atoms: N_7  and  N_1 
REMARK    2  A    between atoms: S_9  and  C_2 
REMARK       I    between atoms: C_8  and  N_7 
REMARK    3  A    between atoms: C_16  and  C_8 
REMARK    4  A    between atoms: C_15  and  S_9 
REMARK    5  A    between atoms: C_10  and  C_15 
REMARK       I    between atoms: N_12  and  C_10 
REMARK    6  A    between atoms: C_17  and  N_12 
REMARK    7  A    between atoms: C_19  and  C_16 
REMARK    8  A    between atoms: C_20  and  C_17 
ROOT
ATOM      1  N   UNL d   1     -40.422  14.493  20.694  0.00  0.00    -0.168 N 
ATOM      2  C   UNL d   1     -40.820  13.939  21.128  0.00  0.00     0.199 A 
ATOM      3  C   UNL d   1     -39.661  14.730  20.918  0.00  0.00     0.283 A 
ATOM      4  N   UNL d   1     -40.471  13.596  21.811  0.00  0.00    -0.221 NA
ATOM      5  C   UNL d   1     -39.308  14.392  21.599  0.00  0.00     0.076 A 
ATOM      6  C   UNL d   1     -39.714  13.826  22.042  0.00  0.00     0.088 A 
ATOM      7  O   UNL d   1     -39.250  15.295  20.479  0.00  0.00    -0.265 OA
ATOM      8  C   UNL d   1     -38.545  14.633  21.819  0.00  0.00     0.006 A 
ATOM      9  C   UNL d   1     -39.361  13.501  22.706  0.00  0.00     0.019 A 
ATOM     10  C   UNL d   1     -38.201  14.296  22.491  0.00  0.00     0.000 A 
ATOM     11  C   UNL d   1     -38.607  13.731  22.935  0.00  0.00     0.002 A 
ENDROOT
BRANCH   2  12
ATOM     12  S   UNL d   1     -41.568  13.706  20.907  0.00  0.00    -0.043 SA
BRANCH  12  13
ATOM     13  C   UNL d   1     -42.081  13.379  21.463  0.00  0.00     0.101 C 
BRANCH  13  14
ATOM     14  C   UNL d   1     -42.805  13.083  21.227  0.00  0.00     0.286 C 
ATOM     15  N   UNL d   1     -43.463  13.168  21.711  0.00  0.00    -0.206 NA
ATOM     16  O   UNL d   1     -42.877  12.698  20.501  0.00  0.00    -0.265 OA
BRANCH  15  17
ATOM     17  C   UNL d   1     -44.189  12.872  21.475  0.00  0.00     0.102 C 
BRANCH  17  18
ATOM     18  C   UNL d   1     -44.841  12.942  21.966  0.00  0.00     0.019 A 
ATOM     19  C   UNL d   1     -45.278  13.643  21.984  0.00  0.00     0.002 A 
ATOM     20  C   UNL d   1     -45.930  13.713  22.476  0.00  0.00     0.000 A 
ATOM     21  C   UNL d   1     -46.153  13.081  22.955  0.00  0.00     0.000 A 
ATOM     22  C   UNL d   1     -45.716  12.379  22.937  0.00  0.00     0.000 A 
ATOM     23  C   UNL d   1     -45.064  12.310  22.446  0.00  0.00     0.002 A 
ENDBRANCH  17  18
ENDBRANCH  15  17
ENDBRANCH  13  14
ENDBRANCH  12  13
ENDBRANCH   2  12
BRANCH   1  24
ATOM     24  N   UNL d   1     -40.765  14.824  20.030  0.00  0.00    -0.119 NA
ATOM     25  C   UNL d   1     -40.537  14.571  19.289  0.00  0.00     0.296 C 
ATOM     26  O   UNL d   1     -39.964  13.984  19.200  0.00  0.00    -0.264 OA
BRANCH  25  27
ATOM     27  C   UNL d   1     -40.887  14.908  18.618  0.00  0.00     0.064 C 
BRANCH  27  28
ATOM     28  C   UNL d   1     -40.442  15.025  17.950  0.00  0.00     0.005 A 
ATOM     29  C   UNL d   1     -40.240  15.794  17.729  0.00  0.00     0.000 A 
ATOM     30  C   UNL d   1     -39.787  15.914  17.049  0.00  0.00     0.000 A 
ATOM     31  C   UNL d   1     -39.543  15.280  16.602  0.00  0.00     0.000 A 
ATOM     32  C   UNL d   1     -39.752  14.511  16.832  0.00  0.00     0.000 A 
ATOM     33  C   UNL d   1     -40.198  14.392  17.503  0.00  0.00     0.000 A 
ENDBRANCH  27  28
ENDBRANCH  25  27
ENDBRANCH   1  24
TORSDOF 8
ENDMDL
