MODEL 1
REMARK VINA RESULT:      -3.2      0.000      0.000
REMARK  5 active torsions:
REMARK  status: ('A' for Active; 'I' for Inactive)
REMARK       I    between atoms: C_2  and  N_1 
REMARK    1  A    between atoms: C_4  and  N_1 
REMARK    2  A    between atoms: C_14  and  C_2 
REMARK       I    between atoms: C_3  and  N_6 
REMARK    3  A    between atoms: C_5  and  C_3 
REMARK    4  A    between atoms: N_8  and  C_4 
REMARK    5  A    between atoms: N_6  and  N_8 
ROOT
ATOM      1  C   UNL d   1      32.859  18.826 -23.144  0.00  0.00     0.243 C 
ATOM      2  S   UNL d   1      33.227  19.069 -23.833  0.00  0.00    -0.035 SA
ENDROOT
BRANCH   1   3
ATOM      3  N   UNL d   1      32.286  18.230 -23.165  0.00  0.00    -0.177 NA
ATOM      4  C   UNL d   1      32.354  17.615 -23.711  0.00  0.00     0.281 C 
ATOM      5  O   UNL d   1      32.995  17.598 -24.236  0.00  0.00    -0.265 OA
BRANCH   4   6
ATOM      6  C   UNL d   1      31.784  17.024 -23.730  0.00  0.00     0.058 A 
ATOM      7  C   UNL d   1      31.144  17.085 -24.237  0.00  0.00     0.005 A 
ATOM      8  C   UNL d   1      30.571  16.493 -24.258  0.00  0.00     0.000 A 
ATOM      9  C   UNL d   1      30.646  15.837 -23.765  0.00  0.00     0.000 A 
ATOM     10  C   UNL d   1      31.296  15.773 -23.250  0.00  0.00     0.000 A 
ATOM     11  C   UNL d   1      31.865  16.370 -23.234  0.00  0.00     0.005 A 
ENDBRANCH   4   6
ENDBRANCH   1   3
BRANCH   1  12
ATOM     12  N   UNL d   1      33.060  19.177 -22.425  0.00  0.00    -0.114 NA
BRANCH  12  13
ATOM     13  N   UNL d   1      32.867  19.963 -22.275  0.00  0.00    -0.103 NA
ATOM     14  C   UNL d   1      32.957  20.279 -21.519  0.00  0.00     0.303 C 
ATOM     15  O   UNL d   1      33.241  19.809 -20.913  0.00  0.00    -0.263 OA
BRANCH  14  16
ATOM     16  C   UNL d   1      32.762  21.065 -21.381  0.00  0.00     0.089 A 
ATOM     17  S   UNL d   1      32.150  21.343 -20.840  0.00  0.00    -0.082 SA
ATOM     18  C   UNL d   1      32.138  22.214 -20.873  0.00  0.00     0.036 A 
ATOM     19  C   UNL d   1      32.743  22.465 -21.434  0.00  0.00     0.008 A 
ATOM     20  C   UNL d   1      33.128  21.763 -21.748  0.00  0.00     0.012 A 
ENDBRANCH  14  16
ENDBRANCH  12  13
ENDBRANCH   1  12
TORSDOF 5
ENDMDL
MODEL 2
REMARK VINA RESULT:      -2.9      1.491      2.324
REMARK  5 active torsions:
REMARK  status: ('A' for Active; 'I' for Inactive)
REMARK       I    between atoms: C_2  and  N_1 
REMARK    1  A    between atoms: C_4  and  N_1 
REMARK    2  A    between atoms: C_14  and  C_2 
REMARK       I    between atoms: C_3  and  N_6 
REMARK    3  A    between atoms: C_5  and  C_3 
REMARK    4  A    between atoms: N_8  and  C_4 
REMARK    5  A    between atoms: N_6  and  N_8 
ROOT
ATOM      1  C   UNL d   1      32.164  16.778 -23.531  0.00  0.00     0.243 C 
ATOM      2  S   UNL d   1      32.678  16.158 -23.388  0.00  0.00    -0.035 SA
ENDROOT
BRANCH   1   3
ATOM      3  N   UNL d   1      31.346  16.666 -23.466  0.00  0.00    -0.177 NA
ATOM      4  C   UNL d   1      30.992  16.017 -23.829  0.00  0.00     0.281 C 
ATOM      5  O   UNL d   1      31.455  15.479 -24.258  0.00  0.00    -0.265 OA
BRANCH   4   6
ATOM      6  C   UNL d   1      30.180  15.907 -23.764  0.00  0.00     0.058 A 
ATOM      7  C   UNL d   1      29.687  16.099 -24.389  0.00  0.00     0.005 A 
ATOM      8  C   UNL d   1      28.872  15.990 -24.326  0.00  0.00     0.000 A 
ATOM      9  C   UNL d   1      28.556  15.685 -23.628  0.00  0.00     0.000 A 
ATOM     10  C   UNL d   1      29.056  15.489 -22.993  0.00  0.00     0.000 A 
ATOM     11  C   UNL d   1      29.870  15.601 -23.063  0.00  0.00     0.005 A 
ENDBRANCH   4   6
ENDBRANCH   1   3
BRANCH   1  12
ATOM     12  N   UNL d   1      32.460  17.518 -23.740  0.00  0.00    -0.114 NA
BRANCH  12  13
ATOM     13  N   UNL d   1      32.601  18.090 -23.165  0.00  0.00    -0.103 NA
ATOM     14  C   UNL d   1      32.880  18.837 -23.376  0.00  0.00     0.303 C 
ATOM     15  O   UNL d   1      33.018  19.011 -24.163  0.00  0.00    -0.263 OA
BRANCH  14  16
ATOM     16  C   UNL d   1      33.017  19.399 -22.794  0.00  0.00     0.089 A 
ATOM     17  S   UNL d   1      33.098  20.249 -22.924  0.00  0.00    -0.082 SA
ATOM     18  C   UNL d   1      33.237  20.627 -22.151  0.00  0.00     0.036 A 
ATOM     19  C   UNL d   1      33.241  20.007 -21.551  0.00  0.00     0.008 A 
ATOM     20  C   UNL d   1      33.106  19.253 -21.941  0.00  0.00     0.012 A 
ENDBRANCH  14  16
ENDBRANCH  12  13
ENDBRANCH   1  12
TORSDOF 5
ENDMDL
MODEL 3
REMARK VINA RESULT:      -2.6      1.018      5.042
REMARK  5 active torsions:
REMARK  status: ('A' for Active; 'I' for Inactive)
REMARK       I    between atoms: C_2  and  N_1 
REMARK    1  A    between atoms: C_4  and  N_1 
REMARK    2  A    between atoms: C_14  and  C_2 
REMARK       I    between atoms: C_3  and  N_6 
REMARK    3  A    between atoms: C_5  and  C_3 
REMARK    4  A    between atoms: N_8  and  C_4 
REMARK    5  A    between atoms: N_6  and  N_8 
ROOT
ATOM      1  C   UNL d   1      33.068  19.612 -22.276  0.00  0.00     0.243 C 
ATOM      2  S   UNL d   1      33.241  19.203 -21.589  0.00  0.00    -0.035 SA
ENDROOT
BRANCH   1   3
ATOM      3  N   UNL d   1      32.868  20.414 -22.246  0.00  0.00    -0.177 NA
ATOM      4  C   UNL d   1      32.954  20.832 -21.540  0.00  0.00     0.281 C 
ATOM      5  O   UNL d   1      33.241  20.446 -20.864  0.00  0.00    -0.265 OA
BRANCH   4   6
ATOM      6  C   UNL d   1      32.755  21.628 -21.512  0.00  0.00     0.058 A 
ATOM      7  C   UNL d   1      32.211  21.897 -20.962  0.00  0.00     0.005 A 
ATOM      8  C   UNL d   1      32.009  22.696 -20.932  0.00  0.00     0.000 A 
ATOM      9  C   UNL d   1      32.360  23.224 -21.459  0.00  0.00     0.000 A 
ATOM     10  C   UNL d   1      32.913  22.952 -22.017  0.00  0.00     0.000 A 
ATOM     11  C   UNL d   1      33.110  22.151 -22.042  0.00  0.00     0.005 A 
ENDBRANCH   4   6
ENDBRANCH   1   3
BRANCH   1  12
ATOM     12  N   UNL d   1      33.093  19.222 -23.002  0.00  0.00    -0.114 NA
BRANCH  12  13
ATOM     13  N   UNL d   1      32.559  18.619 -23.172  0.00  0.00    -0.103 NA
ATOM     14  C   UNL d   1      32.558  18.258 -23.913  0.00  0.00     0.303 C 
ATOM     15  O   UNL d   1      33.090  18.499 -24.484  0.00  0.00    -0.263 OA
BRANCH  14  16
ATOM     16  C   UNL d   1      32.021  17.657 -24.071  0.00  0.00     0.089 A 
ATOM     17  S   UNL d   1      32.175  16.811 -23.997  0.00  0.00    -0.082 SA
ATOM     18  C   UNL d   1      31.449  16.384 -24.222  0.00  0.00     0.036 A 
ATOM     19  C   UNL d   1      30.853  16.971 -24.433  0.00  0.00     0.008 A 
ATOM     20  C   UNL d   1      31.199  17.752 -24.342  0.00  0.00     0.012 A 
ENDBRANCH  14  16
ENDBRANCH  12  13
ENDBRANCH   1  12
TORSDOF 5
ENDMDL
MODEL 4
REMARK VINA RESULT:      -2.1      1.238      4.973
REMARK  5 active torsions:
REMARK  status: ('A' for Active; 'I' for Inactive)
REMARK       I    between atoms: C_2  and  N_1 
REMARK    1  A    between atoms: C_4  and  N_1 
REMARK    2  A    between atoms: C_14  and  C_2 
REMARK       I    between atoms: C_3  and  N_6 
REMARK    3  A    between atoms: C_5  and  C_3 
REMARK    4  A    between atoms: N_8  and  C_4 
REMARK    5  A    between atoms: N_6  and  N_8 
ROOT
ATOM      1  C   UNL d   1      32.920  18.861 -23.166  0.00  0.00     0.243 C 
ATOM      2  S   UNL d   1      32.930  19.209 -23.906  0.00  0.00    -0.035 SA
ENDROOT
BRANCH   1   3
ATOM      3  N   UNL d   1      32.921  19.328 -22.484  0.00  0.00    -0.177 NA
ATOM      4  C   UNL d   1      33.079  20.136 -22.540  0.00  0.00     0.281 C 
ATOM      5  O   UNL d   1      33.235  20.475 -23.280  0.00  0.00    -0.265 OA
BRANCH   4   6
ATOM      6  C   UNL d   1      33.079  20.599 -21.862  0.00  0.00     0.058 A 
ATOM      7  C   UNL d   1      33.239  20.261 -21.133  0.00  0.00     0.005 A 
ATOM      8  C   UNL d   1      33.241  20.724 -20.450  0.00  0.00     0.000 A 
ATOM      9  C   UNL d   1      33.080  21.530 -20.506  0.00  0.00     0.000 A 
ATOM     10  C   UNL d   1      32.918  21.874 -21.245  0.00  0.00     0.000 A 
ATOM     11  C   UNL d   1      32.918  21.406 -21.924  0.00  0.00     0.005 A 
ENDBRANCH   4   6
ENDBRANCH   1   3
BRANCH   1  12
ATOM     12  N   UNL d   1      32.909  18.039 -23.100  0.00  0.00    -0.114 NA
BRANCH  12  13
ATOM     13  N   UNL d   1      32.337  17.595 -23.491  0.00  0.00    -0.103 NA
ATOM     14  C   UNL d   1      32.343  16.772 -23.447  0.00  0.00     0.303 C 
ATOM     15  O   UNL d   1      32.921  16.392 -23.012  0.00  0.00    -0.263 OA
BRANCH  14  16
ATOM     16  C   UNL d   1      31.766  16.340 -23.841  0.00  0.00     0.089 A 
ATOM     17  S   UNL d   1      31.841  16.008 -24.634  0.00  0.00    -0.082 SA
ATOM     18  C   UNL d   1      31.097  15.596 -24.825  0.00  0.00     0.036 A 
ATOM     19  C   UNL d   1      30.570  15.678 -24.147  0.00  0.00     0.008 A 
ATOM     20  C   UNL d   1      30.976  16.133 -23.542  0.00  0.00     0.012 A 
ENDBRANCH  14  16
ENDBRANCH  12  13
ENDBRANCH   1  12
TORSDOF 5
ENDMDL
MODEL 5
REMARK VINA RESULT:      -1.8      1.436      5.155
REMARK  5 active torsions:
REMARK  status: ('A' for Active; 'I' for Inactive)
REMARK       I    between atoms: C_2  and  N_1 
REMARK    1  A    between atoms: C_4  and  N_1 
REMARK    2  A    between atoms: C_14  and  C_2 
REMARK       I    between atoms: C_3  and  N_6 
REMARK    3  A    between atoms: C_5  and  C_3 
REMARK    4  A    between atoms: N_8  and  C_4 
REMARK    5  A    between atoms: N_6  and  N_8 
ROOT
ATOM      1  C   UNL d   1      33.153  20.666 -22.721  0.00  0.00     0.243 C 
ATOM      2  S   UNL d   1      33.241  21.026 -23.450  0.00  0.00    -0.035 SA
ENDROOT
BRANCH   1   3
ATOM      3  N   UNL d   1      32.978  21.118 -22.050  0.00  0.00    -0.177 NA
ATOM      4  C   UNL d   1      32.959  21.941 -22.104  0.00  0.00     0.281 C 
ATOM      5  O   UNL d   1      33.115  22.311 -22.829  0.00  0.00    -0.265 OA
BRANCH   4   6
ATOM      6  C   UNL d   1      32.785  22.388 -21.437  0.00  0.00     0.058 A 
ATOM      7  C   UNL d   1      32.405  23.110 -21.513  0.00  0.00     0.005 A 
ATOM      8  C   UNL d   1      32.230  23.560 -20.845  0.00  0.00     0.000 A 
ATOM      9  C   UNL d   1      32.440  23.279 -20.099  0.00  0.00     0.000 A 
ATOM     10  C   UNL d   1      32.825  22.547 -20.021  0.00  0.00     0.000 A 
ATOM     11  C   UNL d   1      32.998  22.102 -20.693  0.00  0.00     0.005 A 
ENDBRANCH   4   6
ENDBRANCH   1   3
BRANCH   1  12
ATOM     12  N   UNL d   1      33.239  19.849 -22.654  0.00  0.00    -0.114 NA
BRANCH  12  13
ATOM     13  N   UNL d   1      32.924  19.347 -23.224  0.00  0.00    -0.103 NA
ATOM     14  C   UNL d   1      32.924  18.530 -23.110  0.00  0.00     0.303 C 
ATOM     15  O   UNL d   1      33.241  18.216 -22.424  0.00  0.00    -0.263 OA
BRANCH  14  16
ATOM     16  C   UNL d   1      32.607  18.039 -23.686  0.00  0.00     0.089 A 
ATOM     17  S   UNL d   1      33.046  17.462 -24.153  0.00  0.00    -0.082 SA
ATOM     18  C   UNL d   1      32.485  17.069 -24.692  0.00  0.00     0.036 A 
ATOM     19  C   UNL d   1      31.704  17.407 -24.552  0.00  0.00     0.008 A 
ATOM     20  C   UNL d   1      31.774  18.002 -23.936  0.00  0.00     0.012 A 
ENDBRANCH  14  16
ENDBRANCH  12  13
ENDBRANCH   1  12
TORSDOF 5
ENDMDL
