MODEL 1
REMARK VINA RESULT:      -8.7      0.000      0.000
REMARK  6 active torsions:
REMARK  status: ('A' for Active; 'I' for Inactive)
REMARK    1  A    between atoms: C_3  and  N_1 
REMARK       I    between atoms: C_2  and  N_10 
REMARK    2  A    between atoms: C_9  and  C_2 
REMARK    3  A    between atoms: C_15  and  N_4 
REMARK    4  A    between atoms: O_14  and  C_8 
REMARK    5  A    between atoms: N_10  and  C_13 
REMARK    6  A    between atoms: C_13  and  C_15 
ROOT
ATOM      1  N   UNL d   1      52.156  33.501  53.328  0.00  0.00    -0.300 N 
ATOM      2  N   UNL d   1      50.712  34.076  52.776  0.00  0.00    -0.299 N 
ATOM      3  C   UNL d   1      51.456  33.276  53.695  0.00  0.00     0.100 A 
ATOM      4  C   UNL d   1      52.135  34.017  52.679  0.00  0.00     0.100 A 
ATOM      5  C   UNL d   1      50.737  33.563  53.420  0.00  0.00     0.100 A 
ATOM      6  C   UNL d   1      51.419  34.302  52.405  0.00  0.00     0.100 A 
ENDROOT
BRANCH   2   7
ATOM      7  C   UNL d   1      49.992  34.362  52.500  0.00  0.00     0.101 C 
BRANCH   7   8
ATOM      8  C   UNL d   1      49.595  34.960  52.908  0.00  0.00     0.121 C 
BRANCH   8   9
ATOM      9  N   UNL d   1      48.835  35.167  52.702  0.00  0.00    -0.205 NA
ATOM     10  C   UNL d   1      48.465  35.797  53.076  0.00  0.00     0.279 C 
ATOM     11  O   UNL d   1      48.855  36.221  53.655  0.00  0.00    -0.265 OA
BRANCH  10  12
ATOM     12  C   UNL d   1      47.686  36.010  52.864  0.00  0.00     0.058 A 
ATOM     13  C   UNL d   1      47.492  36.109  52.101  0.00  0.00     0.005 A 
ATOM     14  C   UNL d   1      46.713  36.321  51.890  0.00  0.00     0.000 A 
ATOM     15  C   UNL d   1      46.144  36.428  52.473  0.00  0.00     0.000 A 
ATOM     16  C   UNL d   1      46.359  36.320  53.276  0.00  0.00     0.000 A 
ATOM     17  C   UNL d   1      47.118  36.114  53.472  0.00  0.00     0.005 A 
ENDBRANCH  10  12
ENDBRANCH   8   9
ENDBRANCH   7   8
ENDBRANCH   2   7
BRANCH   1  18
ATOM     18  C   UNL d   1      52.876  33.214  53.603  0.00  0.00     0.086 A 
ATOM     19  C   UNL d   1      53.124  32.450  53.413  0.00  0.00     0.110 A 
ATOM     20  C   UNL d   1      53.847  32.162  53.689  0.00  0.00     0.026 A 
ATOM     21  C   UNL d   1      54.316  32.640  54.154  0.00  0.00     0.002 A 
ATOM     22  C   UNL d   1      54.077  33.407  54.350  0.00  0.00     0.002 A 
ATOM     23  C   UNL d   1      53.364  33.691  54.078  0.00  0.00     0.019 A 
BRANCH  19  24
ATOM     24  O   UNL d   1      52.635  31.968  52.935  0.00  0.00    -0.327 OA
ATOM     25  C   UNL d   1      52.851  31.180  52.807  0.00  0.00     0.181 C 
ENDBRANCH  19  24
ENDBRANCH   1  18
TORSDOF 6
ENDMDL
MODEL 2
REMARK VINA RESULT:      -6.4      1.084      5.955
REMARK  6 active torsions:
REMARK  status: ('A' for Active; 'I' for Inactive)
REMARK    1  A    between atoms: C_3  and  N_1 
REMARK       I    between atoms: C_2  and  N_10 
REMARK    2  A    between atoms: C_9  and  C_2 
REMARK    3  A    between atoms: C_15  and  N_4 
REMARK    4  A    between atoms: O_14  and  C_8 
REMARK    5  A    between atoms: N_10  and  C_13 
REMARK    6  A    between atoms: C_13  and  C_15 
ROOT
ATOM      1  N   UNL d   1      48.861  35.036  52.182  0.00  0.00    -0.300 N 
ATOM      2  N   UNL d   1      50.311  34.288  52.421  0.00  0.00    -0.299 N 
ATOM      3  C   UNL d   1      49.108  34.851  52.944  0.00  0.00     0.100 A 
ATOM      4  C   UNL d   1      49.341  34.846  51.534  0.00  0.00     0.100 A 
ATOM      5  C   UNL d   1      49.830  34.478  53.062  0.00  0.00     0.100 A 
ATOM      6  C   UNL d   1      50.060  34.475  51.652  0.00  0.00     0.100 A 
ENDROOT
BRANCH   2   7
ATOM      7  C   UNL d   1      51.033  33.914  52.539  0.00  0.00     0.101 C 
BRANCH   7   8
ATOM      8  C   UNL d   1      51.647  34.303  52.931  0.00  0.00     0.121 C 
BRANCH   8   9
ATOM      9  N   UNL d   1      52.230  33.880  53.311  0.00  0.00    -0.205 NA
ATOM     10  C   UNL d   1      52.902  34.262  53.587  0.00  0.00     0.279 C 
ATOM     11  O   UNL d   1      52.990  35.067  53.485  0.00  0.00    -0.265 OA
BRANCH  10  12
ATOM     12  C   UNL d   1      53.499  33.828  53.976  0.00  0.00     0.058 A 
ATOM     13  C   UNL d   1      53.892  33.256  53.591  0.00  0.00     0.005 A 
ATOM     14  C   UNL d   1      54.490  32.821  53.980  0.00  0.00     0.000 A 
ATOM     15  C   UNL d   1      54.673  32.985  54.764  0.00  0.00     0.000 A 
ATOM     16  C   UNL d   1      54.252  33.592  55.161  0.00  0.00     0.000 A 
ATOM     17  C   UNL d   1      53.673  34.009  54.776  0.00  0.00     0.005 A 
ENDBRANCH  10  12
ENDBRANCH   8   9
ENDBRANCH   7   8
ENDBRANCH   2   7
BRANCH   1  18
ATOM     18  C   UNL d   1      48.137  35.410  52.064  0.00  0.00     0.086 A 
ATOM     19  C   UNL d   1      47.879  36.000  52.580  0.00  0.00     0.110 A 
ATOM     20  C   UNL d   1      47.153  36.375  52.461  0.00  0.00     0.026 A 
ATOM     21  C   UNL d   1      46.691  36.156  51.826  0.00  0.00     0.002 A 
ATOM     22  C   UNL d   1      46.940  35.566  51.302  0.00  0.00     0.002 A 
ATOM     23  C   UNL d   1      47.655  35.197  51.420  0.00  0.00     0.019 A 
BRANCH  19  24
ATOM     24  O   UNL d   1      48.362  36.216  53.228  0.00  0.00    -0.327 OA
ATOM     25  C   UNL d   1      48.050  36.709  53.814  0.00  0.00     0.181 C 
ENDBRANCH  19  24
ENDBRANCH   1  18
TORSDOF 6
ENDMDL
MODEL 3
REMARK VINA RESULT:      -5.9      1.208      6.021
REMARK  6 active torsions:
REMARK  status: ('A' for Active; 'I' for Inactive)
REMARK    1  A    between atoms: C_3  and  N_1 
REMARK       I    between atoms: C_2  and  N_10 
REMARK    2  A    between atoms: C_9  and  C_2 
REMARK    3  A    between atoms: C_15  and  N_4 
REMARK    4  A    between atoms: O_14  and  C_8 
REMARK    5  A    between atoms: N_10  and  C_13 
REMARK    6  A    between atoms: C_13  and  C_15 
ROOT
ATOM      1  N   UNL d   1      49.835  34.417  52.349  0.00  0.00    -0.300 N 
ATOM      2  N   UNL d   1      51.176  33.798  53.082  0.00  0.00    -0.299 N 
ATOM      3  C   UNL d   1      49.762  33.797  52.882  0.00  0.00     0.100 A 
ATOM      4  C   UNL d   1      50.583  34.732  52.179  0.00  0.00     0.100 A 
ATOM      5  C   UNL d   1      50.430  33.489  53.248  0.00  0.00     0.100 A 
ATOM      6  C   UNL d   1      51.248  34.425  52.543  0.00  0.00     0.100 A 
ENDROOT
BRANCH   2   7
ATOM      7  C   UNL d   1      51.844  33.490  53.448  0.00  0.00     0.101 C 
BRANCH   7   8
ATOM      8  C   UNL d   1      52.333  32.957  53.049  0.00  0.00     0.121 C 
BRANCH   8   9
ATOM      9  N   UNL d   1      52.417  32.193  53.317  0.00  0.00    -0.205 NA
ATOM     10  C   UNL d   1      53.064  31.745  53.084  0.00  0.00     0.279 C 
ATOM     11  O   UNL d   1      53.627  32.062  52.584  0.00  0.00    -0.265 OA
BRANCH  10  12
ATOM     12  C   UNL d   1      53.151  30.961  53.358  0.00  0.00     0.058 A 
ATOM     13  C   UNL d   1      53.597  30.809  53.997  0.00  0.00     0.005 A 
ATOM     14  C   UNL d   1      53.683  30.025  54.271  0.00  0.00     0.000 A 
ATOM     15  C   UNL d   1      53.307  29.409  53.880  0.00  0.00     0.000 A 
ATOM     16  C   UNL d   1      52.838  29.581  53.206  0.00  0.00     0.000 A 
ATOM     17  C   UNL d   1      52.759  30.345  52.947  0.00  0.00     0.005 A 
ENDBRANCH  10  12
ENDBRANCH   8   9
ENDBRANCH   7   8
ENDBRANCH   2   7
BRANCH   1  18
ATOM     18  C   UNL d   1      49.166  34.726  51.982  0.00  0.00     0.086 A 
ATOM     19  C   UNL d   1      48.684  35.269  52.377  0.00  0.00     0.110 A 
ATOM     20  C   UNL d   1      48.012  35.579  52.009  0.00  0.00     0.026 A 
ATOM     21  C   UNL d   1      47.828  35.344  51.251  0.00  0.00     0.002 A 
ATOM     22  C   UNL d   1      48.304  34.801  50.847  0.00  0.00     0.002 A 
ATOM     23  C   UNL d   1      48.966  34.495  51.209  0.00  0.00     0.019 A 
BRANCH  19  24
ATOM     24  O   UNL d   1      48.883  35.502  53.154  0.00  0.00    -0.327 OA
ATOM     25  C   UNL d   1      48.389  36.034  53.552  0.00  0.00     0.181 C 
ENDBRANCH  19  24
ENDBRANCH   1  18
TORSDOF 6
ENDMDL
MODEL 4
REMARK VINA RESULT:      -5.8      1.544      6.491
REMARK  6 active torsions:
REMARK  status: ('A' for Active; 'I' for Inactive)
REMARK    1  A    between atoms: C_3  and  N_1 
REMARK       I    between atoms: C_2  and  N_10 
REMARK    2  A    between atoms: C_9  and  C_2 
REMARK    3  A    between atoms: C_15  and  N_4 
REMARK    4  A    between atoms: O_14  and  C_8 
REMARK    5  A    between atoms: N_10  and  C_13 
REMARK    6  A    between atoms: C_13  and  C_15 
ROOT
ATOM      1  N   UNL d   1      46.614  35.820  52.058  0.00  0.00    -0.300 N 
ATOM      2  N   UNL d   1      48.150  35.628  52.625  0.00  0.00    -0.299 N 
ATOM      3  C   UNL d   1      47.087  35.216  51.766  0.00  0.00     0.100 A 
ATOM      4  C   UNL d   1      46.909  36.333  52.639  0.00  0.00     0.100 A 
ATOM      5  C   UNL d   1      47.853  35.120  52.049  0.00  0.00     0.100 A 
ATOM      6  C   UNL d   1      47.671  36.238  52.920  0.00  0.00     0.100 A 
ENDROOT
BRANCH   2   7
ATOM      7  C   UNL d   1      48.916  35.532  52.908  0.00  0.00     0.101 C 
BRANCH   7   8
ATOM      8  C   UNL d   1      49.409  34.948  52.596  0.00  0.00     0.121 C 
BRANCH   8   9
ATOM      9  N   UNL d   1      50.102  34.747  52.972  0.00  0.00    -0.205 NA
ATOM     10  C   UNL d   1      50.689  34.343  52.565  0.00  0.00     0.279 C 
ATOM     11  O   UNL d   1      50.582  34.141  51.781  0.00  0.00    -0.265 OA
BRANCH  10  12
ATOM     12  C   UNL d   1      51.400  34.136  52.951  0.00  0.00     0.058 A 
ATOM     13  C   UNL d   1      51.470  33.431  53.308  0.00  0.00     0.005 A 
ATOM     14  C   UNL d   1      52.180  33.224  53.694  0.00  0.00     0.000 A 
ATOM     15  C   UNL d   1      52.810  33.751  53.706  0.00  0.00     0.000 A 
ATOM     16  C   UNL d   1      52.725  34.494  53.325  0.00  0.00     0.000 A 
ATOM     17  C   UNL d   1      52.032  34.687  52.953  0.00  0.00     0.005 A 
ENDBRANCH  10  12
ENDBRANCH   8   9
ENDBRANCH   7   8
ENDBRANCH   2   7
BRANCH   1  18
ATOM     18  C   UNL d   1      45.847  35.915  51.775  0.00  0.00     0.086 A 
ATOM     19  C   UNL d   1      45.200  35.656  52.218  0.00  0.00     0.110 A 
ATOM     20  C   UNL d   1      44.430  35.753  51.934  0.00  0.00     0.026 A 
ATOM     21  C   UNL d   1      44.314  36.107  51.209  0.00  0.00     0.002 A 
ATOM     22  C   UNL d   1      44.955  36.370  50.757  0.00  0.00     0.002 A 
ATOM     23  C   UNL d   1      45.713  36.275  51.037  0.00  0.00     0.019 A 
BRANCH  19  24
ATOM     24  O   UNL d   1      45.332  35.295  52.961  0.00  0.00    -0.327 OA
ATOM     25  C   UNL d   1      44.681  35.049  53.408  0.00  0.00     0.181 C 
ENDBRANCH  19  24
ENDBRANCH   1  18
TORSDOF 6
ENDMDL
