MODEL 1
REMARK VINA RESULT:       1.2      0.000      0.000
REMARK  5 active torsions:
REMARK  status: ('A' for Active; 'I' for Inactive)
REMARK    1  A    between atoms: N_12  and  C_5 
REMARK    2  A    between atoms: C_21  and  N_9 
REMARK    3  A    between atoms: C_10  and  S_20 
REMARK    4  A    between atoms: S_20  and  C_26 
REMARK    5  A    between atoms: C_26  and  C_21 
ROOT
ATOM      1  C   UNL d   1      59.752  -3.646  28.712  0.00  0.00     0.191 A 
ATOM      2  C   UNL d   1      58.986  -3.362  28.780  0.00  0.00     0.173 A 
ATOM      3  N   UNL d   1      60.269  -3.007  28.773  0.00  0.00    -0.042 NA
ATOM      4  N   UNL d   1      59.884  -4.450  28.605  0.00  0.00    -0.240 N 
ATOM      5  C   UNL d   1      59.815  -2.329  28.877  0.00  0.00     0.722 A 
ATOM      6  N   UNL d   1      58.481  -4.691  28.631  0.00  0.00    -0.223 N 
ATOM      7  C   UNL d   1      59.248  -4.975  28.564  0.00  0.00     0.343 A 
ATOM      8  C   UNL d   1      58.348  -3.881  28.740  0.00  0.00     0.288 A 
ATOM      9  N   UNL d   1      59.018  -2.544  28.882  0.00  0.00    -0.132 N 
ATOM     10  O   UNL d   1      59.388  -5.790  28.455  0.00  0.00    -0.245 OA
ATOM     11  O   UNL d   1      57.573  -3.595  28.808  0.00  0.00    -0.265 OA
ATOM     12  C   UNL d   1      60.651  -4.733  28.538  0.00  0.00     0.105 C 
ATOM     13  C   UNL d   1      57.847  -5.211  28.591  0.00  0.00     0.107 C 
ENDROOT
BRANCH   9  14
ATOM     14  C   UNL d   1      58.377  -2.034  28.973  0.00  0.00     0.105 C 
BRANCH  14  15
ATOM     15  C   UNL d   1      58.105  -1.835  29.732  0.00  0.00     0.057 C 
BRANCH  15  16
ATOM     16  S   UNL d   1      57.502  -1.267  29.815  0.00  0.00    -0.059 SA
BRANCH  16  17
ATOM     17  C   UNL d   1      57.358  -0.928  30.564  0.00  0.00     0.141 A 
ATOM     18  N   UNL d   1      56.907  -1.332  31.114  0.00  0.00    -0.232 NA
ATOM     19  C   UNL d   1      56.858  -0.876  31.787  0.00  0.00     0.088 A 
ATOM     20  C   UNL d   1      56.475  -1.011  32.509  0.00  0.00     0.020 A 
ATOM     21  C   UNL d   1      57.272  -0.190  31.667  0.00  0.00     0.049 A 
ATOM     22  C   UNL d   1      56.517  -0.441  33.110  0.00  0.00     0.002 A 
ATOM     23  C   UNL d   1      56.933   0.245  32.987  0.00  0.00     0.001 A 
ATOM     24  C   UNL d   1      57.315   0.375  32.261  0.00  0.00     0.008 A 
ATOM     25  S   UNL d   1      57.592  -0.220  30.890  0.00  0.00    -0.060 SA
ENDBRANCH  16  17
ENDBRANCH  15  16
ENDBRANCH  14  15
ENDBRANCH   9  14
BRANCH   5  26
ATOM     26  N   UNL d   1      60.147  -1.582  28.959  0.00  0.00    -0.139 N 
ATOM     27  C   UNL d   1      60.781  -1.460  29.460  0.00  0.00     0.098 A 
ATOM     28  C   UNL d   1      61.117  -0.702  29.542  0.00  0.00     0.020 A 
ATOM     29  C   UNL d   1      60.799  -0.069  29.107  0.00  0.00     0.003 A 
ATOM     30  C   UNL d   1      60.164  -0.194  28.606  0.00  0.00     0.020 A 
ATOM     31  C   UNL d   1      61.132   0.682  29.189  0.00  0.00     0.000 C 
ATOM     32  C   UNL d   1      59.838  -0.949  28.532  0.00  0.00     0.098 A 
ENDBRANCH   5  26
TORSDOF 5
ENDMDL
MODEL 2
REMARK VINA RESULT:       3.8      1.763      4.713
REMARK  5 active torsions:
REMARK  status: ('A' for Active; 'I' for Inactive)
REMARK    1  A    between atoms: N_12  and  C_5 
REMARK    2  A    between atoms: C_21  and  N_9 
REMARK    3  A    between atoms: C_10  and  S_20 
REMARK    4  A    between atoms: S_20  and  C_26 
REMARK    5  A    between atoms: C_26  and  C_21 
ROOT
ATOM      1  C   UNL d   1      57.592  -0.106  32.267  0.00  0.00     0.191 A 
ATOM      2  C   UNL d   1      57.252  -0.536  31.657  0.00  0.00     0.173 A 
ATOM      3  N   UNL d   1      58.316   0.186  32.003  0.00  0.00    -0.042 NA
ATOM      4  N   UNL d   1      57.201  -0.035  32.986  0.00  0.00    -0.240 N 
ATOM      5  C   UNL d   1      58.418  -0.068  31.227  0.00  0.00     0.722 A 
ATOM      6  N   UNL d   1      56.126  -0.823  32.489  0.00  0.00    -0.223 N 
ATOM      7  C   UNL d   1      56.466  -0.393  33.099  0.00  0.00     0.343 A 
ATOM      8  C   UNL d   1      56.519  -0.896  31.764  0.00  0.00     0.288 A 
ATOM      9  N   UNL d   1      57.761  -0.516  31.008  0.00  0.00    -0.132 N 
ATOM     10  O   UNL d   1      56.074  -0.317  33.831  0.00  0.00    -0.245 OA
ATOM     11  O   UNL d   1      56.175  -1.331  31.148  0.00  0.00    -0.265 OA
ATOM     12  C   UNL d   1      57.542   0.395  33.596  0.00  0.00     0.105 C 
ATOM     13  C   UNL d   1      55.394  -1.181  32.598  0.00  0.00     0.107 C 
ENDROOT
BRANCH   9  14
ATOM     14  C   UNL d   1      57.638  -0.875  30.276  0.00  0.00     0.105 C 
BRANCH  14  15
ATOM     15  C   UNL d   1      57.865  -1.664  30.154  0.00  0.00     0.057 C 
BRANCH  15  16
ATOM     16  S   UNL d   1      57.874  -1.973  29.380  0.00  0.00    -0.059 SA
BRANCH  16  17
ATOM     17  C   UNL d   1      58.455  -2.534  29.170  0.00  0.00     0.141 A 
ATOM     18  N   UNL d   1      58.254  -3.323  29.105  0.00  0.00    -0.232 NA
ATOM     19  C   UNL d   1      58.921  -3.741  28.895  0.00  0.00     0.088 A 
ATOM     20  C   UNL d   1      59.038  -4.549  28.755  0.00  0.00     0.020 A 
ATOM     21  C   UNL d   1      59.541  -3.222  28.827  0.00  0.00     0.049 A 
ATOM     22  C   UNL d   1      59.790  -4.827  28.545  0.00  0.00     0.002 A 
ATOM     23  C   UNL d   1      60.408  -4.304  28.479  0.00  0.00     0.001 A 
ATOM     24  C   UNL d   1      60.286  -3.495  28.620  0.00  0.00     0.008 A 
ATOM     25  S   UNL d   1      59.248  -2.454  29.001  0.00  0.00    -0.060 SA
ENDBRANCH  16  17
ENDBRANCH  15  16
ENDBRANCH  14  15
ENDBRANCH   9  14
BRANCH   5  26
ATOM     26  N   UNL d   1      59.083   0.121  30.783  0.00  0.00    -0.139 N 
ATOM     27  C   UNL d   1      59.009   0.484  30.055  0.00  0.00     0.098 A 
ATOM     28  C   UNL d   1      59.683   0.675  29.605  0.00  0.00     0.020 A 
ATOM     29  C   UNL d   1      60.436   0.491  29.907  0.00  0.00     0.003 A 
ATOM     30  C   UNL d   1      60.508   0.127  30.637  0.00  0.00     0.020 A 
ATOM     31  C   UNL d   1      61.105   0.680  29.461  0.00  0.00     0.000 C 
ATOM     32  C   UNL d   1      59.832  -0.058  31.074  0.00  0.00     0.098 A 
ENDBRANCH   5  26
TORSDOF 5
ENDMDL
