MODEL 1
REMARK VINA RESULT:     119.3      0.000      0.000
REMARK  5 active torsions:
REMARK  status: ('A' for Active; 'I' for Inactive)
REMARK    1  A    between atoms: C_11  and  N_1 
REMARK    2  A    between atoms: S_8  and  C_4 
REMARK    3  A    between atoms: C_6  and  S_8 
REMARK    4  A    between atoms: C_9  and  C_7 
REMARK    5  A    between atoms: N_10  and  C_13 
ROOT
ATOM      1  N   UNL d   1      62.001  45.504  49.760  0.00  0.00    -0.241 N 
ATOM      2  C   UNL d   1      62.615  45.485  49.212  0.00  0.00     0.268 A 
ATOM      3  C   UNL d   1      61.777  44.741  49.922  0.00  0.00     0.273 A 
ATOM      4  C   UNL d   1      62.259  44.233  49.468  0.00  0.00     0.092 A 
ATOM      5  C   UNL d   1      62.770  44.705  49.036  0.00  0.00     0.072 A 
ATOM      6  O   UNL d   1      63.023  46.123  48.881  0.00  0.00    -0.267 OA
ATOM      7  O   UNL d   1      61.186  44.506  50.436  0.00  0.00    -0.266 OA
ENDROOT
BRANCH   1   8
ATOM      8  C   UNL d   1      61.689  46.205  50.072  0.00  0.00     0.070 A 
ATOM      9  C   UNL d   1      61.360  46.203  50.818  0.00  0.00     0.019 A 
ATOM     10  C   UNL d   1      61.042  46.916  51.135  0.00  0.00     0.019 A 
ATOM     11  C   UNL d   1      61.068  47.600  50.694  0.00  0.00     0.064 A 
ATOM     12  C   UNL d   1      61.408  47.601  49.924  0.00  0.00     0.019 A 
ATOM     13  C   UNL d   1      61.715  46.891  49.627  0.00  0.00     0.019 A 
BRANCH  11  14
ATOM     14  N   UNL d   1      60.757  48.287  51.011  0.00  0.00    -0.300 N 
ATOM     15  C   UNL d   1      61.093  48.628  51.703  0.00  0.00     0.107 A 
ATOM     16  C   UNL d   1      60.766  49.323  52.012  0.00  0.00     0.142 A 
ATOM     17  O   UNL d   1      60.121  49.693  51.661  0.00  0.00    -0.300 OA
ATOM     18  C   UNL d   1      59.785  49.353  50.970  0.00  0.00     0.142 A 
ATOM     19  C   UNL d   1      60.112  48.651  50.656  0.00  0.00     0.107 A 
ENDBRANCH  11  14
ENDBRANCH   1   8
BRANCH   4  20
ATOM     20  S   UNL d   1      62.242  43.408  49.443  0.00  0.00    -0.063 SA
BRANCH  20  21
ATOM     21  C   UNL d   1      62.547  42.955  50.064  0.00  0.00     0.117 A 
ATOM     22  C   UNL d   1      62.624  42.134  49.984  0.00  0.00     0.088 A 
ATOM     23  C   UNL d   1      62.927  41.695  50.601  0.00  0.00     0.010 A 
ATOM     24  C   UNL d   1      63.153  42.052  51.293  0.00  0.00     0.021 A 
ATOM     25  C   UNL d   1      63.083  42.861  51.386  0.00  0.00     0.100 A 
ATOM     26  N   UNL d   1      62.774  43.314  50.758  0.00  0.00    -0.237 NA
BRANCH  22  27
ATOM     27  C   UNL d   1      62.393  41.767  49.277  0.00  0.00     0.213 C 
ATOM     28  O   UNL d   1      62.792  41.091  49.025  0.00  0.00    -0.644 OA
ATOM     29  O   UNL d   1      61.768  42.080  48.834  0.00  0.00    -0.644 OA
ENDBRANCH  22  27
ENDBRANCH  20  21
ENDBRANCH   4  20
TORSDOF 5
ENDMDL
