MODEL 1
REMARK VINA RESULT:       4.2      0.000      0.000
REMARK  4 active torsions:
REMARK  status: ('A' for Active; 'I' for Inactive)
REMARK    1  A    between atoms: S_2  and  N_1 
REMARK    2  A    between atoms: N_6  and  S_2 
REMARK    3  A    between atoms: C_10  and  C_3 
REMARK    4  A    between atoms: C_11  and  C_10 
ROOT
ATOM      1  N   UNL d   1     -41.732-121.973 -51.604  0.00  0.00    -0.201 N 
ATOM      2  C   UNL d   1     -41.668-122.258 -52.390  0.00  0.00     0.158 A 
ATOM      3  N   UNL d   1     -41.444-121.621 -52.871  0.00  0.00    -0.226 NA
ATOM      4  C   UNL d   1     -41.548-121.172 -51.616  0.00  0.00     0.095 A 
ATOM      5  C   UNL d   1     -41.371-120.954 -52.393  0.00  0.00     0.100 A 
ATOM      6  C   UNL d   1     -41.521-120.614 -51.010  0.00  0.00     0.020 A 
ATOM      7  C   UNL d   1     -41.165-120.172 -52.559  0.00  0.00     0.021 A 
ATOM      8  C   UNL d   1     -41.316-119.833 -51.175  0.00  0.00     0.002 A 
ATOM      9  C   UNL d   1     -41.137-119.609 -51.953  0.00  0.00     0.002 A 
ENDROOT
BRANCH   1  10
ATOM     10  S   UNL d   1     -41.940-122.413 -50.950  0.00  0.00     0.338 S 
ATOM     11  O   UNL d   1     -41.149-122.481 -50.734  0.00  0.00    -0.181 OA
ATOM     12  O   UNL d   1     -42.733-122.347 -51.163  0.00  0.00    -0.181 OA
BRANCH  10  13
ATOM     13  N   UNL d   1     -42.162-122.856 -50.293  0.00  0.00    -0.216 N 
ATOM     14  C   UNL d   1     -41.587-123.230 -49.834  0.00  0.00     0.093 A 
ATOM     15  C   UNL d   1     -41.809-123.671 -49.180  0.00  0.00     0.020 A 
ATOM     16  C   UNL d   1     -42.596-123.746 -48.975  0.00  0.00     0.003 A 
ATOM     17  C   UNL d   1     -43.178-123.375 -49.428  0.00  0.00     0.020 A 
ATOM     18  C   UNL d   1     -42.957-122.926 -50.093  0.00  0.00     0.093 A 
ENDBRANCH  10  13
ENDBRANCH   1  10
BRANCH   2  19
ATOM     19  C   UNL d   1     -41.804-123.036 -52.636  0.00  0.00     0.038 C 
BRANCH  19  20
ATOM     20  C   UNL d   1     -41.785-123.216 -53.438  0.00  0.00     0.003 A 
ATOM     21  C   UNL d   1     -42.415-122.985 -53.922  0.00  0.00     0.000 A 
ATOM     22  C   UNL d   1     -42.397-123.164 -54.724  0.00  0.00     0.000 A 
ATOM     23  C   UNL d   1     -41.763-123.568 -55.045  0.00  0.00     0.000 A 
ATOM     24  C   UNL d   1     -41.130-123.800 -54.559  0.00  0.00     0.000 A 
ATOM     25  C   UNL d   1     -41.147-123.621 -53.753  0.00  0.00     0.000 A 
ENDBRANCH  19  20
ENDBRANCH   2  19
TORSDOF 4
ENDMDL
