MODEL 1
REMARK VINA RESULT:      74.1      0.000      0.000
REMARK  3 active torsions:
REMARK  status: ('A' for Active; 'I' for Inactive)
REMARK    1  A    between atoms: C_9  and  N_1 
REMARK       I    between atoms: C_8  and  N_2 
REMARK    2  A    between atoms: C_3  and  C_9 
REMARK    3  A    between atoms: C_13  and  C_8 
ROOT
ATOM      1  N   UNL d   1     -56.271 -99.867 -44.159  0.00  0.00    -0.193 N 
ATOM      2  C   UNL d   1     -55.451-100.679 -43.485  0.00  0.00     0.055 A 
ATOM      3  N   UNL d   1     -56.737-100.426 -43.742  0.00  0.00    -0.163 NA
ATOM      4  C   UNL d   1     -55.488-100.033 -43.994  0.00  0.00     0.089 A 
ATOM      5  C   UNL d   1     -56.563 -99.269 -44.641  0.00  0.00     0.303 C 
ATOM      6  C   UNL d   1     -56.220-100.922 -43.329  0.00  0.00     0.104 A 
ATOM      7  O   UNL d   1     -56.026 -98.757 -45.018  0.00  0.00    -0.263 OA
ATOM      8  C   UNL d   1     -54.842 -99.611 -44.295  0.00  0.00     0.021 C 
ATOM      9  C   UNL d   1     -56.448-101.554 -42.843  0.00  0.00     0.023 C 
ENDROOT
BRANCH   2  10
ATOM     10  C   UNL d   1     -54.754-101.023 -43.183  0.00  0.00     0.089 C 
BRANCH  10  11
ATOM     11  N   UNL d   1     -54.744-101.343 -42.421  0.00  0.00    -0.240 N 
ATOM     12  C   UNL d   1     -54.737-102.141 -42.237  0.00  0.00     0.267 A 
ATOM     13  C   UNL d   1     -54.729-102.202 -41.412  0.00  0.00     0.061 A 
ATOM     14  O   UNL d   1     -54.739-102.766 -42.777  0.00  0.00    -0.267 OA
ATOM     15  C   UNL d   1     -54.720-102.860 -40.918  0.00  0.00     0.005 A 
ATOM     16  C   UNL d   1     -54.730-101.450 -41.092  0.00  0.00     0.061 A 
ATOM     17  C   UNL d   1     -54.712-102.762 -40.100  0.00  0.00     0.000 A 
ATOM     18  C   UNL d   1     -54.714-102.003 -39.776  0.00  0.00     0.000 A 
ATOM     19  C   UNL d   1     -54.723-101.345 -40.271  0.00  0.00     0.005 A 
ATOM     20  C   UNL d   1     -54.740-100.907 -41.715  0.00  0.00     0.267 A 
ATOM     21  O   UNL d   1     -54.744-100.082 -41.644  0.00  0.00    -0.267 OA
ENDBRANCH  10  11
ENDBRANCH   2  10
BRANCH   5  22
ATOM     22  C   UNL d   1     -57.376 -99.183 -44.745  0.00  0.00     0.158 A 
ATOM     23  O   UNL d   1     -57.960 -99.459 -44.231  0.00  0.00    -0.300 OA
ATOM     24  C   UNL d   1     -58.692 -99.253 -44.550  0.00  0.00     0.123 A 
ATOM     25  C   UNL d   1     -58.565 -98.855 -45.251  0.00  0.00     0.029 A 
ATOM     26  C   UNL d   1     -57.746 -98.810 -45.375  0.00  0.00     0.032 A 
ENDBRANCH   5  22
TORSDOF 3
ENDMDL
