MODEL 1
REMARK VINA RESULT:      -6.1      0.000      0.000
REMARK  6 active torsions:
REMARK  status: ('A' for Active; 'I' for Inactive)
REMARK    1  A    between atoms: C_5  and  N_1 
REMARK    2  A    between atoms: C_2  and  C_4 
REMARK       I    between atoms: N_3  and  C_2 
REMARK    3  A    between atoms: C_7  and  N_3 
REMARK       I    between atoms: C_4  and  N_8 
REMARK    4  A    between atoms: C_10  and  C_5 
REMARK    5  A    between atoms: C_14  and  C_5 
REMARK    6  A    between atoms: N_8  and  C_10 
ROOT
ATOM      1  C   UNL d   1     -48.214  13.146  22.663  0.00  0.00     0.085 C 
ENDROOT
BRANCH   1   2
ATOM      2  N   UNL d   1     -48.643  13.848  22.836  0.00  0.00    -0.302 N 
ATOM      3  C   UNL d   1     -49.424  13.805  23.097  0.00  0.00     0.080 A 
ATOM      4  C   UNL d   1     -49.840  14.496  23.264  0.00  0.00     0.018 A 
ATOM      5  C   UNL d   1     -50.627  14.453  23.527  0.00  0.00     0.002 A 
ATOM      6  C   UNL d   1     -49.476  15.227  23.171  0.00  0.00     0.003 A 
ATOM      7  C   UNL d   1     -51.051  15.142  23.697  0.00  0.00     0.000 A 
ATOM      8  C   UNL d   1     -50.679  15.879  23.602  0.00  0.00     0.000 A 
ATOM      9  C   UNL d   1     -49.893  15.922  23.339  0.00  0.00     0.000 A 
ATOM     10  C   UNL d   1     -48.695  15.270  22.910  0.00  0.00     0.019 A 
ATOM     11  C   UNL d   1     -48.278  14.580  22.742  0.00  0.00     0.080 A 
ENDBRANCH   1   2
BRANCH   1  12
ATOM     12  C   UNL d   1     -47.509  12.984  23.061  0.00  0.00     0.120 C 
BRANCH  12  13
ATOM     13  N   UNL d   1     -46.784  13.145  22.705  0.00  0.00    -0.201 NA
ATOM     14  C   UNL d   1     -46.085  12.810  23.011  0.00  0.00     0.337 C 
ATOM     15  O   UNL d   1     -46.121  12.315  23.673  0.00  0.00    -0.260 OA
BRANCH  14  16
ATOM     16  C   UNL d   1     -45.361  12.971  22.656  0.00  0.00     0.337 C 
ATOM     17  N   UNL d   1     -44.872  12.348  22.407  0.00  0.00    -0.202 NA
ATOM     18  O   UNL d   1     -45.115  13.757  22.546  0.00  0.00    -0.260 OA
BRANCH  17  19
ATOM     19  C   UNL d   1     -44.142  12.515  22.049  0.00  0.00     0.112 A 
ATOM     20  C   UNL d   1     -43.513  11.988  22.136  0.00  0.00     0.160 A 
ATOM     21  C   UNL d   1     -42.792  12.145  21.787  0.00  0.00     0.061 A 
ATOM     22  F   UNL d   1     -43.608  11.284  22.585  0.00  0.00    -0.203 F 
ATOM     23  C   UNL d   1     -42.690  12.839  21.342  0.00  0.00     0.142 A 
ATOM     24  C   UNL d   1     -43.319  13.366  21.254  0.00  0.00     0.031 A 
ATOM     25  F   UNL d   1     -41.952  12.995  20.987  0.00  0.00    -0.204 F 
ATOM     26  C   UNL d   1     -44.050  13.199  21.613  0.00  0.00     0.024 A 
ENDBRANCH  17  19
ENDBRANCH  14  16
ENDBRANCH  12  13
ENDBRANCH   1  12
BRANCH   1  27
ATOM     27  C   UNL d   1     -48.501  12.624  22.097  0.00  0.00     0.037 A 
ATOM     28  C   UNL d   1     -48.494  12.836  21.301  0.00  0.00     0.100 A 
ATOM     29  N   UNL d   1     -48.781  12.314  20.734  0.00  0.00    -0.242 NA
ATOM     30  C   UNL d   1     -49.077  11.574  20.963  0.00  0.00     0.099 A 
ATOM     31  C   UNL d   1     -49.084  11.360  21.758  0.00  0.00     0.021 A 
ATOM     32  C   UNL d   1     -48.796  11.884  22.326  0.00  0.00     0.005 A 
ENDBRANCH   1  27
TORSDOF 6
ENDMDL
MODEL 2
REMARK VINA RESULT:      -5.7      3.345      7.635
REMARK  6 active torsions:
REMARK  status: ('A' for Active; 'I' for Inactive)
REMARK    1  A    between atoms: C_5  and  N_1 
REMARK    2  A    between atoms: C_2  and  C_4 
REMARK       I    between atoms: N_3  and  C_2 
REMARK    3  A    between atoms: C_7  and  N_3 
REMARK       I    between atoms: C_4  and  N_8 
REMARK    4  A    between atoms: C_10  and  C_5 
REMARK    5  A    between atoms: C_14  and  C_5 
REMARK    6  A    between atoms: N_8  and  C_10 
ROOT
ATOM      1  C   UNL d   1     -40.787  14.320  20.517  0.00  0.00     0.085 C 
ENDROOT
BRANCH   1   2
ATOM      2  N   UNL d   1     -40.266  14.530  21.142  0.00  0.00    -0.302 N 
ATOM      3  C   UNL d   1     -39.683  14.003  21.394  0.00  0.00     0.080 A 
ATOM      4  C   UNL d   1     -39.175  14.213  22.007  0.00  0.00     0.018 A 
ATOM      5  C   UNL d   1     -38.588  13.683  22.260  0.00  0.00     0.002 A 
ATOM      6  C   UNL d   1     -39.250  14.948  22.368  0.00  0.00     0.003 A 
ATOM      7  C   UNL d   1     -38.075  13.887  22.875  0.00  0.00     0.000 A 
ATOM      8  C   UNL d   1     -38.154  14.631  23.237  0.00  0.00     0.000 A 
ATOM      9  C   UNL d   1     -38.740  15.161  22.984  0.00  0.00     0.000 A 
ATOM     10  C   UNL d   1     -39.833  15.475  22.116  0.00  0.00     0.019 A 
ATOM     11  C   UNL d   1     -40.341  15.266  21.504  0.00  0.00     0.080 A 
ENDBRANCH   1   2
BRANCH   1  12
ATOM     12  C   UNL d   1     -41.318  13.696  20.612  0.00  0.00     0.120 C 
BRANCH  12  13
ATOM     13  N   UNL d   1     -42.031  13.813  21.008  0.00  0.00    -0.201 NA
ATOM     14  C   UNL d   1     -42.585  13.193  21.062  0.00  0.00     0.337 C 
ATOM     15  O   UNL d   1     -42.419  12.461  20.716  0.00  0.00    -0.260 OA
BRANCH  14  16
ATOM     16  C   UNL d   1     -43.297  13.311  21.457  0.00  0.00     0.337 C 
ATOM     17  N   UNL d   1     -43.822  12.677  21.565  0.00  0.00    -0.202 NA
ATOM     18  O   UNL d   1     -43.494  14.063  21.750  0.00  0.00    -0.260 OA
BRANCH  17  19
ATOM     19  C   UNL d   1     -44.539  12.799  21.965  0.00  0.00     0.112 A 
ATOM     20  C   UNL d   1     -44.782  12.264  22.544  0.00  0.00     0.160 A 
ATOM     21  C   UNL d   1     -45.486  12.376  22.942  0.00  0.00     0.061 A 
ATOM     22  F   UNL d   1     -44.308  11.595  22.730  0.00  0.00    -0.203 F 
ATOM     23  C   UNL d   1     -45.960  13.034  22.763  0.00  0.00     0.142 A 
ATOM     24  C   UNL d   1     -45.718  13.570  22.184  0.00  0.00     0.031 A 
ATOM     25  F   UNL d   1     -46.678  13.146  23.171  0.00  0.00    -0.204 F 
ATOM     26  C   UNL d   1     -45.000  13.448  21.785  0.00  0.00     0.024 A 
ENDBRANCH  17  19
ENDBRANCH  14  16
ENDBRANCH  12  13
ENDBRANCH   1  12
BRANCH   1  27
ATOM     27  C   UNL d   1     -40.763  14.741  19.810  0.00  0.00     0.037 A 
ATOM     28  C   UNL d   1     -41.077  15.501  19.774  0.00  0.00     0.100 A 
ATOM     29  N   UNL d   1     -41.053  15.922  19.068  0.00  0.00    -0.242 NA
ATOM     30  C   UNL d   1     -40.713  15.581  18.393  0.00  0.00     0.099 A 
ATOM     31  C   UNL d   1     -40.399  14.821  18.428  0.00  0.00     0.021 A 
ATOM     32  C   UNL d   1     -40.423  14.400  19.135  0.00  0.00     0.005 A 
ENDBRANCH   1  27
TORSDOF 6
ENDMDL
MODEL 3
REMARK VINA RESULT:      -5.0      0.964      1.184
REMARK  6 active torsions:
REMARK  status: ('A' for Active; 'I' for Inactive)
REMARK    1  A    between atoms: C_5  and  N_1 
REMARK    2  A    between atoms: C_2  and  C_4 
REMARK       I    between atoms: N_3  and  C_2 
REMARK    3  A    between atoms: C_7  and  N_3 
REMARK       I    between atoms: C_4  and  N_8 
REMARK    4  A    between atoms: C_10  and  C_5 
REMARK    5  A    between atoms: C_14  and  C_5 
REMARK    6  A    between atoms: N_8  and  C_10 
ROOT
ATOM      1  C   UNL d   1     -48.138  13.124  22.906  0.00  0.00     0.085 C 
ENDROOT
BRANCH   1   2
ATOM      2  N   UNL d   1     -48.792  13.599  22.676  0.00  0.00    -0.302 N 
ATOM      3  C   UNL d   1     -49.137  14.122  23.212  0.00  0.00     0.080 A 
ATOM      4  C   UNL d   1     -49.778  14.585  22.982  0.00  0.00     0.018 A 
ATOM      5  C   UNL d   1     -50.125  15.111  23.522  0.00  0.00     0.002 A 
ATOM      6  C   UNL d   1     -50.073  14.526  22.216  0.00  0.00     0.003 A 
ATOM      7  C   UNL d   1     -50.769  15.579  23.297  0.00  0.00     0.000 A 
ATOM      8  C   UNL d   1     -51.063  15.517  22.523  0.00  0.00     0.000 A 
ATOM      9  C   UNL d   1     -50.716  14.991  21.983  0.00  0.00     0.000 A 
ATOM     10  C   UNL d   1     -49.727  14.004  21.679  0.00  0.00     0.019 A 
ATOM     11  C   UNL d   1     -49.087  13.540  21.909  0.00  0.00     0.080 A 
ENDBRANCH   1   2
BRANCH   1  12
ATOM     12  C   UNL d   1     -47.427  13.479  23.129  0.00  0.00     0.120 C 
BRANCH  12  13
ATOM     13  N   UNL d   1     -46.758  13.404  22.654  0.00  0.00    -0.201 NA
ATOM     14  C   UNL d   1     -46.015  13.652  22.938  0.00  0.00     0.337 C 
ATOM     15  O   UNL d   1     -45.950  13.972  23.698  0.00  0.00    -0.260 OA
BRANCH  14  16
ATOM     16  C   UNL d   1     -45.347  13.577  22.464  0.00  0.00     0.337 C 
ATOM     17  N   UNL d   1     -44.931  12.859  22.441  0.00  0.00    -0.202 NA
ATOM     18  O   UNL d   1     -45.085  14.219  22.006  0.00  0.00    -0.260 OA
BRANCH  17  19
ATOM     19  C   UNL d   1     -44.257  12.788  21.960  0.00  0.00     0.112 A 
ATOM     20  C   UNL d   1     -43.687  12.218  22.136  0.00  0.00     0.160 A 
ATOM     21  C   UNL d   1     -43.022  12.142  21.669  0.00  0.00     0.061 A 
ATOM     22  F   UNL d   1     -43.785  11.709  22.797  0.00  0.00    -0.203 F 
ATOM     23  C   UNL d   1     -42.918  12.641  21.014  0.00  0.00     0.142 A 
ATOM     24  C   UNL d   1     -43.488  13.211  20.838  0.00  0.00     0.031 A 
ATOM     25  F   UNL d   1     -42.237  12.560  20.539  0.00  0.00    -0.204 F 
ATOM     26  C   UNL d   1     -44.162  13.282  21.318  0.00  0.00     0.024 A 
ENDBRANCH  17  19
ENDBRANCH  14  16
ENDBRANCH  12  13
ENDBRANCH   1  12
BRANCH   1  27
ATOM     27  C   UNL d   1     -48.212  12.305  22.907  0.00  0.00     0.037 A 
ATOM     28  C   UNL d   1     -48.430  11.914  23.598  0.00  0.00     0.100 A 
ATOM     29  N   UNL d   1     -48.504  11.094  23.600  0.00  0.00    -0.242 NA
ATOM     30  C   UNL d   1     -48.359  10.663  22.907  0.00  0.00     0.099 A 
ATOM     31  C   UNL d   1     -48.141  11.053  22.216  0.00  0.00     0.021 A 
ATOM     32  C   UNL d   1     -48.067  11.874  22.214  0.00  0.00     0.005 A 
ENDBRANCH   1  27
TORSDOF 6
ENDMDL
MODEL 4
REMARK VINA RESULT:      -4.3      6.196      8.795
REMARK  6 active torsions:
REMARK  status: ('A' for Active; 'I' for Inactive)
REMARK    1  A    between atoms: C_5  and  N_1 
REMARK    2  A    between atoms: C_2  and  C_4 
REMARK       I    between atoms: N_3  and  C_2 
REMARK    3  A    between atoms: C_7  and  N_3 
REMARK       I    between atoms: C_4  and  N_8 
REMARK    4  A    between atoms: C_10  and  C_5 
REMARK    5  A    between atoms: C_14  and  C_5 
REMARK    6  A    between atoms: N_8  and  C_10 
ROOT
ATOM      1  C   UNL d   1     -39.437  14.823  21.092  0.00  0.00     0.085 C 
ENDROOT
BRANCH   1   2
ATOM      2  N   UNL d   1     -40.270  14.714  21.094  0.00  0.00    -0.302 N 
ATOM      3  C   UNL d   1     -40.592  13.955  21.109  0.00  0.00     0.080 A 
ATOM      4  C   UNL d   1     -41.409  13.854  21.111  0.00  0.00     0.018 A 
ATOM      5  C   UNL d   1     -41.733  13.090  21.126  0.00  0.00     0.002 A 
ATOM      6  C   UNL d   1     -41.904  14.511  21.097  0.00  0.00     0.003 A 
ATOM      7  C   UNL d   1     -42.553  12.981  21.128  0.00  0.00     0.000 A 
ATOM      8  C   UNL d   1     -43.049  13.647  21.115  0.00  0.00     0.000 A 
ATOM      9  C   UNL d   1     -42.725  14.411  21.099  0.00  0.00     0.000 A 
ATOM     10  C   UNL d   1     -41.582  15.270  21.082  0.00  0.00     0.019 A 
ATOM     11  C   UNL d   1     -40.765  15.373  21.080  0.00  0.00     0.080 A 
ENDBRANCH   1   2
BRANCH   1  12
ATOM     12  C   UNL d   1     -39.065  15.160  20.437  0.00  0.00     0.120 C 
BRANCH  12  13
ATOM     13  N   UNL d   1     -39.046  14.760  19.717  0.00  0.00    -0.201 NA
ATOM     14  C   UNL d   1     -38.608  15.068  19.079  0.00  0.00     0.337 C 
ATOM     15  O   UNL d   1     -38.192  15.777  19.170  0.00  0.00    -0.260 OA
BRANCH  14  16
ATOM     16  C   UNL d   1     -38.590  14.669  18.360  0.00  0.00     0.337 C 
ATOM     17  N   UNL d   1     -38.370  15.070  17.667  0.00  0.00    -0.202 NA
ATOM     18  O   UNL d   1     -38.790  13.864  18.325  0.00  0.00    -0.260 OA
BRANCH  17  19
ATOM     19  C   UNL d   1     -38.353  14.662  16.944  0.00  0.00     0.112 A 
ATOM     20  C   UNL d   1     -38.737  14.980  16.286  0.00  0.00     0.160 A 
ATOM     21  C   UNL d   1     -38.725  14.586  15.571  0.00  0.00     0.061 A 
ATOM     22  F   UNL d   1     -39.145  15.712  16.345  0.00  0.00    -0.203 F 
ATOM     23  C   UNL d   1     -38.324  13.862  15.505  0.00  0.00     0.142 A 
ATOM     24  C   UNL d   1     -37.940  13.545  16.163  0.00  0.00     0.031 A 
ATOM     25  F   UNL d   1     -38.314  13.463  14.774  0.00  0.00    -0.204 F 
ATOM     26  C   UNL d   1     -37.957  13.952  16.886  0.00  0.00     0.024 A 
ENDBRANCH  17  19
ENDBRANCH  14  16
ENDBRANCH  12  13
ENDBRANCH   1  12
BRANCH   1  27
ATOM     27  C   UNL d   1     -38.996  14.591  21.746  0.00  0.00     0.037 A 
ATOM     28  C   UNL d   1     -38.856  15.124  22.357  0.00  0.00     0.100 A 
ATOM     29  N   UNL d   1     -38.415  14.892  23.012  0.00  0.00    -0.242 NA
ATOM     30  C   UNL d   1     -38.111  14.122  23.056  0.00  0.00     0.099 A 
ATOM     31  C   UNL d   1     -38.251  13.587  22.446  0.00  0.00     0.021 A 
ATOM     32  C   UNL d   1     -38.692  13.820  21.790  0.00  0.00     0.005 A 
ENDBRANCH   1  27
TORSDOF 6
ENDMDL
MODEL 5
REMARK VINA RESULT:      -3.8      4.410      8.764
REMARK  6 active torsions:
REMARK  status: ('A' for Active; 'I' for Inactive)
REMARK    1  A    between atoms: C_5  and  N_1 
REMARK    2  A    between atoms: C_2  and  C_4 
REMARK       I    between atoms: N_3  and  C_2 
REMARK    3  A    between atoms: C_7  and  N_3 
REMARK       I    between atoms: C_4  and  N_8 
REMARK    4  A    between atoms: C_10  and  C_5 
REMARK    5  A    between atoms: C_14  and  C_5 
REMARK    6  A    between atoms: N_8  and  C_10 
ROOT
ATOM      1  C   UNL d   1     -39.721  14.858  20.024  0.00  0.00     0.085 C 
ENDROOT
BRANCH   1   2
ATOM      2  N   UNL d   1     -39.508  14.656  19.237  0.00  0.00    -0.302 N 
ATOM      3  C   UNL d   1     -39.227  13.900  19.062  0.00  0.00     0.080 A 
ATOM      4  C   UNL d   1     -39.019  13.706  18.288  0.00  0.00     0.018 A 
ATOM      5  C   UNL d   1     -38.737  12.946  18.112  0.00  0.00     0.002 A 
ATOM      6  C   UNL d   1     -39.092  14.268  17.691  0.00  0.00     0.003 A 
ATOM      7  C   UNL d   1     -38.527  12.745  17.338  0.00  0.00     0.000 A 
ATOM      8  C   UNL d   1     -38.602  13.315  16.738  0.00  0.00     0.000 A 
ATOM      9  C   UNL d   1     -38.884  14.075  16.915  0.00  0.00     0.000 A 
ATOM     10  C   UNL d   1     -39.373  15.023  17.867  0.00  0.00     0.019 A 
ATOM     11  C   UNL d   1     -39.581  15.218  18.639  0.00  0.00     0.080 A 
ENDBRANCH   1   2
BRANCH   1  12
ATOM     12  C   UNL d   1     -40.516  14.913  20.236  0.00  0.00     0.120 C 
BRANCH  12  13
ATOM     13  N   UNL d   1     -40.882  14.297  20.644  0.00  0.00    -0.201 NA
ATOM     14  C   UNL d   1     -41.672  14.375  20.898  0.00  0.00     0.337 C 
ATOM     15  O   UNL d   1     -42.088  15.072  20.740  0.00  0.00    -0.260 OA
BRANCH  14  16
ATOM     16  C   UNL d   1     -42.036  13.760  21.305  0.00  0.00     0.337 C 
ATOM     17  N   UNL d   1     -42.843  13.605  21.187  0.00  0.00    -0.202 NA
ATOM     18  O   UNL d   1     -41.600  13.293  21.834  0.00  0.00    -0.260 OA
BRANCH  17  19
ATOM     19  C   UNL d   1     -43.207  12.983  21.600  0.00  0.00     0.112 A 
ATOM     20  C   UNL d   1     -44.003  13.042  21.809  0.00  0.00     0.160 A 
ATOM     21  C   UNL d   1     -44.370  12.435  22.214  0.00  0.00     0.061 A 
ATOM     22  F   UNL d   1     -44.447  13.726  21.606  0.00  0.00    -0.203 F 
ATOM     23  C   UNL d   1     -43.938  11.755  22.418  0.00  0.00     0.142 A 
ATOM     24  C   UNL d   1     -43.142  11.697  22.209  0.00  0.00     0.031 A 
ATOM     25  F   UNL d   1     -44.315  11.138  22.832  0.00  0.00    -0.204 F 
ATOM     26  C   UNL d   1     -42.778  12.319  21.797  0.00  0.00     0.024 A 
ENDBRANCH  17  19
ENDBRANCH  14  16
ENDBRANCH  12  13
ENDBRANCH   1  12
BRANCH   1  27
ATOM     27  C   UNL d   1     -39.132  15.000  20.580  0.00  0.00     0.037 A 
ATOM     28  C   UNL d   1     -38.753  14.368  20.948  0.00  0.00     0.100 A 
ATOM     29  N   UNL d   1     -38.164  14.511  21.505  0.00  0.00    -0.242 NA
ATOM     30  C   UNL d   1     -37.952  15.289  21.695  0.00  0.00     0.099 A 
ATOM     31  C   UNL d   1     -38.330  15.922  21.327  0.00  0.00     0.021 A 
ATOM     32  C   UNL d   1     -38.920  15.779  20.770  0.00  0.00     0.005 A 
ENDBRANCH   1  27
TORSDOF 6
ENDMDL
MODEL 6
REMARK VINA RESULT:      -3.5      1.340      1.991
REMARK  6 active torsions:
REMARK  status: ('A' for Active; 'I' for Inactive)
REMARK    1  A    between atoms: C_5  and  N_1 
REMARK    2  A    between atoms: C_2  and  C_4 
REMARK       I    between atoms: N_3  and  C_2 
REMARK    3  A    between atoms: C_7  and  N_3 
REMARK       I    between atoms: C_4  and  N_8 
REMARK    4  A    between atoms: C_10  and  C_5 
REMARK    5  A    between atoms: C_14  and  C_5 
REMARK    6  A    between atoms: N_8  and  C_10 
ROOT
ATOM      1  C   UNL d   1     -48.234  13.120  22.677  0.00  0.00     0.085 C 
ENDROOT
BRANCH   1   2
ATOM      2  N   UNL d   1     -48.923  13.527  22.934  0.00  0.00    -0.302 N 
ATOM      3  C   UNL d   1     -49.030  14.324  22.749  0.00  0.00     0.080 A 
ATOM      4  C   UNL d   1     -49.707  14.718  23.003  0.00  0.00     0.018 A 
ATOM      5  C   UNL d   1     -49.815  15.520  22.817  0.00  0.00     0.002 A 
ATOM      6  C   UNL d   1     -50.275  14.317  23.442  0.00  0.00     0.003 A 
ATOM      7  C   UNL d   1     -50.492  15.922  23.069  0.00  0.00     0.000 A 
ATOM      8  C   UNL d   1     -51.064  15.513  23.512  0.00  0.00     0.000 A 
ATOM      9  C   UNL d   1     -50.956  14.711  23.698  0.00  0.00     0.000 A 
ATOM     10  C   UNL d   1     -50.168  13.520  23.627  0.00  0.00     0.019 A 
ATOM     11  C   UNL d   1     -49.492  13.125  23.373  0.00  0.00     0.080 A 
ENDBRANCH   1   2
BRANCH   1  12
ATOM     12  C   UNL d   1     -47.574  13.071  23.170  0.00  0.00     0.120 C 
BRANCH  12  13
ATOM     13  N   UNL d   1     -47.132  12.377  23.207  0.00  0.00    -0.201 NA
ATOM     14  C   UNL d   1     -46.337  12.400  23.456  0.00  0.00     0.337 C 
ATOM     15  O   UNL d   1     -45.993  13.122  23.667  0.00  0.00    -0.260 OA
BRANCH  14  16
ATOM     16  C   UNL d   1     -45.896  11.707  23.493  0.00  0.00     0.337 C 
ATOM     17  N   UNL d   1     -45.083  11.723  23.331  0.00  0.00    -0.202 NA
ATOM     18  O   UNL d   1     -46.263  10.989  23.691  0.00  0.00    -0.260 OA
BRANCH  17  19
ATOM     19  C   UNL d   1     -44.641  11.021  23.368  0.00  0.00     0.112 A 
ATOM     20  C   UNL d   1     -43.839  11.031  23.176  0.00  0.00     0.160 A 
ATOM     21  C   UNL d   1     -43.397  10.345  23.211  0.00  0.00     0.061 A 
ATOM     22  F   UNL d   1     -43.467  11.747  22.943  0.00  0.00    -0.203 F 
ATOM     23  C   UNL d   1     -43.758   9.633  23.441  0.00  0.00     0.142 A 
ATOM     24  C   UNL d   1     -44.560   9.623  23.633  0.00  0.00     0.031 A 
ATOM     25  F   UNL d   1     -43.304   8.934  23.475  0.00  0.00    -0.204 F 
ATOM     26  C   UNL d   1     -45.002  10.325  23.595  0.00  0.00     0.024 A 
ENDBRANCH  17  19
ENDBRANCH  14  16
ENDBRANCH  12  13
ENDBRANCH   1  12
BRANCH   1  27
ATOM     27  C   UNL d   1     -48.222  12.772  21.932  0.00  0.00     0.037 A 
ATOM     28  C   UNL d   1     -47.680  13.027  21.367  0.00  0.00     0.100 A 
ATOM     29  N   UNL d   1     -47.669  12.679  20.622  0.00  0.00    -0.242 NA
ATOM     30  C   UNL d   1     -48.202  12.071  20.440  0.00  0.00     0.099 A 
ATOM     31  C   UNL d   1     -48.745  11.815  21.004  0.00  0.00     0.021 A 
ATOM     32  C   UNL d   1     -48.756  12.164  21.750  0.00  0.00     0.005 A 
ENDBRANCH   1  27
TORSDOF 6
ENDMDL
MODEL 7
REMARK VINA RESULT:      -3.1      7.862      9.291
REMARK  6 active torsions:
REMARK  status: ('A' for Active; 'I' for Inactive)
REMARK    1  A    between atoms: C_5  and  N_1 
REMARK    2  A    between atoms: C_2  and  C_4 
REMARK       I    between atoms: N_3  and  C_2 
REMARK    3  A    between atoms: C_7  and  N_3 
REMARK       I    between atoms: C_4  and  N_8 
REMARK    4  A    between atoms: C_10  and  C_5 
REMARK    5  A    between atoms: C_14  and  C_5 
REMARK    6  A    between atoms: N_8  and  C_10 
ROOT
ATOM      1  C   UNL d   1     -40.425  15.299  17.636  0.00  0.00     0.085 C 
ENDROOT
BRANCH   1   2
ATOM      2  N   UNL d   1     -39.799  14.791  17.396  0.00  0.00    -0.302 N 
ATOM      3  C   UNL d   1     -39.854  13.977  17.517  0.00  0.00     0.080 A 
ATOM      4  C   UNL d   1     -39.239  13.483  17.281  0.00  0.00     0.018 A 
ATOM      5  C   UNL d   1     -39.295  12.664  17.402  0.00  0.00     0.002 A 
ATOM      6  C   UNL d   1     -38.570  13.803  16.925  0.00  0.00     0.003 A 
ATOM      7  C   UNL d   1     -38.681  12.162  17.167  0.00  0.00     0.000 A 
ATOM      8  C   UNL d   1     -38.007  12.489  16.808  0.00  0.00     0.000 A 
ATOM      9  C   UNL d   1     -37.951  13.308  16.687  0.00  0.00     0.000 A 
ATOM     10  C   UNL d   1     -38.515  14.617  16.804  0.00  0.00     0.019 A 
ATOM     11  C   UNL d   1     -39.129  15.112  17.040  0.00  0.00     0.080 A 
ENDBRANCH   1   2
BRANCH   1  12
ATOM     12  C   UNL d   1     -40.451  15.588  18.408  0.00  0.00     0.120 C 
BRANCH  12  13
ATOM     13  N   UNL d   1     -40.143  15.143  19.029  0.00  0.00    -0.201 NA
ATOM     14  C   UNL d   1     -40.491  15.183  19.785  0.00  0.00     0.337 C 
ATOM     15  O   UNL d   1     -41.147  15.671  19.911  0.00  0.00    -0.260 OA
BRANCH  14  16
ATOM     16  C   UNL d   1     -40.183  14.739  20.405  0.00  0.00     0.337 C 
ATOM     17  N   UNL d   1     -39.395  14.846  20.642  0.00  0.00    -0.202 NA
ATOM     18  O   UNL d   1     -40.659  14.182  20.796  0.00  0.00    -0.260 OA
BRANCH  17  19
ATOM     19  C   UNL d   1     -39.088  14.395  21.268  0.00  0.00     0.112 A 
ATOM     20  C   UNL d   1     -38.456  13.883  21.132  0.00  0.00     0.160 A 
ATOM     21  C   UNL d   1     -38.148  13.436  21.742  0.00  0.00     0.061 A 
ATOM     22  F   UNL d   1     -38.121  13.815  20.365  0.00  0.00    -0.203 F 
ATOM     23  C   UNL d   1     -38.473  13.497  22.504  0.00  0.00     0.142 A 
ATOM     24  C   UNL d   1     -39.106  14.010  22.640  0.00  0.00     0.031 A 
ATOM     25  F   UNL d   1     -38.157  13.040  23.125  0.00  0.00    -0.204 F 
ATOM     26  C   UNL d   1     -39.413  14.460  22.013  0.00  0.00     0.024 A 
ENDBRANCH  17  19
ENDBRANCH  14  16
ENDBRANCH  12  13
ENDBRANCH   1  12
BRANCH   1  27
ATOM     27  C   UNL d   1     -41.009  15.506  17.095  0.00  0.00     0.037 A 
ATOM     28  C   UNL d   1     -41.794  15.557  17.338  0.00  0.00     0.100 A 
ATOM     29  N   UNL d   1     -42.378  15.765  16.797  0.00  0.00    -0.242 NA
ATOM     30  C   UNL d   1     -42.177  15.922  16.008  0.00  0.00     0.099 A 
ATOM     31  C   UNL d   1     -41.392  15.871  15.764  0.00  0.00     0.021 A 
ATOM     32  C   UNL d   1     -40.807  15.664  16.306  0.00  0.00     0.005 A 
ENDBRANCH   1  27
TORSDOF 6
ENDMDL
