MODEL 1
REMARK VINA RESULT:      -4.6      0.000      0.000
REMARK  6 active torsions:
REMARK  status: ('A' for Active; 'I' for Inactive)
REMARK    1  A    between atoms: N_4  and  C_1 
REMARK       I    between atoms: C_7  and  N_4 
REMARK    2  A    between atoms: C_8  and  C_7 
REMARK    3  A    between atoms: C_11  and  C_8 
REMARK    4  A    between atoms: C_10  and  O_17 
REMARK    5  A    between atoms: O_17  and  C_11 
REMARK    6  A    between atoms: O_18  and  C_12 
ROOT
ATOM      1  C   UNL d   1      57.871  -0.109  30.168  0.00  0.00     0.089 C 
ENDROOT
BRANCH   1   2
ATOM      2  C   UNL d   1      58.630  -0.257  29.877  0.00  0.00     0.283 C 
ATOM      3  N   UNL d   1      58.731  -0.811  29.272  0.00  0.00    -0.186 NA
ATOM      4  O   UNL d   1      59.276   0.138  30.183  0.00  0.00    -0.265 OA
BRANCH   3   5
ATOM      5  C   UNL d   1      59.479  -0.962  28.981  0.00  0.00     0.194 A 
ATOM      6  N   UNL d   1      60.012  -0.400  28.685  0.00  0.00    -0.107 NA
ATOM      7  O   UNL d   1      60.691  -0.798  28.455  0.00  0.00    -0.210 OA
ATOM      8  C   UNL d   1      60.589  -1.591  28.602  0.00  0.00     0.128 A 
ATOM      9  C   UNL d   1      59.834  -1.700  28.931  0.00  0.00     0.068 A 
ATOM     10  C   UNL d   1      61.133  -2.189  28.455  0.00  0.00     0.029 C 
ENDBRANCH   3   5
ENDBRANCH   1   2
BRANCH   1  11
ATOM     11  C   UNL d   1      57.751  -0.067  30.978  0.00  0.00     0.128 C 
BRANCH  11  12
ATOM     12  O   UNL d   1      56.996  -0.382  31.100  0.00  0.00    -0.305 OA
BRANCH  12  13
ATOM     13  C   UNL d   1      56.617  -0.277  31.821  0.00  0.00     0.100 A 
ATOM     14  C   UNL d   1      56.350  -0.933  32.247  0.00  0.00     0.027 A 
ATOM     15  C   UNL d   1      55.968  -0.835  32.971  0.00  0.00     0.026 A 
ATOM     16  C   UNL d   1      55.856  -0.072  33.264  0.00  0.00     0.094 A 
ATOM     17  C   UNL d   1      56.123   0.585  32.837  0.00  0.00     0.026 A 
ATOM     18  C   UNL d   1      56.503   0.479  32.116  0.00  0.00     0.027 A 
BRANCH  16  19
ATOM     19  O   UNL d   1      55.470   0.034  33.996  0.00  0.00    -0.328 OA
ATOM     20  C   UNL d   1      54.737   0.413  34.016  0.00  0.00     0.181 C 
ENDBRANCH  16  19
ENDBRANCH  12  13
ENDBRANCH  11  12
ENDBRANCH   1  11
TORSDOF 6
ENDMDL
MODEL 2
REMARK VINA RESULT:      -2.2      8.939     10.081
REMARK  6 active torsions:
REMARK  status: ('A' for Active; 'I' for Inactive)
REMARK    1  A    between atoms: N_4  and  C_1 
REMARK       I    between atoms: C_7  and  N_4 
REMARK    2  A    between atoms: C_8  and  C_7 
REMARK    3  A    between atoms: C_11  and  C_8 
REMARK    4  A    between atoms: C_10  and  O_17 
REMARK    5  A    between atoms: O_17  and  C_11 
REMARK    6  A    between atoms: O_18  and  C_12 
ROOT
ATOM      1  C   UNL d   1      59.610  -9.782  33.404  0.00  0.00     0.089 C 
ENDROOT
BRANCH   1   2
ATOM      2  C   UNL d   1      59.623  -9.414  34.144  0.00  0.00     0.283 C 
ATOM      3  N   UNL d   1      60.138  -8.781  34.272  0.00  0.00    -0.186 NA
ATOM      4  O   UNL d   1      59.132  -9.672  34.744  0.00  0.00    -0.265 OA
BRANCH   3   5
ATOM      5  C   UNL d   1      60.155  -8.414  35.002  0.00  0.00     0.194 A 
ATOM      6  N   UNL d   1      60.247  -8.788  35.736  0.00  0.00    -0.107 NA
ATOM      7  O   UNL d   1      60.232  -8.206  36.315  0.00  0.00    -0.210 OA
ATOM      8  C   UNL d   1      60.133  -7.485  35.954  0.00  0.00     0.128 A 
ATOM      9  C   UNL d   1      60.084  -7.607  35.134  0.00  0.00     0.068 A 
ATOM     10  C   UNL d   1      60.087  -6.754  36.327  0.00  0.00     0.029 C 
ENDBRANCH   3   5
ENDBRANCH   1   2
BRANCH   1  11
ATOM     11  C   UNL d   1      59.016  -9.593  32.871  0.00  0.00     0.128 C 
BRANCH  11  12
ATOM     12  O   UNL d   1      59.316  -9.808  32.130  0.00  0.00    -0.305 OA
BRANCH  12  13
ATOM     13  C   UNL d   1      58.843  -9.754  31.462  0.00  0.00     0.100 A 
ATOM     14  C   UNL d   1      59.180  -9.816  30.709  0.00  0.00     0.027 A 
ATOM     15  C   UNL d   1      58.711  -9.763  30.034  0.00  0.00     0.026 A 
ATOM     16  C   UNL d   1      57.898  -9.647  30.120  0.00  0.00     0.094 A 
ATOM     17  C   UNL d   1      57.560  -9.585  30.872  0.00  0.00     0.026 A 
ATOM     18  C   UNL d   1      58.034  -9.639  31.541  0.00  0.00     0.027 A 
BRANCH  16  19
ATOM     19  O   UNL d   1      57.418  -9.593  29.440  0.00  0.00    -0.328 OA
ATOM     20  C   UNL d   1      57.731  -9.269  28.748  0.00  0.00     0.181 C 
ENDBRANCH  16  19
ENDBRANCH  12  13
ENDBRANCH  11  12
ENDBRANCH   1  11
TORSDOF 6
ENDMDL
