MODEL 1
REMARK VINA RESULT:      27.0      0.000      0.000
REMARK  6 active torsions:
REMARK  status: ('A' for Active; 'I' for Inactive)
REMARK    1  A    between atoms: N_2  and  S_1 
REMARK    2  A    between atoms: C_6  and  S_1 
REMARK    3  A    between atoms: C_4  and  N_2 
REMARK    4  A    between atoms: C_5  and  C_3 
REMARK    5  A    between atoms: O_12  and  C_5 
REMARK    6  A    between atoms: C_18  and  O_12 
ROOT
ATOM      1  C   UNL d   1      14.987  13.508  -0.476  0.00  0.00     0.082 A 
ATOM      2  C   UNL d   1      14.590  13.108  -1.071  0.00  0.00     0.099 A 
ATOM      3  C   UNL d   1      15.544  13.110  -0.015  0.00  0.00     0.007 A 
ATOM      4  C   UNL d   1      14.751  12.311  -1.204  0.00  0.00     0.020 A 
ATOM      5  C   UNL d   1      15.702  12.315  -0.151  0.00  0.00     0.000 A 
ATOM      6  C   UNL d   1      15.305  11.916  -0.746  0.00  0.00     0.002 A 
ENDROOT
BRANCH   2   7
ATOM      7  N   UNL d   1      14.022  13.504  -1.545  0.00  0.00    -0.158 NA
BRANCH   7   8
ATOM      8  S   UNL d   1      13.801  13.173  -2.264  0.00  0.00     0.285 S 
ATOM      9  O   UNL d   1      13.941  13.912  -2.655  0.00  0.00    -0.198 OA
ATOM     10  O   UNL d   1      13.658  12.445  -1.909  0.00  0.00    -0.198 OA
BRANCH   8  11
ATOM     11  C   UNL d   1      13.580  12.854  -3.006  0.00  0.00     0.105 A 
ATOM     12  C   UNL d   1      13.251  12.093  -3.040  0.00  0.00     0.013 A 
ATOM     13  C   UNL d   1      13.033  11.779  -3.772  0.00  0.00     0.001 A 
ATOM     14  C   UNL d   1      13.150  12.234  -4.450  0.00  0.00     0.000 A 
ATOM     15  C   UNL d   1      13.475  12.988  -4.423  0.00  0.00     0.001 A 
ATOM     16  C   UNL d   1      12.938  11.937  -5.192  0.00  0.00     0.000 C 
ATOM     17  C   UNL d   1      13.694  13.303  -3.691  0.00  0.00     0.013 A 
ENDBRANCH   8  11
ENDBRANCH   7   8
ENDBRANCH   2   7
BRANCH   1  18
ATOM     18  C   UNL d   1      14.821  14.334  -0.336  0.00  0.00     0.302 C 
ATOM     19  O   UNL d   1      14.095  14.558  -0.042  0.00  0.00    -0.259 OA
BRANCH  18  20
ATOM     20  O   UNL d   1      15.394  14.914  -0.495  0.00  0.00    -0.271 OA
BRANCH  20  21
ATOM     21  C   UNL d   1      15.161  15.715  -0.558  0.00  0.00     0.126 C 
ATOM     22  C   UNL d   1      15.656  16.257  -0.911  0.00  0.00     0.029 C 
ENDBRANCH  20  21
ENDBRANCH  18  20
ENDBRANCH   1  18
TORSDOF 6
ENDMDL
MODEL 2
REMARK VINA RESULT:      27.1      1.177      1.427
REMARK  6 active torsions:
REMARK  status: ('A' for Active; 'I' for Inactive)
REMARK    1  A    between atoms: N_2  and  S_1 
REMARK    2  A    between atoms: C_6  and  S_1 
REMARK    3  A    between atoms: C_4  and  N_2 
REMARK    4  A    between atoms: C_5  and  C_3 
REMARK    5  A    between atoms: O_12  and  C_5 
REMARK    6  A    between atoms: C_18  and  O_12 
ROOT
ATOM      1  C   UNL d   1      14.526  12.573  -0.705  0.00  0.00     0.082 A 
ATOM      2  C   UNL d   1      14.233  12.344  -1.435  0.00  0.00     0.099 A 
ATOM      3  C   UNL d   1      14.099  12.405  -0.019  0.00  0.00     0.007 A 
ATOM      4  C   UNL d   1      13.512  11.946  -1.478  0.00  0.00     0.020 A 
ATOM      5  C   UNL d   1      13.381  12.009  -0.067  0.00  0.00     0.000 A 
ATOM      6  C   UNL d   1      13.087  11.779  -0.796  0.00  0.00     0.002 A 
ENDROOT
BRANCH   2   7
ATOM      7  N   UNL d   1      14.660  12.510  -2.137  0.00  0.00    -0.158 NA
BRANCH   7   8
ATOM      8  S   UNL d   1      14.272  12.468  -2.861  0.00  0.00     0.285 S 
ATOM      9  O   UNL d   1      15.015  12.453  -3.267  0.00  0.00    -0.198 OA
ATOM     10  O   UNL d   1      13.538  12.481  -2.491  0.00  0.00    -0.198 OA
BRANCH   8  11
ATOM     11  C   UNL d   1      13.895  12.425  -3.607  0.00  0.00     0.105 A 
ATOM     12  C   UNL d   1      14.112  11.826  -4.138  0.00  0.00     0.013 A 
ATOM     13  C   UNL d   1      13.740  11.784  -4.875  0.00  0.00     0.001 A 
ATOM     14  C   UNL d   1      13.161  12.341  -5.060  0.00  0.00     0.000 A 
ATOM     15  C   UNL d   1      12.941  12.937  -4.538  0.00  0.00     0.001 A 
ATOM     16  C   UNL d   1      12.777  12.316  -5.791  0.00  0.00     0.000 C 
ATOM     17  C   UNL d   1      13.313  12.980  -3.801  0.00  0.00     0.013 A 
ENDBRANCH   8  11
ENDBRANCH   7   8
ENDBRANCH   2   7
BRANCH   1  18
ATOM     18  C   UNL d   1      15.273  12.985  -0.658  0.00  0.00     0.302 C 
ATOM     19  O   UNL d   1      15.922  12.613  -0.334  0.00  0.00    -0.259 OA
BRANCH  18  20
ATOM     20  O   UNL d   1      15.347  13.763  -0.939  0.00  0.00    -0.271 OA
BRANCH  20  21
ATOM     21  C   UNL d   1      15.219  14.403  -0.417  0.00  0.00     0.126 C 
ATOM     22  C   UNL d   1      15.854  14.817  -0.115  0.00  0.00     0.029 C 
ENDBRANCH  20  21
ENDBRANCH  18  20
ENDBRANCH   1  18
TORSDOF 6
ENDMDL
