MODEL 1
REMARK VINA RESULT:      -5.4      0.000      0.000
REMARK  3 active torsions:
REMARK  status: ('A' for Active; 'I' for Inactive)
REMARK    1  A    between atoms: N_3  and  C_1 
REMARK       I    between atoms: C_5  and  N_3 
REMARK    2  A    between atoms: C_6  and  C_5 
REMARK    3  A    between atoms: O_19  and  C_17 
ROOT
ATOM      1  N   UNL d   1      57.797  -0.478  31.381  0.00  0.00    -0.181 NA
ATOM      2  C   UNL d   1      57.778  -0.080  30.660  0.00  0.00     0.306 C 
ATOM      3  O   UNL d   1      57.115   0.403  30.469  0.00  0.00    -0.263 OA
ENDROOT
BRANCH   1   4
ATOM      4  C   UNL d   1      57.177  -0.410  31.918  0.00  0.00     0.197 A 
ATOM      5  N   UNL d   1      56.642  -1.015  32.101  0.00  0.00    -0.221 NA
ATOM      6  C   UNL d   1      56.114  -0.708  32.663  0.00  0.00     0.090 A 
ATOM      7  C   UNL d   1      55.471  -1.050  33.046  0.00  0.00     0.022 A 
ATOM      8  C   UNL d   1      56.331   0.072  32.814  0.00  0.00     0.052 A 
ATOM      9  C   UNL d   1      55.043  -0.593  33.590  0.00  0.00     0.026 A 
ATOM     10  C   UNL d   1      55.256   0.178  33.739  0.00  0.00     0.095 A 
ATOM     11  C   UNL d   1      55.902   0.528  33.357  0.00  0.00     0.032 A 
ATOM     12  S   UNL d   1      56.981   0.243  32.353  0.00  0.00    -0.047 SA
BRANCH  10  13
ATOM     13  O   UNL d   1      54.819   0.656  34.298  0.00  0.00    -0.328 OA
ATOM     14  C   UNL d   1      55.055   0.653  35.104  0.00  0.00     0.181 C 
ENDBRANCH  10  13
ENDBRANCH   1   4
BRANCH   2  15
ATOM     15  C   UNL d   1      58.398  -0.148  30.123  0.00  0.00     0.182 A 
ATOM     16  O   UNL d   1      59.077   0.298  30.242  0.00  0.00    -0.298 OA
ATOM     17  C   UNL d   1      59.709   0.231  29.699  0.00  0.00     0.123 A 
ATOM     18  C   UNL d   1      60.398   0.677  29.811  0.00  0.00     0.027 A 
ATOM     19  C   UNL d   1      59.641  -0.275  29.060  0.00  0.00     0.123 A 
ATOM     20  C   UNL d   1      61.016   0.606  29.270  0.00  0.00     0.002 A 
ATOM     21  C   UNL d   1      60.960   0.107  28.634  0.00  0.00     0.002 A 
ATOM     22  C   UNL d   1      60.271  -0.339  28.521  0.00  0.00     0.027 A 
ATOM     23  O   UNL d   1      58.952  -0.721  28.947  0.00  0.00    -0.301 OA
ATOM     24  C   UNL d   1      58.338  -0.648  29.486  0.00  0.00     0.152 A 
ENDBRANCH   2  15
TORSDOF 3
ENDMDL
MODEL 2
REMARK VINA RESULT:      -4.6      1.230      5.543
REMARK  3 active torsions:
REMARK  status: ('A' for Active; 'I' for Inactive)
REMARK    1  A    between atoms: N_3  and  C_1 
REMARK       I    between atoms: C_5  and  N_3 
REMARK    2  A    between atoms: C_6  and  C_5 
REMARK    3  A    between atoms: O_19  and  C_17 
ROOT
ATOM      1  N   UNL d   1      57.565   0.601  31.670  0.00  0.00    -0.181 NA
ATOM      2  C   UNL d   1      57.079   0.036  32.020  0.00  0.00     0.306 C 
ATOM      3  O   UNL d   1      56.987  -0.717  31.653  0.00  0.00    -0.263 OA
ENDROOT
BRANCH   1   4
ATOM      4  C   UNL d   1      57.961   0.442  30.966  0.00  0.00     0.197 A 
ATOM      5  N   UNL d   1      57.597   0.364  30.226  0.00  0.00    -0.221 NA
ATOM      6  C   UNL d   1      58.200   0.205  29.678  0.00  0.00     0.090 A 
ATOM      7  C   UNL d   1      58.173   0.076  28.865  0.00  0.00     0.022 A 
ATOM      8  C   UNL d   1      58.915   0.189  30.085  0.00  0.00     0.052 A 
ATOM      9  C   UNL d   1      58.882  -0.071  28.462  0.00  0.00     0.026 A 
ATOM     10  C   UNL d   1      59.590  -0.087  28.864  0.00  0.00     0.095 A 
ATOM     11  C   UNL d   1      59.624   0.041  29.682  0.00  0.00     0.032 A 
ATOM     12  S   UNL d   1      58.757   0.335  30.871  0.00  0.00    -0.047 SA
BRANCH  10  13
ATOM     13  O   UNL d   1      60.326  -0.238  28.455  0.00  0.00    -0.328 OA
ATOM     14  C   UNL d   1      60.717  -0.970  28.583  0.00  0.00     0.181 C 
ENDBRANCH  10  13
ENDBRANCH   1   4
BRANCH   2  15
ATOM     15  C   UNL d   1      56.682   0.195  32.723  0.00  0.00     0.182 A 
ATOM     16  O   UNL d   1      55.861   0.198  32.724  0.00  0.00    -0.298 OA
ATOM     17  C   UNL d   1      55.455   0.360  33.436  0.00  0.00     0.123 A 
ATOM     18  C   UNL d   1      54.626   0.365  33.446  0.00  0.00     0.027 A 
ATOM     19  C   UNL d   1      55.879   0.513  34.118  0.00  0.00     0.123 A 
ATOM     20  C   UNL d   1      54.234   0.526  34.153  0.00  0.00     0.002 A 
ATOM     21  C   UNL d   1      54.645   0.678  34.835  0.00  0.00     0.002 A 
ATOM     22  C   UNL d   1      55.474   0.673  34.825  0.00  0.00     0.027 A 
ATOM     23  O   UNL d   1      56.708   0.508  34.108  0.00  0.00    -0.301 OA
ATOM     24  C   UNL d   1      57.097   0.348  33.404  0.00  0.00     0.152 A 
ENDBRANCH   2  15
TORSDOF 3
ENDMDL
MODEL 3
REMARK VINA RESULT:      -4.0      1.228      1.663
REMARK  3 active torsions:
REMARK  status: ('A' for Active; 'I' for Inactive)
REMARK    1  A    between atoms: N_3  and  C_1 
REMARK       I    between atoms: C_5  and  N_3 
REMARK    2  A    between atoms: C_6  and  C_5 
REMARK    3  A    between atoms: O_19  and  C_17 
ROOT
ATOM      1  N   UNL d   1      57.096  -0.661  31.625  0.00  0.00    -0.181 NA
ATOM      2  C   UNL d   1      57.436  -0.150  31.076  0.00  0.00     0.306 C 
ATOM      3  O   UNL d   1      57.350   0.682  31.174  0.00  0.00    -0.263 OA
ENDROOT
BRANCH   1   4
ATOM      4  C   UNL d   1      56.673  -0.370  32.269  0.00  0.00     0.197 A 
ATOM      5  N   UNL d   1      57.014  -0.039  32.947  0.00  0.00    -0.221 NA
ATOM      6  C   UNL d   1      56.389   0.178  33.448  0.00  0.00     0.090 A 
ATOM      7  C   UNL d   1      56.389   0.530  34.193  0.00  0.00     0.022 A 
ATOM      8  C   UNL d   1      55.683  -0.020  33.074  0.00  0.00     0.052 A 
ATOM      9  C   UNL d   1      55.661   0.682  34.561  0.00  0.00     0.026 A 
ATOM     10  C   UNL d   1      54.963   0.486  34.191  0.00  0.00     0.095 A 
ATOM     11  C   UNL d   1      54.956   0.132  33.442  0.00  0.00     0.032 A 
ATOM     12  S   UNL d   1      55.869  -0.354  32.354  0.00  0.00    -0.047 SA
BRANCH  10  13
ATOM     13  O   UNL d   1      54.209   0.640  34.564  0.00  0.00    -0.328 OA
ATOM     14  C   UNL d   1      54.167   0.653  35.402  0.00  0.00     0.181 C 
ENDBRANCH  10  13
ENDBRANCH   1   4
BRANCH   2  15
ATOM     15  C   UNL d   1      57.859  -0.441  30.433  0.00  0.00     0.182 A 
ATOM     16  O   UNL d   1      58.008  -1.247  30.388  0.00  0.00    -0.298 OA
ATOM     17  C   UNL d   1      58.437  -1.546  29.736  0.00  0.00     0.123 A 
ATOM     18  C   UNL d   1      58.593  -2.359  29.683  0.00  0.00     0.027 A 
ATOM     19  C   UNL d   1      58.701  -1.034  29.156  0.00  0.00     0.123 A 
ATOM     20  C   UNL d   1      59.017  -2.645  29.036  0.00  0.00     0.002 A 
ATOM     21  C   UNL d   1      59.283  -2.146  28.455  0.00  0.00     0.002 A 
ATOM     22  C   UNL d   1      59.127  -1.334  28.508  0.00  0.00     0.027 A 
ATOM     23  O   UNL d   1      58.545  -0.222  29.209  0.00  0.00    -0.301 OA
ATOM     24  C   UNL d   1      58.123   0.062  29.853  0.00  0.00     0.152 A 
ENDBRANCH   2  15
TORSDOF 3
ENDMDL
MODEL 4
REMARK VINA RESULT:      -2.7      0.865      1.208
REMARK  3 active torsions:
REMARK  status: ('A' for Active; 'I' for Inactive)
REMARK    1  A    between atoms: N_3  and  C_1 
REMARK       I    between atoms: C_5  and  N_3 
REMARK    2  A    between atoms: C_6  and  C_5 
REMARK    3  A    between atoms: O_19  and  C_17 
ROOT
ATOM      1  N   UNL d   1      56.991  -0.568  31.834  0.00  0.00    -0.181 NA
ATOM      2  C   UNL d   1      57.558  -0.086  31.480  0.00  0.00     0.306 C 
ATOM      3  O   UNL d   1      57.707   0.680  31.796  0.00  0.00    -0.263 OA
ENDROOT
BRANCH   1   4
ATOM      4  C   UNL d   1      56.569  -0.312  32.492  0.00  0.00     0.197 A 
ATOM      5  N   UNL d   1      56.908  -0.103  33.219  0.00  0.00    -0.221 NA
ATOM      6  C   UNL d   1      56.285   0.120  33.719  0.00  0.00     0.090 A 
ATOM      7  C   UNL d   1      56.285   0.378  34.502  0.00  0.00     0.022 A 
ATOM      8  C   UNL d   1      55.582   0.046  33.298  0.00  0.00     0.052 A 
ATOM      9  C   UNL d   1      55.559   0.563  34.859  0.00  0.00     0.026 A 
ATOM     10  C   UNL d   1      54.864   0.490  34.442  0.00  0.00     0.095 A 
ATOM     11  C   UNL d   1      54.857   0.231  33.655  0.00  0.00     0.032 A 
ATOM     12  S   UNL d   1      55.768  -0.218  32.549  0.00  0.00    -0.047 SA
BRANCH  10  13
ATOM     13  O   UNL d   1      54.112   0.680  34.803  0.00  0.00    -0.328 OA
ATOM     14  C   UNL d   1      54.047   0.654  35.640  0.00  0.00     0.181 C 
ENDBRANCH  10  13
ENDBRANCH   1   4
BRANCH   2  15
ATOM     15  C   UNL d   1      57.980  -0.343  30.821  0.00  0.00     0.182 A 
ATOM     16  O   UNL d   1      58.548   0.152  30.496  0.00  0.00    -0.298 OA
ATOM     17  C   UNL d   1      58.978  -0.105  29.828  0.00  0.00     0.123 A 
ATOM     18  C   UNL d   1      59.554   0.388  29.493  0.00  0.00     0.027 A 
ATOM     19  C   UNL d   1      58.827  -0.842  29.509  0.00  0.00     0.123 A 
ATOM     20  C   UNL d   1      59.974   0.127  28.834  0.00  0.00     0.002 A 
ATOM     21  C   UNL d   1      59.832  -0.603  28.509  0.00  0.00     0.002 A 
ATOM     22  C   UNL d   1      59.256  -1.096  28.844  0.00  0.00     0.027 A 
ATOM     23  O   UNL d   1      58.251  -1.336  29.843  0.00  0.00    -0.301 OA
ATOM     24  C   UNL d   1      57.835  -1.074  30.499  0.00  0.00     0.152 A 
ENDBRANCH   2  15
TORSDOF 3
ENDMDL
