MODEL 1
REMARK VINA RESULT:       8.4      0.000      0.000
REMARK  5 active torsions:
REMARK  status: ('A' for Active; 'I' for Inactive)
REMARK    1  A    between atoms: N_9  and  S_1 
REMARK    2  A    between atoms: C_11  and  S_1 
REMARK    3  A    between atoms: C_5  and  C_10 
REMARK    4  A    between atoms: C_12  and  N_9 
REMARK    5  A    between atoms: C_10  and  C_12 
ROOT
ATOM      1  C   UNL d   1      44.838 -15.743  36.934  0.00  0.00     0.041 C 
ENDROOT
BRANCH   1   2
ATOM      2  C   UNL d   1      45.480 -15.228  36.855  0.00  0.00     0.090 A 
ATOM      3  N   UNL d   1      45.554 -14.496  37.234  0.00  0.00    -0.238 NA
ATOM      4  C   UNL d   1      46.276 -14.169  36.999  0.00  0.00     0.111 A 
ATOM      5  C   UNL d   1      46.585 -13.435  37.242  0.00  0.00     0.028 C 
ATOM      6  S   UNL d   1      46.646 -14.693  36.480  0.00  0.00    -0.066 SA
ATOM      7  C   UNL d   1      46.149 -15.352  36.391  0.00  0.00     0.056 A 
ENDBRANCH   1   2
BRANCH   1   8
ATOM      8  C   UNL d   1      44.074 -15.484  36.795  0.00  0.00     0.114 C 
BRANCH   8   9
ATOM      9  N   UNL d   1      43.427 -15.894  37.136  0.00  0.00    -0.157 NA
BRANCH   9  10
ATOM     10  S   UNL d   1      42.664 -15.594  37.041  0.00  0.00     0.286 S 
ATOM     11  O   UNL d   1      42.576 -16.053  36.354  0.00  0.00    -0.198 OA
ATOM     12  O   UNL d   1      42.748 -15.135  37.726  0.00  0.00    -0.198 OA
BRANCH  10  13
ATOM     13  C   UNL d   1      41.902 -15.300  36.938  0.00  0.00     0.117 C 
ATOM     14  C   UNL d   1      41.436 -15.584  36.330  0.00  0.00     0.014 C 
ENDBRANCH  10  13
ENDBRANCH   9  10
ENDBRANCH   8   9
ENDBRANCH   1   8
TORSDOF 5
ENDMDL
MODEL 2
REMARK VINA RESULT:      11.2      7.432      8.055
REMARK  5 active torsions:
REMARK  status: ('A' for Active; 'I' for Inactive)
REMARK    1  A    between atoms: N_9  and  S_1 
REMARK    2  A    between atoms: C_11  and  S_1 
REMARK    3  A    between atoms: C_5  and  C_10 
REMARK    4  A    between atoms: C_12  and  N_9 
REMARK    5  A    between atoms: C_10  and  C_12 
ROOT
ATOM      1  C   UNL d   1      45.963 -14.489  44.420  0.00  0.00     0.041 C 
ENDROOT
BRANCH   1   2
ATOM      2  C   UNL d   1      45.756 -15.265  44.611  0.00  0.00     0.090 A 
ATOM      3  N   UNL d   1      46.279 -15.906  44.641  0.00  0.00    -0.238 NA
ATOM      4  C   UNL d   1      45.839 -16.574  44.853  0.00  0.00     0.111 A 
ATOM      5  C   UNL d   1      46.135 -17.346  44.950  0.00  0.00     0.028 C 
ATOM      6  S   UNL d   1      45.052 -16.350  44.954  0.00  0.00    -0.066 SA
ATOM      7  C   UNL d   1      45.001 -15.535  44.803  0.00  0.00     0.056 A 
ENDBRANCH   1   2
BRANCH   1   8
ATOM      8  C   UNL d   1      45.402 -13.892  44.427  0.00  0.00     0.114 C 
BRANCH   8   9
ATOM      9  N   UNL d   1      45.646 -13.090  44.395  0.00  0.00    -0.157 NA
BRANCH   9  10
ATOM     10  S   UNL d   1      45.310 -12.588  43.833  0.00  0.00     0.286 S 
ATOM     11  O   UNL d   1      46.059 -12.258  43.689  0.00  0.00    -0.198 OA
ATOM     12  O   UNL d   1      44.562 -12.916  43.975  0.00  0.00    -0.198 OA
BRANCH  10  13
ATOM     13  C   UNL d   1      44.983 -12.084  43.272  0.00  0.00     0.117 C 
ATOM     14  C   UNL d   1      45.089 -12.239  42.476  0.00  0.00     0.014 C 
ENDBRANCH  10  13
ENDBRANCH   9  10
ENDBRANCH   8   9
ENDBRANCH   1   8
TORSDOF 5
ENDMDL
