MODEL 1
REMARK VINA RESULT:      -2.9      0.000      0.000
REMARK  3 active torsions:
REMARK  status: ('A' for Active; 'I' for Inactive)
REMARK    1  A    between atoms: C_3  and  C_1 
REMARK       I    between atoms: N_7  and  C_3 
REMARK    2  A    between atoms: C_11  and  N_7 
REMARK    3  A    between atoms: O_17  and  C_12 
ROOT
ATOM      1  C   UNL d   1      33.054  20.396 -22.572  0.00  0.00     0.121 A 
ATOM      2  C   UNL d   1      33.176  21.065 -23.003  0.00  0.00     0.305 A 
ATOM      3  C   UNL d   1      32.988  20.445 -21.745  0.00  0.00     0.012 A 
ATOM      4  O   UNL d   1      33.234  21.794 -22.614  0.00  0.00    -0.273 OA
ATOM      5  C   UNL d   1      33.047  21.173 -21.368  0.00  0.00     0.023 A 
ATOM      6  C   UNL d   1      33.169  21.842 -21.799  0.00  0.00     0.103 A 
ATOM      7  O   UNL d   1      33.241  21.014 -23.823  0.00  0.00    -0.259 OA
ATOM      8  C   UNL d   1      32.981  21.219 -20.544  0.00  0.00     0.002 A 
ATOM      9  C   UNL d   1      33.227  22.569 -21.414  0.00  0.00     0.025 A 
ATOM     10  C   UNL d   1      33.162  22.622 -20.590  0.00  0.00     0.002 A 
ATOM     11  C   UNL d   1      33.040  21.953 -20.159  0.00  0.00     0.000 A 
ENDROOT
BRANCH   1  12
ATOM     12  C   UNL d   1      32.995  19.665 -22.954  0.00  0.00     0.284 C 
ATOM     13  N   UNL d   1      32.693  19.003 -22.567  0.00  0.00    -0.208 NA
ATOM     14  O   UNL d   1      33.235  19.564 -23.737  0.00  0.00    -0.265 OA
BRANCH  13  15
ATOM     15  C   UNL d   1      32.645  18.306 -22.956  0.00  0.00     0.085 A 
ATOM     16  C   UNL d   1      33.241  17.731 -22.891  0.00  0.00     0.021 A 
ATOM     17  C   UNL d   1      33.202  17.020 -23.281  0.00  0.00     0.026 A 
ATOM     18  C   UNL d   1      32.522  16.865 -23.772  0.00  0.00     0.094 A 
ATOM     19  C   UNL d   1      31.915  17.451 -23.838  0.00  0.00     0.026 A 
ATOM     20  C   UNL d   1      31.998  18.148 -23.428  0.00  0.00     0.021 A 
BRANCH  18  21
ATOM     21  O   UNL d   1      32.459  16.150 -24.179  0.00  0.00    -0.328 OA
ATOM     22  C   UNL d   1      31.714  15.890 -24.421  0.00  0.00     0.181 C 
ENDBRANCH  18  21
ENDBRANCH  13  15
ENDBRANCH   1  12
TORSDOF 3
ENDMDL
MODEL 2
REMARK VINA RESULT:      -2.9      1.028      4.629
REMARK  3 active torsions:
REMARK  status: ('A' for Active; 'I' for Inactive)
REMARK    1  A    between atoms: C_3  and  C_1 
REMARK       I    between atoms: N_7  and  C_3 
REMARK    2  A    between atoms: C_11  and  N_7 
REMARK    3  A    between atoms: O_17  and  C_12 
ROOT
ATOM      1  C   UNL d   1      32.984  19.218 -23.101  0.00  0.00     0.121 A 
ATOM      2  C   UNL d   1      33.031  19.290 -23.901  0.00  0.00     0.305 A 
ATOM      3  C   UNL d   1      32.950  18.462 -22.757  0.00  0.00     0.012 A 
ATOM      4  O   UNL d   1      33.044  18.608 -24.372  0.00  0.00    -0.273 OA
ATOM      5  C   UNL d   1      32.964  17.791 -23.231  0.00  0.00     0.023 A 
ATOM      6  C   UNL d   1      33.010  17.863 -24.032  0.00  0.00     0.103 A 
ATOM      7  O   UNL d   1      33.065  20.041 -24.241  0.00  0.00    -0.259 OA
ATOM      8  C   UNL d   1      32.929  17.039 -22.887  0.00  0.00     0.002 A 
ATOM      9  C   UNL d   1      33.024  17.185 -24.501  0.00  0.00     0.025 A 
ATOM     10  C   UNL d   1      32.990  16.430 -24.162  0.00  0.00     0.002 A 
ATOM     11  C   UNL d   1      32.943  16.358 -23.362  0.00  0.00     0.000 A 
ENDROOT
BRANCH   1  12
ATOM     12  C   UNL d   1      32.970  19.895 -22.626  0.00  0.00     0.284 C 
ATOM     13  N   UNL d   1      32.696  19.868 -21.850  0.00  0.00    -0.208 NA
ATOM     14  O   UNL d   1      33.229  20.627 -22.907  0.00  0.00    -0.265 OA
BRANCH  13  15
ATOM     15  C   UNL d   1      32.692  20.534 -21.408  0.00  0.00     0.085 A 
ATOM     16  C   UNL d   1      33.236  20.651 -20.793  0.00  0.00     0.021 A 
ATOM     17  C   UNL d   1      33.240  21.324 -20.339  0.00  0.00     0.026 A 
ATOM     18  C   UNL d   1      32.662  21.928 -20.506  0.00  0.00     0.094 A 
ATOM     19  C   UNL d   1      32.107  21.808 -21.133  0.00  0.00     0.026 A 
ATOM     20  C   UNL d   1      32.141  21.118 -21.561  0.00  0.00     0.021 A 
BRANCH  18  21
ATOM     21  O   UNL d   1      32.644  22.622 -20.059  0.00  0.00    -0.328 OA
ATOM     22  C   UNL d   1      32.382  23.320 -20.411  0.00  0.00     0.181 C 
ENDBRANCH  18  21
ENDBRANCH  13  15
ENDBRANCH   1  12
TORSDOF 3
ENDMDL
MODEL 3
REMARK VINA RESULT:      -1.9      2.159      3.695
REMARK  3 active torsions:
REMARK  status: ('A' for Active; 'I' for Inactive)
REMARK    1  A    between atoms: C_3  and  C_1 
REMARK       I    between atoms: N_7  and  C_3 
REMARK    2  A    between atoms: C_11  and  N_7 
REMARK    3  A    between atoms: O_17  and  C_12 
ROOT
ATOM      1  C   UNL d   1      32.712  22.469 -19.598  0.00  0.00     0.121 A 
ATOM      2  C   UNL d   1      32.256  23.133 -19.607  0.00  0.00     0.305 A 
ATOM      3  C   UNL d   1      33.038  22.203 -18.881  0.00  0.00     0.012 A 
ATOM      4  O   UNL d   1      32.119  23.542 -18.899  0.00  0.00    -0.273 OA
ATOM      5  C   UNL d   1      32.896  22.615 -18.185  0.00  0.00     0.023 A 
ATOM      6  C   UNL d   1      32.441  23.279 -18.193  0.00  0.00     0.103 A 
ATOM      7  O   UNL d   1      31.933  23.396 -20.319  0.00  0.00    -0.259 OA
ATOM      8  C   UNL d   1      33.222  22.349 -17.472  0.00  0.00     0.002 A 
ATOM      9  C   UNL d   1      32.303  23.688 -17.490  0.00  0.00     0.025 A 
ATOM     10  C   UNL d   1      32.627  23.426 -16.774  0.00  0.00     0.002 A 
ATOM     11  C   UNL d   1      33.082  22.762 -16.765  0.00  0.00     0.000 A 
ENDROOT
BRANCH   1  12
ATOM     12  C   UNL d   1      32.852  22.057 -20.301  0.00  0.00     0.284 C 
ATOM     13  N   UNL d   1      32.639  21.265 -20.382  0.00  0.00    -0.208 NA
ATOM     14  O   UNL d   1      33.211  22.417 -20.951  0.00  0.00    -0.265 OA
BRANCH  13  15
ATOM     15  C   UNL d   1      32.785  20.885 -21.070  0.00  0.00     0.085 A 
ATOM     16  C   UNL d   1      32.787  21.288 -21.796  0.00  0.00     0.021 A 
ATOM     17  C   UNL d   1      32.933  20.912 -22.500  0.00  0.00     0.026 A 
ATOM     18  C   UNL d   1      33.089  20.074 -22.487  0.00  0.00     0.094 A 
ATOM     19  C   UNL d   1      33.087  19.663 -21.747  0.00  0.00     0.026 A 
ATOM     20  C   UNL d   1      32.936  20.082 -21.067  0.00  0.00     0.021 A 
BRANCH  18  21
ATOM     21  O   UNL d   1      33.241  19.668 -23.189  0.00  0.00    -0.328 OA
ATOM     22  C   UNL d   1      32.939  18.906 -23.286  0.00  0.00     0.181 C 
ENDBRANCH  18  21
ENDBRANCH  13  15
ENDBRANCH   1  12
TORSDOF 3
ENDMDL
MODEL 4
REMARK VINA RESULT:      -0.4      1.567      4.972
REMARK  3 active torsions:
REMARK  status: ('A' for Active; 'I' for Inactive)
REMARK    1  A    between atoms: C_3  and  C_1 
REMARK       I    between atoms: N_7  and  C_3 
REMARK    2  A    between atoms: C_11  and  N_7 
REMARK    3  A    between atoms: O_17  and  C_12 
ROOT
ATOM      1  C   UNL d   1      33.056  20.758 -22.413  0.00  0.00     0.121 A 
ATOM      2  C   UNL d   1      33.176  21.163 -23.098  0.00  0.00     0.305 A 
ATOM      3  C   UNL d   1      32.991  19.930 -22.430  0.00  0.00     0.012 A 
ATOM      4  O   UNL d   1      33.234  20.746 -23.812  0.00  0.00    -0.273 OA
ATOM      5  C   UNL d   1      33.050  19.525 -23.143  0.00  0.00     0.023 A 
ATOM      6  C   UNL d   1      33.170  19.930 -23.828  0.00  0.00     0.103 A 
ATOM      7  O   UNL d   1      33.240  21.985 -23.080  0.00  0.00    -0.259 OA
ATOM      8  C   UNL d   1      32.985  18.700 -23.158  0.00  0.00     0.002 A 
ATOM      9  C   UNL d   1      33.228  19.516 -24.540  0.00  0.00     0.025 A 
ATOM     10  C   UNL d   1      33.164  18.691 -24.561  0.00  0.00     0.002 A 
ATOM     11  C   UNL d   1      33.044  18.286 -23.875  0.00  0.00     0.000 A 
ENDROOT
BRANCH   1  12
ATOM     12  C   UNL d   1      32.997  21.168 -21.697  0.00  0.00     0.284 C 
ATOM     13  N   UNL d   1      32.708  21.939 -21.668  0.00  0.00    -0.208 NA
ATOM     14  O   UNL d   1      33.224  20.825 -20.982  0.00  0.00    -0.265 OA
BRANCH  13  15
ATOM     15  C   UNL d   1      32.660  22.317 -20.965  0.00  0.00     0.085 A 
ATOM     16  C   UNL d   1      32.031  22.181 -20.441  0.00  0.00     0.021 A 
ATOM     17  C   UNL d   1      31.973  22.559 -19.725  0.00  0.00     0.026 A 
ATOM     18  C   UNL d   1      32.583  23.114 -19.511  0.00  0.00     0.094 A 
ATOM     19  C   UNL d   1      33.224  23.253 -20.045  0.00  0.00     0.026 A 
ATOM     20  C   UNL d   1      33.240  22.851 -20.751  0.00  0.00     0.021 A 
BRANCH  18  21
ATOM     21  O   UNL d   1      32.547  23.512 -18.788  0.00  0.00    -0.328 OA
ATOM     22  C   UNL d   1      33.241  23.623 -18.356  0.00  0.00     0.181 C 
ENDBRANCH  18  21
ENDBRANCH  13  15
ENDBRANCH   1  12
TORSDOF 3
ENDMDL
MODEL 5
REMARK VINA RESULT:      -0.4      3.287      4.787
REMARK  3 active torsions:
REMARK  status: ('A' for Active; 'I' for Inactive)
REMARK    1  A    between atoms: C_3  and  C_1 
REMARK       I    between atoms: N_7  and  C_3 
REMARK    2  A    between atoms: C_11  and  N_7 
REMARK    3  A    between atoms: O_17  and  C_12 
ROOT
ATOM      1  C   UNL d   1      31.152  17.100 -24.172  0.00  0.00     0.121 A 
ATOM      2  C   UNL d   1      31.841  16.686 -24.220  0.00  0.00     0.305 A 
ATOM      3  C   UNL d   1      31.151  17.917 -24.329  0.00  0.00     0.012 A 
ATOM      4  O   UNL d   1      32.540  17.081 -24.426  0.00  0.00    -0.273 OA
ATOM      5  C   UNL d   1      31.849  18.300 -24.533  0.00  0.00     0.023 A 
ATOM      6  C   UNL d   1      32.537  17.886 -24.581  0.00  0.00     0.103 A 
ATOM      7  O   UNL d   1      31.841  15.877 -24.064  0.00  0.00    -0.259 OA
ATOM      8  C   UNL d   1      31.845  19.113 -24.689  0.00  0.00     0.002 A 
ATOM      9  C   UNL d   1      33.234  18.277 -24.786  0.00  0.00     0.025 A 
ATOM     10  C   UNL d   1      33.237  19.090 -24.943  0.00  0.00     0.002 A 
ATOM     11  C   UNL d   1      32.548  19.504 -24.895  0.00  0.00     0.000 A 
ENDROOT
BRANCH   1  12
ATOM     12  C   UNL d   1      30.451  16.712 -23.967  0.00  0.00     0.284 C 
ATOM     13  N   UNL d   1      29.715  17.032 -24.152  0.00  0.00    -0.208 NA
ATOM     14  O   UNL d   1      30.457  15.989 -23.570  0.00  0.00    -0.265 OA
BRANCH  13  15
ATOM     15  C   UNL d   1      29.050  16.641 -23.944  0.00  0.00     0.085 A 
ATOM     16  C   UNL d   1      28.912  15.860 -24.189  0.00  0.00     0.021 A 
ATOM     17  C   UNL d   1      28.241  15.453 -23.984  0.00  0.00     0.026 A 
ATOM     18  C   UNL d   1      27.661  15.847 -23.499  0.00  0.00     0.094 A 
ATOM     19  C   UNL d   1      27.802  16.643 -23.249  0.00  0.00     0.026 A 
ATOM     20  C   UNL d   1      28.489  17.011 -23.480  0.00  0.00     0.021 A 
BRANCH  18  21
ATOM     21  O   UNL d   1      26.969  15.455 -23.276  0.00  0.00    -0.328 OA
ATOM     22  C   UNL d   1      26.312  15.487 -23.774  0.00  0.00     0.181 C 
ENDBRANCH  18  21
ENDBRANCH  13  15
ENDBRANCH   1  12
TORSDOF 3
ENDMDL
MODEL 6
REMARK VINA RESULT:      -0.2      3.668      5.695
REMARK  3 active torsions:
REMARK  status: ('A' for Active; 'I' for Inactive)
REMARK    1  A    between atoms: C_3  and  C_1 
REMARK       I    between atoms: N_7  and  C_3 
REMARK    2  A    between atoms: C_11  and  N_7 
REMARK    3  A    between atoms: O_17  and  C_12 
ROOT
ATOM      1  C   UNL d   1      32.235  22.833 -21.307  0.00  0.00     0.121 A 
ATOM      2  C   UNL d   1      31.661  23.280 -21.653  0.00  0.00     0.305 A 
ATOM      3  C   UNL d   1      32.767  22.406 -21.783  0.00  0.00     0.012 A 
ATOM      4  O   UNL d   1      31.610  23.308 -22.480  0.00  0.00    -0.273 OA
ATOM      5  C   UNL d   1      32.708  22.440 -22.602  0.00  0.00     0.023 A 
ATOM      6  C   UNL d   1      32.135  22.887 -22.947  0.00  0.00     0.103 A 
ATOM      7  O   UNL d   1      31.135  23.702 -21.180  0.00  0.00    -0.259 OA
ATOM      8  C   UNL d   1      33.239  22.014 -23.073  0.00  0.00     0.002 A 
ATOM      9  C   UNL d   1      32.082  22.916 -23.770  0.00  0.00     0.025 A 
ATOM     10  C   UNL d   1      32.610  22.492 -24.247  0.00  0.00     0.002 A 
ATOM     11  C   UNL d   1      33.183  22.045 -23.901  0.00  0.00     0.000 A 
ENDROOT
BRANCH   1  12
ATOM     12  C   UNL d   1      32.292  22.800 -20.483  0.00  0.00     0.284 C 
ATOM     13  N   UNL d   1      32.965  23.067 -20.089  0.00  0.00    -0.208 NA
ATOM     14  O   UNL d   1      31.679  22.501 -20.018  0.00  0.00    -0.265 OA
BRANCH  13  15
ATOM     15  C   UNL d   1      32.998  23.027 -19.292  0.00  0.00     0.085 A 
ATOM     16  C   UNL d   1      32.860  23.693 -18.817  0.00  0.00     0.021 A 
ATOM     17  C   UNL d   1      32.892  23.663 -18.007  0.00  0.00     0.026 A 
ATOM     18  C   UNL d   1      33.074  22.917 -17.637  0.00  0.00     0.094 A 
ATOM     19  C   UNL d   1      33.214  22.237 -18.121  0.00  0.00     0.026 A 
ATOM     20  C   UNL d   1      33.172  22.316 -18.928  0.00  0.00     0.021 A 
BRANCH  18  21
ATOM     21  O   UNL d   1      33.112  22.859 -16.814  0.00  0.00    -0.328 OA
ATOM     22  C   UNL d   1      33.114  23.550 -16.363  0.00  0.00     0.181 C 
ENDBRANCH  18  21
ENDBRANCH  13  15
ENDBRANCH   1  12
TORSDOF 3
ENDMDL
