MODEL 1
REMARK VINA RESULT:      31.7      0.000      0.000
REMARK  4 active torsions:
REMARK  status: ('A' for Active; 'I' for Inactive)
REMARK    1  A    between atoms: C_7  and  C_1 
REMARK    2  A    between atoms: C_8  and  C_7 
REMARK       I    between atoms: N_9  and  C_8 
REMARK    3  A    between atoms: C_14  and  N_9 
REMARK    4  A    between atoms: C_15  and  C_14 
ROOT
ATOM      1  C   UNL d   1     -57.200 -98.765 -44.270  0.00  0.00     0.032 A 
ATOM      2  C   UNL d   1     -58.027 -98.765 -44.249  0.00  0.00     0.025 A 
ATOM      3  C   UNL d   1     -56.846 -98.768 -43.526  0.00  0.00     0.123 A 
ATOM      4  O   UNL d   1     -57.587 -98.771 -42.983  0.00  0.00    -0.305 OA
ATOM      5  C   UNL d   1     -58.599 -98.763 -44.847  0.00  0.00     0.002 A 
ATOM      6  C   UNL d   1     -58.266 -98.770 -43.456  0.00  0.00     0.100 A 
ATOM      7  C   UNL d   1     -59.399 -98.765 -44.662  0.00  0.00     0.000 A 
ATOM      8  C   UNL d   1     -59.074 -98.771 -43.269  0.00  0.00     0.025 A 
ATOM      9  C   UNL d   1     -59.637 -98.769 -43.869  0.00  0.00     0.002 A 
ATOM     10  C   UNL d   1     -58.362 -98.759 -45.636  0.00  0.00     0.000 A 
ATOM     11  C   UNL d   1     -59.954 -98.762 -45.255  0.00  0.00     0.000 A 
ATOM     12  C   UNL d   1     -58.925 -98.756 -46.236  0.00  0.00     0.000 A 
ATOM     13  C   UNL d   1     -59.728 -98.758 -46.035  0.00  0.00     0.000 A 
ENDROOT
BRANCH   1  14
ATOM     14  C   UNL d   1     -56.730 -98.761 -44.951  0.00  0.00     0.065 C 
BRANCH  14  15
ATOM     15  C   UNL d   1     -55.977 -99.100 -44.936  0.00  0.00     0.279 C 
ATOM     16  N   UNL d   1     -55.839 -99.775 -44.483  0.00  0.00    -0.206 NA
ATOM     17  O   UNL d   1     -55.367 -98.770 -45.371  0.00  0.00    -0.265 OA
BRANCH  16  18
ATOM     18  C   UNL d   1     -55.096-100.114 -44.465  0.00  0.00     0.102 C 
BRANCH  18  19
ATOM     19  C   UNL d   1     -55.002-100.908 -44.250  0.00  0.00     0.019 A 
ATOM     20  C   UNL d   1     -54.833-101.095 -43.470  0.00  0.00     0.002 A 
ATOM     21  C   UNL d   1     -54.738-101.882 -43.250  0.00  0.00     0.000 A 
ATOM     22  C   UNL d   1     -54.811-102.482 -43.810  0.00  0.00     0.000 A 
ATOM     23  C   UNL d   1     -54.983-102.282 -44.602  0.00  0.00     0.000 A 
ATOM     24  C   UNL d   1     -55.077-101.497 -44.813  0.00  0.00     0.002 A 
ENDBRANCH  18  19
ENDBRANCH  16  18
ENDBRANCH  14  15
ENDBRANCH   1  14
TORSDOF 4
ENDMDL
MODEL 2
REMARK VINA RESULT:      33.2      0.793      1.648
REMARK  4 active torsions:
REMARK  status: ('A' for Active; 'I' for Inactive)
REMARK    1  A    between atoms: C_7  and  C_1 
REMARK    2  A    between atoms: C_8  and  C_7 
REMARK       I    between atoms: N_9  and  C_8 
REMARK    3  A    between atoms: C_14  and  N_9 
REMARK    4  A    between atoms: C_15  and  C_14 
ROOT
ATOM      1  C   UNL d   1     -57.214 -98.763 -44.866  0.00  0.00     0.032 A 
ATOM      2  C   UNL d   1     -58.002 -98.767 -44.616  0.00  0.00     0.025 A 
ATOM      3  C   UNL d   1     -57.122 -98.766 -45.686  0.00  0.00     0.123 A 
ATOM      4  O   UNL d   1     -58.000 -98.774 -45.956  0.00  0.00    -0.305 OA
ATOM      5  C   UNL d   1     -58.347 -98.765 -43.863  0.00  0.00     0.002 A 
ATOM      6  C   UNL d   1     -58.487 -98.774 -45.287  0.00  0.00     0.100 A 
ATOM      7  C   UNL d   1     -59.163 -98.770 -43.778  0.00  0.00     0.000 A 
ATOM      8  C   UNL d   1     -59.312 -98.779 -45.200  0.00  0.00     0.025 A 
ATOM      9  C   UNL d   1     -59.648 -98.777 -44.449  0.00  0.00     0.002 A 
ATOM     10  C   UNL d   1     -57.865 -98.758 -43.195  0.00  0.00     0.000 A 
ATOM     11  C   UNL d   1     -59.495 -98.769 -43.035  0.00  0.00     0.000 A 
ATOM     12  C   UNL d   1     -58.201 -98.757 -42.445  0.00  0.00     0.000 A 
ATOM     13  C   UNL d   1     -59.026 -98.762 -42.372  0.00  0.00     0.000 A 
ENDROOT
BRANCH   1  14
ATOM     14  C   UNL d   1     -56.547 -98.755 -44.377  0.00  0.00     0.065 C 
BRANCH  14  15
ATOM     15  C   UNL d   1     -55.870 -99.177 -44.593  0.00  0.00     0.279 C 
ATOM     16  N   UNL d   1     -55.497 -99.665 -44.042  0.00  0.00    -0.206 NA
ATOM     17  O   UNL d   1     -55.567 -99.113 -45.351  0.00  0.00    -0.265 OA
BRANCH  16  18
ATOM     18  C   UNL d   1     -54.827-100.084 -44.250  0.00  0.00     0.102 C 
BRANCH  18  19
ATOM     19  C   UNL d   1     -54.796-100.905 -44.147  0.00  0.00     0.019 A 
ATOM     20  C   UNL d   1     -54.809-101.215 -43.389  0.00  0.00     0.002 A 
ATOM     21  C   UNL d   1     -54.778-102.029 -43.280  0.00  0.00     0.000 A 
ATOM     22  C   UNL d   1     -54.733-102.534 -43.930  0.00  0.00     0.000 A 
ATOM     23  C   UNL d   1     -54.721-102.209 -44.699  0.00  0.00     0.000 A 
ATOM     24  C   UNL d   1     -54.752-101.397 -44.799  0.00  0.00     0.002 A 
ENDBRANCH  18  19
ENDBRANCH  16  18
ENDBRANCH  14  15
ENDBRANCH   1  14
TORSDOF 4
ENDMDL
