MODEL 1
REMARK VINA RESULT:      60.3      0.000      0.000
REMARK  5 active torsions:
REMARK  status: ('A' for Active; 'I' for Inactive)
REMARK    1  A    between atoms: C_6  and  N_1 
REMARK    2  A    between atoms: C_13  and  C_6 
REMARK    3  A    between atoms: O_11  and  C_7 
REMARK    4  A    between atoms: O_19  and  C_8 
REMARK    5  A    between atoms: C_20  and  O_11 
ROOT
ATOM      1  C   UNL d   1      60.973  47.763  50.594  0.00  0.00     0.122 A 
ATOM      2  C   UNL d   1      61.178  48.524  50.830  0.00  0.00     0.117 A 
ATOM      3  C   UNL d   1      60.602  49.114  50.878  0.00  0.00     0.028 A 
ATOM      4  C   UNL d   1      59.823  48.931  50.688  0.00  0.00     0.020 A 
ATOM      5  C   UNL d   1      60.189  47.590  50.406  0.00  0.00     0.027 A 
ATOM      6  C   UNL d   1      59.620  48.175  50.455  0.00  0.00     0.004 A 
ENDROOT
BRANCH   4   7
ATOM      7  C   UNL d   1      59.250  49.522  50.738  0.00  0.00     0.085 C 
BRANCH   7   8
ATOM      8  N   UNL d   1      58.678  49.589  50.148  0.00  0.00    -0.251 N 
ATOM      9  C   UNL d   1      58.782  49.652  49.322  0.00  0.00     0.378 A 
ATOM     10  O   UNL d   1      58.035  49.705  48.971  0.00  0.00    -0.258 OA
ATOM     11  O   UNL d   1      59.507  49.659  48.932  0.00  0.00    -0.237 OA
ATOM     12  C   UNL d   1      57.468  49.675  49.575  0.00  0.00     0.121 A 
ATOM     13  C   UNL d   1      57.865  49.603  50.302  0.00  0.00     0.092 A 
ATOM     14  C   UNL d   1      56.641  49.703  49.567  0.00  0.00     0.026 A 
ATOM     15  C   UNL d   1      57.443  49.560  51.005  0.00  0.00     0.020 A 
ATOM     16  C   UNL d   1      56.620  49.589  50.986  0.00  0.00     0.002 A 
ATOM     17  C   UNL d   1      56.220  49.660  50.270  0.00  0.00     0.002 A 
ATOM     18  C   UNL d   1      56.200  49.546  51.698  0.00  0.00     0.000 C 
ENDBRANCH   7   8
ENDBRANCH   4   7
BRANCH   2  19
ATOM     19  O   UNL d   1      61.953  48.705  51.018  0.00  0.00    -0.326 OA
ATOM     20  C   UNL d   1      62.111  49.367  51.487  0.00  0.00     0.181 C 
ENDBRANCH   2  19
BRANCH   1  21
ATOM     21  O   UNL d   1      61.544  47.174  50.545  0.00  0.00    -0.305 OA
BRANCH  21  22
ATOM     22  C   UNL d   1      61.323  46.405  50.373  0.00  0.00     0.100 C 
ATOM     23  C   UNL d   1      60.861  45.982  50.900  0.00  0.00     0.027 C 
ATOM     24  C   UNL d   1      61.566  46.054  49.666  0.00  0.00     0.027 C 
ENDBRANCH  21  22
ENDBRANCH   1  21
TORSDOF 5
ENDMDL
