MODEL 1
REMARK VINA RESULT:      -2.5      0.000      0.000
REMARK  4 active torsions:
REMARK  status: ('A' for Active; 'I' for Inactive)
REMARK    1  A    between atoms: C_5  and  N_1 
REMARK    2  A    between atoms: C_7  and  C_5 
REMARK    3  A    between atoms: O_10  and  C_8 
REMARK    4  A    between atoms: C_14  and  O_10 
ROOT
ATOM      1  C   UNL d   1      31.229  17.302 -23.602  0.00  0.00     0.087 C 
ENDROOT
BRANCH   1   2
ATOM      2  N   UNL d   1      30.707  16.671 -23.629  0.00  0.00    -0.251 N 
ATOM      3  C   UNL d   1      30.799  15.900 -23.321  0.00  0.00     0.378 A 
ATOM      4  O   UNL d   1      30.109  15.468 -23.495  0.00  0.00    -0.258 OA
ATOM      5  O   UNL d   1      31.460  15.619 -22.915  0.00  0.00    -0.237 OA
ATOM      6  C   UNL d   1      29.592  15.962 -23.907  0.00  0.00     0.121 A 
ATOM      7  C   UNL d   1      29.958  16.701 -23.990  0.00  0.00     0.092 A 
ATOM      8  C   UNL d   1      28.830  15.846 -24.224  0.00  0.00     0.026 A 
ATOM      9  C   UNL d   1      29.566  17.318 -24.386  0.00  0.00     0.020 A 
ATOM     10  C   UNL d   1      28.813  17.196 -24.696  0.00  0.00     0.002 A 
ATOM     11  C   UNL d   1      28.444  16.459 -24.615  0.00  0.00     0.002 A 
ENDBRANCH   1   2
BRANCH   1  12
ATOM     12  C   UNL d   1      31.901  17.309 -24.076  0.00  0.00     0.041 A 
ATOM     13  C   UNL d   1      32.441  17.922 -24.017  0.00  0.00     0.101 A 
ATOM     14  C   UNL d   1      33.112  17.930 -24.490  0.00  0.00     0.025 A 
ATOM     15  C   UNL d   1      33.241  17.314 -25.028  0.00  0.00     0.002 A 
ATOM     16  C   UNL d   1      32.699  16.693 -25.091  0.00  0.00     0.000 A 
ATOM     17  C   UNL d   1      32.028  16.690 -24.614  0.00  0.00     0.004 A 
BRANCH  13  18
ATOM     18  O   UNL d   1      32.312  18.537 -23.480  0.00  0.00    -0.307 OA
BRANCH  18  19
ATOM     19  C   UNL d   1      32.931  19.050 -23.282  0.00  0.00     0.100 C 
ATOM     20  C   UNL d   1      33.240  19.050 -22.521  0.00  0.00     0.027 C 
ATOM     21  C   UNL d   1      33.237  19.560 -23.853  0.00  0.00     0.027 C 
ENDBRANCH  18  19
ENDBRANCH  13  18
ENDBRANCH   1  12
TORSDOF 4
ENDMDL
MODEL 2
REMARK VINA RESULT:      -1.2      1.191      3.903
REMARK  4 active torsions:
REMARK  status: ('A' for Active; 'I' for Inactive)
REMARK    1  A    between atoms: C_5  and  N_1 
REMARK    2  A    between atoms: C_7  and  C_5 
REMARK    3  A    between atoms: O_10  and  C_8 
REMARK    4  A    between atoms: C_14  and  O_10 
ROOT
ATOM      1  C   UNL d   1      30.331  16.645 -23.751  0.00  0.00     0.087 C 
ENDROOT
BRANCH   1   2
ATOM      2  N   UNL d   1      31.082  16.546 -24.063  0.00  0.00    -0.251 N 
ATOM      3  C   UNL d   1      31.334  16.036 -24.674  0.00  0.00     0.378 A 
ATOM      4  O   UNL d   1      32.152  16.145 -24.782  0.00  0.00    -0.258 OA
ATOM      5  O   UNL d   1      30.853  15.515 -25.095  0.00  0.00    -0.237 OA
ATOM      6  C   UNL d   1      32.409  16.717 -24.245  0.00  0.00     0.121 A 
ATOM      7  C   UNL d   1      31.753  16.964 -23.802  0.00  0.00     0.092 A 
ATOM      8  C   UNL d   1      33.156  17.055 -24.091  0.00  0.00     0.026 A 
ATOM      9  C   UNL d   1      31.842  17.543 -23.212  0.00  0.00     0.020 A 
ATOM     10  C   UNL d   1      32.582  17.872 -23.066  0.00  0.00     0.002 A 
ATOM     11  C   UNL d   1      33.241  17.627 -23.506  0.00  0.00     0.002 A 
ENDBRANCH   1   2
BRANCH   1  12
ATOM     12  C   UNL d   1      29.738  17.001 -24.196  0.00  0.00     0.041 A 
ATOM     13  C   UNL d   1      28.978  16.696 -24.190  0.00  0.00     0.101 A 
ATOM     14  C   UNL d   1      28.386  17.051 -24.634  0.00  0.00     0.025 A 
ATOM     15  C   UNL d   1      28.560  17.721 -25.088  0.00  0.00     0.002 A 
ATOM     16  C   UNL d   1      29.325  18.033 -25.097  0.00  0.00     0.000 A 
ATOM     17  C   UNL d   1      29.916  17.672 -24.650  0.00  0.00     0.004 A 
BRANCH  13  18
ATOM     18  O   UNL d   1      28.804  16.027 -23.736  0.00  0.00    -0.307 OA
BRANCH  18  19
ATOM     19  C   UNL d   1      28.044  15.926 -23.424  0.00  0.00     0.100 C 
ATOM     20  C   UNL d   1      27.495  15.461 -23.819  0.00  0.00     0.027 C 
ATOM     21  C   UNL d   1      27.840  16.294 -22.715  0.00  0.00     0.027 C 
ENDBRANCH  18  19
ENDBRANCH  13  18
ENDBRANCH   1  12
TORSDOF 4
ENDMDL
MODEL 3
REMARK VINA RESULT:      -1.2      1.063      1.627
REMARK  4 active torsions:
REMARK  status: ('A' for Active; 'I' for Inactive)
REMARK    1  A    between atoms: C_5  and  N_1 
REMARK    2  A    between atoms: C_7  and  C_5 
REMARK    3  A    between atoms: O_10  and  C_8 
REMARK    4  A    between atoms: C_14  and  O_10 
ROOT
ATOM      1  C   UNL d   1      31.804  18.105 -23.501  0.00  0.00     0.087 C 
ENDROOT
BRANCH   1   2
ATOM      2  N   UNL d   1      31.584  17.413 -23.880  0.00  0.00    -0.251 N 
ATOM      3  C   UNL d   1      32.048  16.743 -24.060  0.00  0.00     0.378 A 
ATOM      4  O   UNL d   1      31.564  16.189 -24.448  0.00  0.00    -0.258 OA
ATOM      5  O   UNL d   1      32.849  16.649 -23.883  0.00  0.00    -0.237 OA
ATOM      6  C   UNL d   1      30.805  16.508 -24.510  0.00  0.00     0.121 A 
ATOM      7  C   UNL d   1      30.816  17.260 -24.161  0.00  0.00     0.092 A 
ATOM      8  C   UNL d   1      30.094  16.220 -24.838  0.00  0.00     0.026 A 
ATOM      9  C   UNL d   1      30.124  17.720 -24.140  0.00  0.00     0.020 A 
ATOM     10  C   UNL d   1      29.426  17.430 -24.466  0.00  0.00     0.002 A 
ATOM     11  C   UNL d   1      29.411  16.678 -24.815  0.00  0.00     0.002 A 
ENDBRANCH   1   2
BRANCH   1  12
ATOM     12  C   UNL d   1      32.284  18.655 -23.880  0.00  0.00     0.041 A 
ATOM     13  C   UNL d   1      32.694  19.215 -23.445  0.00  0.00     0.101 A 
ATOM     14  C   UNL d   1      33.173  19.764 -23.824  0.00  0.00     0.025 A 
ATOM     15  C   UNL d   1      33.241  19.749 -24.649  0.00  0.00     0.002 A 
ATOM     16  C   UNL d   1      32.830  19.186 -25.092  0.00  0.00     0.000 A 
ATOM     17  C   UNL d   1      32.350  18.637 -24.707  0.00  0.00     0.004 A 
BRANCH  13  18
ATOM     18  O   UNL d   1      32.626  19.230 -22.621  0.00  0.00    -0.307 OA
BRANCH  18  19
ATOM     19  C   UNL d   1      32.975  19.844 -22.190  0.00  0.00     0.100 C 
ATOM     20  C   UNL d   1      33.055  20.590 -22.524  0.00  0.00     0.027 C 
ATOM     21  C   UNL d   1      33.241  19.705 -21.422  0.00  0.00     0.027 C 
ENDBRANCH  18  19
ENDBRANCH  13  18
ENDBRANCH   1  12
TORSDOF 4
ENDMDL
MODEL 4
REMARK VINA RESULT:      -0.1      1.856      4.013
REMARK  4 active torsions:
REMARK  status: ('A' for Active; 'I' for Inactive)
REMARK    1  A    between atoms: C_5  and  N_1 
REMARK    2  A    between atoms: C_7  and  C_5 
REMARK    3  A    between atoms: O_10  and  C_8 
REMARK    4  A    between atoms: C_14  and  O_10 
ROOT
ATOM      1  C   UNL d   1      30.119  15.693 -24.097  0.00  0.00     0.087 C 
ENDROOT
BRANCH   1   2
ATOM      2  N   UNL d   1      30.834  15.714 -23.698  0.00  0.00    -0.251 N 
ATOM      3  C   UNL d   1      30.975  15.754 -22.876  0.00  0.00     0.378 A 
ATOM      4  O   UNL d   1      31.798  15.761 -22.754  0.00  0.00    -0.258 OA
ATOM      5  O   UNL d   1      30.396  15.783 -22.289  0.00  0.00    -0.237 OA
ATOM      6  C   UNL d   1      32.168  15.725 -23.491  0.00  0.00     0.121 A 
ATOM      7  C   UNL d   1      31.577  15.696 -24.072  0.00  0.00     0.092 A 
ATOM      8  C   UNL d   1      32.969  15.714 -23.723  0.00  0.00     0.026 A 
ATOM      9  C   UNL d   1      31.785  15.656 -24.875  0.00  0.00     0.020 A 
ATOM     10  C   UNL d   1      32.577  15.646 -25.097  0.00  0.00     0.002 A 
ATOM     11  C   UNL d   1      33.171  15.675 -24.519  0.00  0.00     0.002 A 
ENDBRANCH   1   2
BRANCH   1  12
ATOM     12  C   UNL d   1      29.654  16.368 -24.157  0.00  0.00     0.041 A 
ATOM     13  C   UNL d   1      28.839  16.316 -24.094  0.00  0.00     0.101 A 
ATOM     14  C   UNL d   1      28.375  16.990 -24.154  0.00  0.00     0.025 A 
ATOM     15  C   UNL d   1      28.735  17.726 -24.279  0.00  0.00     0.002 A 
ATOM     16  C   UNL d   1      29.556  17.784 -24.344  0.00  0.00     0.000 A 
ATOM     17  C   UNL d   1      30.018  17.104 -24.283  0.00  0.00     0.004 A 
BRANCH  13  18
ATOM     18  O   UNL d   1      28.481  15.582 -23.969  0.00  0.00    -0.307 OA
BRANCH  18  19
ATOM     19  C   UNL d   1      27.655  15.520 -23.972  0.00  0.00     0.100 C 
ATOM     20  C   UNL d   1      27.249  15.453 -24.683  0.00  0.00     0.027 C 
ATOM     21  C   UNL d   1      27.242  15.526 -23.259  0.00  0.00     0.027 C 
ENDBRANCH  18  19
ENDBRANCH  13  18
ENDBRANCH   1  12
TORSDOF 4
ENDMDL
