MODEL 1
REMARK VINA RESULT:      -2.0      0.000      0.000
REMARK  1 active torsions:
REMARK  status: ('A' for Active; 'I' for Inactive)
REMARK       I    between atoms: N_2  and  C_1 
REMARK    1  A    between atoms: C_4  and  N_2 
ROOT
ATOM      1  C   UNL d   1      24.392  12.567  -1.329  0.00  0.00     0.101 A 
ATOM      2  C   UNL d   1      24.691  13.264  -1.005  0.00  0.00     0.031 A 
ATOM      3  C   UNL d   1      24.307  13.618  -0.359  0.00  0.00     0.059 A 
ATOM      4 CL   UNL d   1      24.606  14.315  -0.036  0.00  0.00    -0.082 Cl
ATOM      5  C   UNL d   1      23.328  12.577  -0.367  0.00  0.00     0.002 A 
ATOM      6  C   UNL d   1      23.707  12.224  -1.007  0.00  0.00     0.020 A 
ATOM      7  C   UNL d   1      23.628  13.274  -0.043  0.00  0.00     0.011 A 
ENDROOT
BRANCH   1   8
ATOM      8  N   UNL d   1      24.768  12.211  -1.970  0.00  0.00    -0.056 NA
ATOM      9  C   UNL d   1      24.393  12.167  -2.701  0.00  0.00     0.787 C 
ATOM     10  N   UNL d   1      24.767  11.812  -3.342  0.00  0.00     0.064 N 
ATOM     11  N   UNL d   1      23.636  12.483  -2.787  0.00  0.00     0.064 N 
ENDBRANCH   1   8
TORSDOF 1
ENDMDL
