MODEL 1
REMARK VINA RESULT:       5.1      0.000      0.000
REMARK  3 active torsions:
REMARK  status: ('A' for Active; 'I' for Inactive)
REMARK    1  A    between atoms: C_2  and  S_1 
REMARK    2  A    between atoms: N_6  and  S_1 
REMARK    3  A    between atoms: N_3  and  C_5 
ROOT
ATOM      1  C   UNL d   1      45.356 -13.209  43.836  0.00  0.00     0.106 A 
ATOM      2  C   UNL d   1      45.181 -14.016  43.841  0.00  0.00     0.036 A 
ATOM      3  C   UNL d   1      45.534 -14.508  44.401  0.00  0.00     0.127 A 
ATOM      4  C   UNL d   1      45.883 -12.896  44.389  0.00  0.00     0.012 A 
ATOM      5  C   UNL d   1      46.062 -14.195  44.955  0.00  0.00     0.024 A 
ATOM      6  C   UNL d   1      46.237 -13.388  44.949  0.00  0.00     0.002 A 
ATOM      7  C   UNL d   1      46.059 -12.080  44.383  0.00  0.00     0.001 C 
ENDROOT
BRANCH   1   8
ATOM      8  S   UNL d   1      45.000 -12.706  43.271  0.00  0.00     0.272 S 
ATOM      9  O   UNL d   1      44.352 -12.241  43.487  0.00  0.00    -0.200 OA
ATOM     10  O   UNL d   1      45.295 -12.672  42.501  0.00  0.00    -0.200 OA
BRANCH   8  11
ATOM     11  N   UNL d   1      44.800 -12.289  42.587  0.00  0.00    -0.226 N 
ATOM     12  C   UNL d   1      45.388 -12.080  42.039  0.00  0.00     0.111 C 
ATOM     13  C   UNL d   1      44.011 -12.080  42.452  0.00  0.00     0.111 C 
ENDBRANCH   8  11
ENDBRANCH   1   8
BRANCH   3  14
ATOM     14  N   UNL d   1      45.359 -15.315  44.407  0.00  0.00    -0.114 N 
ATOM     15  O   UNL d   1      44.765 -15.602  44.903  0.00  0.00    -0.532 OA
ATOM     16  O   UNL d   1      45.777 -15.833  43.918  0.00  0.00    -0.532 OA
ENDBRANCH   3  14
TORSDOF 3
ENDMDL
MODEL 2
REMARK VINA RESULT:       6.3      0.960      2.971
REMARK  3 active torsions:
REMARK  status: ('A' for Active; 'I' for Inactive)
REMARK    1  A    between atoms: C_2  and  S_1 
REMARK    2  A    between atoms: N_6  and  S_1 
REMARK    3  A    between atoms: N_3  and  C_5 
ROOT
ATOM      1  C   UNL d   1      45.447 -13.630  44.088  0.00  0.00     0.106 A 
ATOM      2  C   UNL d   1      44.922 -13.339  43.522  0.00  0.00     0.036 A 
ATOM      3  C   UNL d   1      44.999 -12.564  43.251  0.00  0.00     0.127 A 
ATOM      4  C   UNL d   1      46.049 -13.146  44.382  0.00  0.00     0.012 A 
ATOM      5  C   UNL d   1      45.601 -12.080  43.545  0.00  0.00     0.024 A 
ATOM      6  C   UNL d   1      46.126 -12.371  44.111  0.00  0.00     0.002 A 
ATOM      7  C   UNL d   1      46.580 -13.441  44.955  0.00  0.00     0.001 C 
ENDROOT
BRANCH   1   8
ATOM      8  S   UNL d   1      45.374 -14.415  44.366  0.00  0.00     0.272 S 
ATOM      9  O   UNL d   1      45.897 -14.995  44.097  0.00  0.00    -0.200 OA
ATOM     10  O   UNL d   1      44.782 -14.610  44.907  0.00  0.00    -0.200 OA
BRANCH   8  11
ATOM     11  N   UNL d   1      45.140 -15.107  44.751  0.00  0.00    -0.226 N 
ATOM     12  C   UNL d   1      45.700 -15.690  44.936  0.00  0.00     0.111 C 
ATOM     13  C   UNL d   1      44.345 -15.216  44.949  0.00  0.00     0.111 C 
ENDBRANCH   8  11
ENDBRANCH   1   8
BRANCH   3  14
ATOM     14  N   UNL d   1      44.474 -12.273  42.684  0.00  0.00    -0.114 N 
ATOM     15  O   UNL d   1      43.688 -12.129  42.890  0.00  0.00    -0.532 OA
ATOM     16  O   UNL d   1      44.734 -12.126  41.914  0.00  0.00    -0.532 OA
ENDBRANCH   3  14
TORSDOF 3
ENDMDL
