MODEL 1
REMARK VINA RESULT:      80.5      0.000      0.000
REMARK  7 active torsions:
REMARK  status: ('A' for Active; 'I' for Inactive)
REMARK    1  A    between atoms: C_4  and  C_1 
REMARK    2  A    between atoms: N_5  and  C_3 
REMARK    3  A    between atoms: C_9  and  C_4 
REMARK       I    between atoms: C_7  and  N_5 
REMARK    4  A    between atoms: C_10  and  C_7 
REMARK       I    between atoms: N_14  and  C_9 
REMARK    5  A    between atoms: C_20  and  N_14 
REMARK    6  A    between atoms: C_21  and  C_20 
REMARK    7  A    between atoms: O_29  and  C_22 
ROOT
ATOM      1  C   UNL d   1     -54.731-101.313 -40.846  0.00  0.00     0.144 C 
ATOM      2  C   UNL d   1     -54.723-100.654 -41.340  0.00  0.00     0.107 C 
ATOM      3  N   UNL d   1     -54.715 -99.995 -41.825  0.00  0.00    -0.191 NA
ENDROOT
BRANCH   1   4
ATOM      4  C   UNL d   1     -54.726-101.222 -40.017  0.00  0.00     0.097 A 
ATOM      5  N   UNL d   1     -54.724-101.793 -39.421  0.00  0.00    -0.226 NA
ATOM      6  C   UNL d   1     -54.718-101.403 -38.692  0.00  0.00     0.166 A 
ATOM      7  C   UNL d   1     -54.717-100.590 -38.836  0.00  0.00     0.037 A 
ATOM      8  C   UNL d   1     -54.722-100.470 -39.656  0.00  0.00     0.021 A 
ATOM      9  C   UNL d   1     -54.712 -99.940 -38.330  0.00  0.00     0.003 A 
ATOM     10  C   UNL d   1     -54.721 -99.709 -39.963  0.00  0.00     0.002 A 
ATOM     11  C   UNL d   1     -54.717 -99.057 -39.457  0.00  0.00     0.000 A 
ATOM     12  C   UNL d   1     -54.712 -99.178 -38.637  0.00  0.00     0.000 A 
BRANCH   6  13
ATOM     13  N   UNL d   1     -54.715-101.722 -37.941  0.00  0.00    -0.189 NA
ATOM     14  C   UNL d   1     -55.312-101.695 -37.358  0.00  0.00     0.286 C 
ATOM     15  O   UNL d   1     -56.013-101.300 -37.534  0.00  0.00    -0.265 OA
BRANCH  14  16
ATOM     16  C   UNL d   1     -55.216-102.051 -36.621  0.00  0.00     0.087 A 
ATOM     17  S   UNL d   1     -54.987-101.598 -35.969  0.00  0.00    -0.082 SA
ATOM     18  C   UNL d   1     -54.938-102.106 -35.317  0.00  0.00     0.036 A 
ATOM     19  C   UNL d   1     -55.137-102.869 -35.568  0.00  0.00     0.008 A 
ATOM     20  C   UNL d   1     -55.309-102.834 -36.373  0.00  0.00     0.012 A 
ENDBRANCH  14  16
ENDBRANCH   6  13
ENDBRANCH   1   4
BRANCH   1  21
ATOM     21  C   UNL d   1     -54.744-102.073 -41.174  0.00  0.00     0.290 C 
ATOM     22  N   UNL d   1     -54.740-102.171 -41.988  0.00  0.00    -0.206 NA
ATOM     23  O   UNL d   1     -54.760-102.734 -40.683  0.00  0.00    -0.264 OA
BRANCH  22  24
ATOM     24  C   UNL d   1     -54.724-101.503 -42.483  0.00  0.00     0.102 C 
BRANCH  24  25
ATOM     25  C   UNL d   1     -54.935-101.353 -43.271  0.00  0.00     0.019 A 
ATOM     26  C   UNL d   1     -55.356-101.921 -43.691  0.00  0.00     0.004 A 
ATOM     27  C   UNL d   1     -55.568-101.779 -44.470  0.00  0.00     0.024 A 
ATOM     28  C   UNL d   1     -55.357-101.063 -44.836  0.00  0.00     0.094 A 
ATOM     29  C   UNL d   1     -54.935-100.496 -44.415  0.00  0.00     0.024 A 
ATOM     30  C   UNL d   1     -54.724-100.646 -43.628  0.00  0.00     0.004 A 
BRANCH  28  31
ATOM     31  O   UNL d   1     -55.568-100.919 -45.617  0.00  0.00    -0.328 OA
ATOM     32  C   UNL d   1     -55.206-101.335 -46.233  0.00  0.00     0.181 C 
ENDBRANCH  28  31
ENDBRANCH  24  25
ENDBRANCH  22  24
ENDBRANCH   1  21
TORSDOF 7
ENDMDL
