MODEL 1
REMARK VINA RESULT:      35.1      0.000      0.000
REMARK  6 active torsions:
REMARK  status: ('A' for Active; 'I' for Inactive)
REMARK    1  A    between atoms: S_9  and  C_4 
REMARK    2  A    between atoms: C_15  and  S_9 
REMARK    3  A    between atoms: C_11  and  C_15 
REMARK    4  A    between atoms: O_14  and  C_11 
REMARK    5  A    between atoms: C_17  and  O_14 
REMARK    6  A    between atoms: C_18  and  C_17 
ROOT
ATOM      1  C   UNL d   1      15.552  15.234  -0.718  0.00  0.00     0.104 A 
ATOM      2  N   UNL d   1      15.624  13.825  -0.510  0.00  0.00    -0.251 N 
ATOM      3  C   UNL d   1      15.944  14.588  -0.415  0.00  0.00     0.274 A 
ATOM      4  C   UNL d   1      14.910  13.729  -0.911  0.00  0.00     0.182 A 
ATOM      5  C   UNL d   1      14.838  15.138  -1.120  0.00  0.00     0.095 A 
ATOM      6  N   UNL d   1      14.516  14.397  -1.218  0.00  0.00    -0.222 NA
ATOM      7  S   UNL d   1      15.731  16.037  -0.710  0.00  0.00    -0.081 SA
ATOM      8  C   UNL d   1      14.576  15.882  -1.359  0.00  0.00     0.026 A 
ATOM      9  O   UNL d   1      16.659  14.684  -0.014  0.00  0.00    -0.266 OA
ATOM     10  C   UNL d   1      15.123  16.435  -1.108  0.00  0.00     0.031 A 
ATOM     11  C   UNL d   1      16.022  13.163  -0.202  0.00  0.00     0.104 C 
ATOM     12  C   UNL d   1      15.069  17.248  -1.236  0.00  0.00     0.007 C 
ENDROOT
BRANCH   4  13
ATOM     13  S   UNL d   1      14.580  12.970  -1.011  0.00  0.00    -0.044 SA
BRANCH  13  14
ATOM     14  C   UNL d   1      14.029  12.841  -1.612  0.00  0.00     0.107 C 
BRANCH  14  15
ATOM     15  C   UNL d   1      13.525  12.188  -1.576  0.00  0.00     0.307 C 
ATOM     16  O   UNL d   1      13.429  11.779  -0.864  0.00  0.00    -0.258 OA
BRANCH  15  17
ATOM     17  O   UNL d   1      13.118  11.943  -2.250  0.00  0.00    -0.271 OA
BRANCH  17  18
ATOM     18  C   UNL d   1      13.530  11.800  -2.951  0.00  0.00     0.126 C 
BRANCH  18  19
ATOM     19  C   UNL d   1      13.314  12.192  -3.640  0.00  0.00     0.025 A 
ATOM     20  C   UNL d   1      13.165  13.003  -3.623  0.00  0.00     0.002 A 
ATOM     21  C   UNL d   1      12.948  13.396  -4.316  0.00  0.00     0.000 A 
ATOM     22  C   UNL d   1      12.880  12.978  -5.024  0.00  0.00     0.000 A 
ATOM     23  C   UNL d   1      13.028  12.173  -5.035  0.00  0.00     0.000 A 
ATOM     24  C   UNL d   1      13.245  11.780  -4.343  0.00  0.00     0.002 A 
ENDBRANCH  18  19
ENDBRANCH  17  18
ENDBRANCH  15  17
ENDBRANCH  14  15
ENDBRANCH  13  14
ENDBRANCH   4  13
TORSDOF 6
ENDMDL
