MODEL 1
REMARK VINA RESULT:     143.4      0.000      0.000
REMARK  5 active torsions:
REMARK  status: ('A' for Active; 'I' for Inactive)
REMARK    1  A    between atoms: S_5  and  C_3 
REMARK    2  A    between atoms: C_13  and  S_5 
REMARK    3  A    between atoms: C_23  and  N_7 
REMARK    4  A    between atoms: C_30  and  C_23 
REMARK    5  A    between atoms: O_29  and  C_30 
ROOT
ATOM      1  C   UNL d   1      60.239  46.876  50.985  0.00  0.00     0.155 A 
ATOM      2  C   UNL d   1      61.010  46.876  50.718  0.00  0.00     0.092 A 
ATOM      3  C   UNL d   1      61.032  45.464  50.781  0.00  0.00     0.124 A 
ATOM      4  N   UNL d   1      59.837  47.578  51.089  0.00  0.00    -0.210 NA
ATOM      5  N   UNL d   1      60.975  48.297  50.660  0.00  0.00    -0.258 N 
ATOM      6  N   UNL d   1      59.858  46.171  51.151  0.00  0.00    -0.271 N 
ATOM      7  C   UNL d   1      60.204  48.288  50.927  0.00  0.00     0.152 A 
ATOM      8  C   UNL d   1      60.261  45.464  51.047  0.00  0.00     0.181 A 
ATOM      9  C   UNL d   1      61.382  47.585  50.555  0.00  0.00     0.269 A 
ATOM     10  C   UNL d   1      61.412  46.174  50.614  0.00  0.00     0.022 A 
ATOM     11  C   UNL d   1      59.802  48.989  51.031  0.00  0.00     0.035 A 
ATOM     12  C   UNL d   1      61.347  49.006  50.496  0.00  0.00     0.084 A 
ATOM     13  N   UNL d   1      59.872  44.741  51.217  0.00  0.00    -0.128 N 
ATOM     14  O   UNL d   1      62.174  47.594  50.281  0.00  0.00    -0.266 OA
ATOM     15  C   UNL d   1      60.940  49.708  50.602  0.00  0.00     0.019 A 
ATOM     16  C   UNL d   1      60.169  49.700  50.869  0.00  0.00     0.005 A 
ATOM     17  C   UNL d   1      59.010  48.981  51.305  0.00  0.00     0.003 C 
ENDROOT
BRANCH   3  18
ATOM     18  S   UNL d   1      61.435  44.745  50.677  0.00  0.00     0.213 S 
ATOM     19  O   UNL d   1      61.531  44.899  49.862  0.00  0.00    -0.217 OA
ATOM     20  O   UNL d   1      61.344  44.583  51.486  0.00  0.00    -0.217 OA
BRANCH  18  21
ATOM     21  C   UNL d   1      61.839  44.020  50.585  0.00  0.00     0.088 A 
ATOM     22  C   UNL d   1      62.129  43.796  49.843  0.00  0.00     0.014 A 
ATOM     23  C   UNL d   1      62.531  43.074  49.755  0.00  0.00     0.030 A 
ATOM     24  C   UNL d   1      62.641  42.577  50.415  0.00  0.00     0.140 A 
ATOM     25  C   UNL d   1      62.344  42.810  51.165  0.00  0.00     0.030 A 
ATOM     26  F   UNL d   1      63.045  41.847  50.330  0.00  0.00    -0.204 F 
ATOM     27  C   UNL d   1      61.946  43.528  51.245  0.00  0.00     0.014 A 
ENDBRANCH  18  21
ENDBRANCH   3  18
BRANCH   6  28
ATOM     28  C   UNL d   1      59.075  46.171  51.421  0.00  0.00     0.109 C 
BRANCH  28  29
ATOM     29  C   UNL d   1      58.495  45.733  51.016  0.00  0.00     0.135 C 
BRANCH  29  30
ATOM     30  O   UNL d   1      57.687  45.943  51.087  0.00  0.00    -0.325 OA
ATOM     31  C   UNL d   1      57.103  45.350  51.096  0.00  0.00     0.182 C 
ENDBRANCH  29  30
ENDBRANCH  28  29
ENDBRANCH   6  28
TORSDOF 5
ENDMDL
MODEL 2
REMARK VINA RESULT:     144.2      1.619      2.418
REMARK  5 active torsions:
REMARK  status: ('A' for Active; 'I' for Inactive)
REMARK    1  A    between atoms: S_5  and  C_3 
REMARK    2  A    between atoms: C_13  and  S_5 
REMARK    3  A    between atoms: C_23  and  N_7 
REMARK    4  A    between atoms: C_30  and  C_23 
REMARK    5  A    between atoms: O_29  and  C_30 
ROOT
ATOM      1  C   UNL d   1      61.124  46.952  50.562  0.00  0.00     0.155 A 
ATOM      2  C   UNL d   1      60.987  46.802  51.352  0.00  0.00     0.092 A 
ATOM      3  C   UNL d   1      61.236  45.427  51.133  0.00  0.00     0.124 A 
ATOM      4  N   UNL d   1      61.070  47.712  50.270  0.00  0.00    -0.210 NA
ATOM      5  N   UNL d   1      60.740  48.187  51.559  0.00  0.00    -0.258 N 
ATOM      6  N   UNL d   1      61.317  46.342  50.051  0.00  0.00    -0.271 N 
ATOM      7  C   UNL d   1      60.878  48.330  50.767  0.00  0.00     0.152 A 
ATOM      8  C   UNL d   1      61.372  45.578  50.344  0.00  0.00     0.181 A 
ATOM      9  C   UNL d   1      60.795  47.418  51.854  0.00  0.00     0.269 A 
ATOM     10  C   UNL d   1      61.042  46.042  51.644  0.00  0.00     0.022 A 
ATOM     11  C   UNL d   1      60.824  49.088  50.475  0.00  0.00     0.035 A 
ATOM     12  C   UNL d   1      60.548  48.803  52.061  0.00  0.00     0.084 A 
ATOM     13  N   UNL d   1      61.570  44.952  49.821  0.00  0.00    -0.128 N 
ATOM     14  O   UNL d   1      60.654  47.271  52.667  0.00  0.00    -0.266 OA
ATOM     15  C   UNL d   1      60.495  49.563  51.764  0.00  0.00     0.019 A 
ATOM     16  C   UNL d   1      60.632  49.706  50.972  0.00  0.00     0.005 A 
ATOM     17  C   UNL d   1      60.965  49.235  49.662  0.00  0.00     0.003 C 
ENDROOT
BRANCH   3  18
ATOM     18  S   UNL d   1      61.293  44.651  51.424  0.00  0.00     0.213 S 
ATOM     19  O   UNL d   1      62.102  44.760  51.597  0.00  0.00    -0.217 OA
ATOM     20  O   UNL d   1      60.489  44.534  51.254  0.00  0.00    -0.217 OA
BRANCH  18  21
ATOM     21  C   UNL d   1      61.337  43.869  51.713  0.00  0.00     0.088 A 
ATOM     22  C   UNL d   1      61.207  43.714  52.515  0.00  0.00     0.014 A 
ATOM     23  C   UNL d   1      61.252  42.934  52.800  0.00  0.00     0.030 A 
ATOM     24  C   UNL d   1      61.429  42.311  52.277  0.00  0.00     0.140 A 
ATOM     25  C   UNL d   1      61.561  42.475  51.464  0.00  0.00     0.030 A 
ATOM     26  F   UNL d   1      61.476  41.523  52.560  0.00  0.00    -0.204 F 
ATOM     27  C   UNL d   1      61.514  43.251  51.188  0.00  0.00     0.014 A 
ENDBRANCH  18  21
ENDBRANCH   3  18
BRANCH   6  28
ATOM     28  C   UNL d   1      61.455  46.496  49.248  0.00  0.00     0.109 C 
BRANCH  28  29
ATOM     29  C   UNL d   1      62.014  46.044  48.830  0.00  0.00     0.135 C 
BRANCH  29  30
ATOM     30  O   UNL d   1      62.833  46.173  48.952  0.00  0.00    -0.325 OA
ATOM     31  C   UNL d   1      63.157  46.929  48.828  0.00  0.00     0.182 C 
ENDBRANCH  29  30
ENDBRANCH  28  29
ENDBRANCH   6  28
TORSDOF 5
ENDMDL
