MODEL 1
REMARK VINA RESULT:      41.3      0.000      0.000
REMARK  6 active torsions:
REMARK  status: ('A' for Active; 'I' for Inactive)
REMARK    1  A    between atoms: C_9  and  N_1 
REMARK    2  A    between atoms: C_3  and  C_2 
REMARK    3  A    between atoms: C_12  and  C_9 
REMARK    4  A    between atoms: C_15  and  C_9 
REMARK    5  A    between atoms: C_20  and  C_15 
REMARK    6  A    between atoms: C_17  and  C_20 
ROOT
ATOM      1  N   UNL d   1      14.815  13.483  -1.020  0.00  0.00    -0.254 N 
ATOM      2  C   UNL d   1      15.072  14.724  -1.157  0.00  0.00     0.093 A 
ATOM      3  C   UNL d   1      15.373  13.615  -0.516  0.00  0.00     0.153 A 
ATOM      4  C   UNL d   1      14.602  14.140  -1.434  0.00  0.00     0.272 A 
ATOM      5  S   UNL d   1      15.546  14.398  -0.592  0.00  0.00    -0.053 SA
ATOM      6  S   UNL d   1      15.701  13.039  -0.015  0.00  0.00    -0.052 SA
ATOM      7  O   UNL d   1      14.036  14.216  -2.011  0.00  0.00    -0.266 OA
ENDROOT
BRANCH   2   8
ATOM      8  C   UNL d   1      15.067  15.509  -1.408  0.00  0.00     0.070 A 
ATOM      9  C   UNL d   1      15.153  16.075  -0.833  0.00  0.00     0.280 A 
ATOM     10  N   UNL d   1      15.135  16.833  -1.186  0.00  0.00    -0.208 NA
ATOM     11  O   UNL d   1      15.245  15.931  -0.024  0.00  0.00    -0.265 OA
ATOM     12  C   UNL d   1      15.035  16.720  -1.995  0.00  0.00     0.085 A 
ATOM     13  C   UNL d   1      14.992  15.907  -2.144  0.00  0.00     0.023 A 
ATOM     14  C   UNL d   1      14.976  17.259  -2.632  0.00  0.00     0.019 A 
ATOM     15  C   UNL d   1      14.895  15.638  -2.882  0.00  0.00     0.002 A 
ATOM     16  C   UNL d   1      14.837  16.140  -3.500  0.00  0.00     0.000 A 
ATOM     17  C   UNL d   1      14.877  16.988  -3.394  0.00  0.00     0.002 A 
ENDBRANCH   2   8
BRANCH   1  18
ATOM     18  C   UNL d   1      14.484  12.688  -1.095  0.00  0.00     0.133 C 
BRANCH  18  19
ATOM     19  C   UNL d   1      14.267  12.303  -0.386  0.00  0.00     0.228 C 
ATOM     20  O   UNL d   1      14.746  11.783  -0.021  0.00  0.00    -0.643 OA
ATOM     21  O   UNL d   1      13.507  12.498  -0.074  0.00  0.00    -0.643 OA
ENDBRANCH  18  19
BRANCH  18  22
ATOM     22  C   UNL d   1      14.392  12.342  -1.815  0.00  0.00     0.030 C 
BRANCH  22  23
ATOM     23  C   UNL d   1      13.633  12.085  -2.008  0.00  0.00     0.072 C 
BRANCH  23  24
ATOM     24  C   UNL d   1      13.521  11.876  -2.832  0.00  0.00     0.211 C 
ATOM     25  O   UNL d   1      12.772  11.780  -3.146  0.00  0.00    -0.644 OA
ATOM     26  O   UNL d   1      14.194  11.781  -3.275  0.00  0.00    -0.644 OA
ENDBRANCH  23  24
ENDBRANCH  22  23
ENDBRANCH  18  22
ENDBRANCH   1  18
TORSDOF 6
ENDMDL
