MODEL 1
REMARK VINA RESULT:      -3.1      0.000      0.000
REMARK  4 active torsions:
REMARK  status: ('A' for Active; 'I' for Inactive)
REMARK    1  A    between atoms: N_3  and  S_1 
REMARK    2  A    between atoms: C_5  and  S_1 
REMARK    3  A    between atoms: C_2  and  C_9 
REMARK       I    between atoms: N_4  and  C_2 
REMARK    4  A    between atoms: C_11  and  N_3 
ROOT
ATOM      1  C   UNL d   1     -41.700-122.412 -51.983  0.00  0.00     0.057 A 
ATOM      2  C   UNL d   1     -42.230-123.343 -50.733  0.00  0.00     0.094 A 
ATOM      3  C   UNL d   1     -42.406-122.222 -51.597  0.00  0.00     0.006 A 
ATOM      4  C   UNL d   1     -41.258-123.066 -51.746  0.00  0.00     0.006 A 
ATOM      5  C   UNL d   1     -42.669-122.691 -50.971  0.00  0.00     0.020 A 
ATOM      6  C   UNL d   1     -41.517-123.534 -51.124  0.00  0.00     0.020 A 
ENDROOT
BRANCH   2   7
ATOM      7  N   UNL d   1     -42.489-123.810 -50.111  0.00  0.00    -0.158 NA
BRANCH   7   8
ATOM      8  S   UNL d   1     -42.256-123.632 -49.337  0.00  0.00     0.285 S 
ATOM      9  O   UNL d   1     -43.041-123.485 -49.129  0.00  0.00    -0.198 OA
ATOM     10  O   UNL d   1     -41.471-123.780 -49.548  0.00  0.00    -0.198 OA
BRANCH   8  11
ATOM     11  C   UNL d   1     -42.021-123.456 -48.568  0.00  0.00     0.107 A 
ATOM     12  C   UNL d   1     -42.456-122.915 -48.117  0.00  0.00     0.043 A 
ATOM     13  C   UNL d   1     -42.221-122.736 -47.344  0.00  0.00     0.141 A 
ATOM     14  F   UNL d   1     -42.654-122.192 -46.884  0.00  0.00    -0.204 F 
ATOM     15  C   UNL d   1     -41.553-123.099 -47.025  0.00  0.00     0.030 A 
ATOM     16  C   UNL d   1     -41.123-123.636 -47.474  0.00  0.00     0.003 A 
ATOM     17  C   UNL d   1     -41.353-123.817 -48.245  0.00  0.00     0.013 A 
ENDBRANCH   8  11
ENDBRANCH   7   8
ENDBRANCH   2   7
BRANCH   1  18
ATOM     18  C   UNL d   1     -41.428-121.939 -52.621  0.00  0.00     0.265 C 
ATOM     19  N   UNL d   1     -41.460-122.236 -53.393  0.00  0.00    -0.272 N 
ATOM     20  C   UNL d   1     -41.192-121.771 -54.022  0.00  0.00     0.083 A 
ATOM     21  C   UNL d   1     -41.756-122.988 -53.537  0.00  0.00     0.083 A 
ATOM     22  C   UNL d   1     -41.223-122.065 -54.792  0.00  0.00     0.019 A 
ATOM     23  C   UNL d   1     -41.520-122.815 -54.921  0.00  0.00     0.003 A 
ATOM     24  C   UNL d   1     -41.786-123.276 -54.300  0.00  0.00     0.019 A 
ATOM     25  O   UNL d   1     -41.128-121.177 -52.472  0.00  0.00    -0.267 OA
ENDBRANCH   1  18
TORSDOF 4
ENDMDL
MODEL 2
REMARK VINA RESULT:      -1.9      2.441      5.343
REMARK  4 active torsions:
REMARK  status: ('A' for Active; 'I' for Inactive)
REMARK    1  A    between atoms: N_3  and  S_1 
REMARK    2  A    between atoms: C_5  and  S_1 
REMARK    3  A    between atoms: C_2  and  C_9 
REMARK       I    between atoms: N_4  and  C_2 
REMARK    4  A    between atoms: C_11  and  N_3 
ROOT
ATOM      1  C   UNL d   1     -41.934-122.560 -50.930  0.00  0.00     0.057 A 
ATOM      2  C   UNL d   1     -41.807-123.205 -52.439  0.00  0.00     0.094 A 
ATOM      3  C   UNL d   1     -42.603-122.613 -51.413  0.00  0.00     0.006 A 
ATOM      4  C   UNL d   1     -41.202-122.828 -51.198  0.00  0.00     0.006 A 
ATOM      5  C   UNL d   1     -42.536-122.937 -52.170  0.00  0.00     0.020 A 
ATOM      6  C   UNL d   1     -41.133-123.150 -51.949  0.00  0.00     0.020 A 
ENDROOT
BRANCH   2   7
ATOM      7  N   UNL d   1     -41.738-123.527 -53.190  0.00  0.00    -0.158 NA
BRANCH   7   8
ATOM      8  S   UNL d   1     -41.751-123.032 -53.853  0.00  0.00     0.285 S 
ATOM      9  O   UNL d   1     -41.149-122.571 -53.527  0.00  0.00    -0.198 OA
ATOM     10  O   UNL d   1     -42.353-123.496 -54.177  0.00  0.00    -0.198 OA
BRANCH   8  11
ATOM     11  C   UNL d   1     -41.766-122.542 -54.514  0.00  0.00     0.107 A 
ATOM     12  C   UNL d   1     -42.363-122.629 -55.081  0.00  0.00     0.043 A 
ATOM     13  C   UNL d   1     -42.380-122.137 -55.745  0.00  0.00     0.141 A 
ATOM     14  F   UNL d   1     -42.978-122.219 -56.320  0.00  0.00    -0.204 F 
ATOM     15  C   UNL d   1     -41.799-121.559 -55.841  0.00  0.00     0.030 A 
ATOM     16  C   UNL d   1     -41.207-121.473 -55.278  0.00  0.00     0.003 A 
ATOM     17  C   UNL d   1     -41.187-121.962 -54.614  0.00  0.00     0.013 A 
ENDBRANCH   8  11
ENDBRANCH   7   8
ENDBRANCH   2   7
BRANCH   1  18
ATOM     18  C   UNL d   1     -41.996-122.232 -50.160  0.00  0.00     0.265 C 
ATOM     19  N   UNL d   1     -42.380-122.658 -49.563  0.00  0.00    -0.272 N 
ATOM     20  C   UNL d   1     -42.442-122.336 -48.804  0.00  0.00     0.083 A 
ATOM     21  C   UNL d   1     -42.700-123.398 -49.720  0.00  0.00     0.083 A 
ATOM     22  C   UNL d   1     -42.824-122.759 -48.208  0.00  0.00     0.019 A 
ATOM     23  C   UNL d   1     -43.137-123.494 -48.379  0.00  0.00     0.003 A 
ATOM     24  C   UNL d   1     -43.077-123.814 -49.129  0.00  0.00     0.019 A 
ATOM     25  O   UNL d   1     -41.672-121.481 -50.002  0.00  0.00    -0.267 OA
ENDBRANCH   1  18
TORSDOF 4
ENDMDL
