MODEL 1
REMARK VINA RESULT:      -7.3      0.000      0.000
REMARK  3 active torsions:
REMARK  status: ('A' for Active; 'I' for Inactive)
REMARK    1  A    between atoms: C_13  and  C_4 
REMARK    2  A    between atoms: O_15  and  C_13 
REMARK    3  A    between atoms: C_16  and  O_15 
ROOT
ATOM      1  C   UNL d   1      51.761  34.265  52.976  0.00  0.00     0.144 C 
ENDROOT
BRANCH   1   2
ATOM      2  C   UNL d   1      52.385  34.069  53.461  0.00  0.00     0.142 A 
ATOM      3  N   UNL d   1      52.801  34.568  53.966  0.00  0.00    -0.057 NA
ATOM      4  C   UNL d   1      53.390  34.142  54.354  0.00  0.00     0.735 A 
ATOM      5  N   UNL d   1      53.353  33.349  54.093  0.00  0.00    -0.136 N 
ATOM      6  N   UNL d   1      53.955  34.358  54.907  0.00  0.00    -0.059 NA
ATOM      7  C   UNL d   1      52.729  33.323  53.544  0.00  0.00     0.120 A 
ATOM      8  C   UNL d   1      53.877  32.785  54.385  0.00  0.00     0.100 A 
ATOM      9  C   UNL d   1      54.437  32.980  54.927  0.00  0.00     0.041 A 
ATOM     10  C   UNL d   1      54.494  33.784  55.209  0.00  0.00     0.119 A 
ENDBRANCH   1   2
BRANCH   1  11
ATOM     11  O   UNL d   1      50.994  34.090  53.199  0.00  0.00    -0.303 OA
BRANCH  11  12
ATOM     12  C   UNL d   1      50.355  34.326  52.733  0.00  0.00     0.100 A 
ATOM     13  C   UNL d   1      49.777  34.799  53.060  0.00  0.00     0.025 A 
ATOM     14  C   UNL d   1      49.138  35.036  52.598  0.00  0.00     0.013 A 
ATOM     15  C   UNL d   1      48.538  35.528  52.939  0.00  0.00     0.001 C 
ATOM     16  C   UNL d   1      49.076  34.800  51.806  0.00  0.00     0.058 A 
ATOM     17  C   UNL d   1      49.655  34.327  51.479  0.00  0.00     0.013 A 
ATOM     18 CL   UNL d   1      48.436  35.031  51.324  0.00  0.00    -0.082 Cl
ATOM     19  C   UNL d   1      50.294  34.090  51.945  0.00  0.00     0.026 A 
ENDBRANCH  11  12
ENDBRANCH   1  11
TORSDOF 3
ENDMDL
MODEL 2
REMARK VINA RESULT:      -7.1      2.301      4.826
REMARK  3 active torsions:
REMARK  status: ('A' for Active; 'I' for Inactive)
REMARK    1  A    between atoms: C_13  and  C_4 
REMARK    2  A    between atoms: O_15  and  C_13 
REMARK    3  A    between atoms: C_16  and  O_15 
ROOT
ATOM      1  C   UNL d   1      51.489  33.834  53.318  0.00  0.00     0.144 C 
ENDROOT
BRANCH   1   2
ATOM      2  C   UNL d   1      50.830  34.103  52.923  0.00  0.00     0.142 A 
ATOM      3  N   UNL d   1      50.219  34.564  53.227  0.00  0.00    -0.057 NA
ATOM      4  C   UNL d   1      49.663  34.710  52.637  0.00  0.00     0.735 A 
ATOM      5  N   UNL d   1      49.920  34.335  51.936  0.00  0.00    -0.136 N 
ATOM      6  N   UNL d   1      48.958  35.129  52.634  0.00  0.00    -0.059 NA
ATOM      7  C   UNL d   1      50.640  33.967  52.131  0.00  0.00     0.120 A 
ATOM      8  C   UNL d   1      49.475  34.383  51.245  0.00  0.00     0.100 A 
ATOM      9  C   UNL d   1      48.783  34.790  51.225  0.00  0.00     0.041 A 
ATOM     10  C   UNL d   1      48.499  35.181  51.929  0.00  0.00     0.119 A 
ENDBRANCH   1   2
BRANCH   1  11
ATOM     11  O   UNL d   1      52.201  34.232  53.252  0.00  0.00    -0.303 OA
BRANCH  11  12
ATOM     12  C   UNL d   1      52.849  34.015  53.714  0.00  0.00     0.100 A 
ATOM     13  C   UNL d   1      53.319  33.393  53.474  0.00  0.00     0.025 A 
ATOM     14  C   UNL d   1      53.967  33.174  53.932  0.00  0.00     0.013 A 
ATOM     15  C   UNL d   1      54.455  32.528  53.682  0.00  0.00     0.001 C 
ATOM     16  C   UNL d   1      54.147  33.579  54.634  0.00  0.00     0.058 A 
ATOM     17  C   UNL d   1      53.677  34.200  54.873  0.00  0.00     0.013 A 
ATOM     18 CL   UNL d   1      54.799  33.370  55.110  0.00  0.00    -0.082 Cl
ATOM     19  C   UNL d   1      53.027  34.417  54.411  0.00  0.00     0.026 A 
ENDBRANCH  11  12
ENDBRANCH   1  11
TORSDOF 3
ENDMDL
MODEL 3
REMARK VINA RESULT:      -6.9      3.010      4.443
REMARK  3 active torsions:
REMARK  status: ('A' for Active; 'I' for Inactive)
REMARK    1  A    between atoms: C_13  and  C_4 
REMARK    2  A    between atoms: O_15  and  C_13 
REMARK    3  A    between atoms: C_16  and  O_15 
ROOT
ATOM      1  C   UNL d   1      53.266  32.376  53.381  0.00  0.00     0.144 C 
ENDROOT
BRANCH   1   2
ATOM      2  C   UNL d   1      53.247  33.123  53.706  0.00  0.00     0.142 A 
ATOM      3  N   UNL d   1      53.611  33.375  54.399  0.00  0.00    -0.057 NA
ATOM      4  C   UNL d   1      53.449  34.174  54.522  0.00  0.00     0.735 A 
ATOM      5  N   UNL d   1      52.970  34.443  53.893  0.00  0.00    -0.136 N 
ATOM      6  N   UNL d   1      53.667  34.697  55.114  0.00  0.00    -0.059 NA
ATOM      7  C   UNL d   1      52.856  33.783  53.401  0.00  0.00     0.120 A 
ATOM      8  C   UNL d   1      52.716  35.226  53.862  0.00  0.00     0.100 A 
ATOM      9  C   UNL d   1      52.920  35.752  54.434  0.00  0.00     0.041 A 
ATOM     10  C   UNL d   1      53.410  35.499  55.088  0.00  0.00     0.119 A 
ENDBRANCH   1   2
BRANCH   1  11
ATOM     11  O   UNL d   1      53.575  31.749  53.806  0.00  0.00    -0.303 OA
BRANCH  11  12
ATOM     12  C   UNL d   1      53.340  30.975  53.645  0.00  0.00     0.100 A 
ATOM     13  C   UNL d   1      53.481  30.393  54.199  0.00  0.00     0.025 A 
ATOM     14  C   UNL d   1      53.249  29.618  54.042  0.00  0.00     0.013 A 
ATOM     15  C   UNL d   1      53.395  29.015  54.618  0.00  0.00     0.001 C 
ATOM     16  C   UNL d   1      52.874  29.425  53.328  0.00  0.00     0.058 A 
ATOM     17  C   UNL d   1      52.734  30.007  52.774  0.00  0.00     0.013 A 
ATOM     18 CL   UNL d   1      52.632  28.646  53.152  0.00  0.00    -0.082 Cl
ATOM     19  C   UNL d   1      52.968  30.782  52.935  0.00  0.00     0.026 A 
ENDBRANCH  11  12
ENDBRANCH   1  11
TORSDOF 3
ENDMDL
MODEL 4
REMARK VINA RESULT:      -6.7      2.843      3.921
REMARK  3 active torsions:
REMARK  status: ('A' for Active; 'I' for Inactive)
REMARK    1  A    between atoms: C_13  and  C_4 
REMARK    2  A    between atoms: O_15  and  C_13 
REMARK    3  A    between atoms: C_16  and  O_15 
ROOT
ATOM      1  C   UNL d   1      53.115  32.369  53.219  0.00  0.00     0.144 C 
ENDROOT
BRANCH   1   2
ATOM      2  C   UNL d   1      53.080  31.563  53.334  0.00  0.00     0.142 A 
ATOM      3  N   UNL d   1      52.572  31.028  52.971  0.00  0.00    -0.057 NA
ATOM      4  C   UNL d   1      52.725  30.268  53.250  0.00  0.00     0.735 A 
ATOM      5  N   UNL d   1      53.347  30.313  53.806  0.00  0.00    -0.136 N 
ATOM      6  N   UNL d   1      52.391  29.539  53.079  0.00  0.00    -0.059 NA
ATOM      7  C   UNL d   1      53.553  31.118  53.845  0.00  0.00     0.120 A 
ATOM      8  C   UNL d   1      53.626  29.636  54.182  0.00  0.00     0.100 A 
ATOM      9  C   UNL d   1      53.309  28.914  54.027  0.00  0.00     0.041 A 
ATOM     10  C   UNL d   1      52.672  28.843  53.462  0.00  0.00     0.119 A 
ENDBRANCH   1   2
BRANCH   1  11
ATOM     11  O   UNL d   1      52.523  32.853  53.507  0.00  0.00    -0.303 OA
BRANCH  11  12
ATOM     12  C   UNL d   1      52.675  33.644  53.686  0.00  0.00     0.100 A 
ATOM     13  C   UNL d   1      53.014  33.832  54.404  0.00  0.00     0.025 A 
ATOM     14  C   UNL d   1      53.167  34.621  54.586  0.00  0.00     0.013 A 
ATOM     15  C   UNL d   1      53.519  34.815  55.331  0.00  0.00     0.001 C 
ATOM     16  C   UNL d   1      52.981  35.224  54.048  0.00  0.00     0.058 A 
ATOM     17  C   UNL d   1      52.642  35.035  53.330  0.00  0.00     0.013 A 
ATOM     18 CL   UNL d   1      53.129  36.027  54.216  0.00  0.00    -0.082 Cl
ATOM     19  C   UNL d   1      52.490  34.244  53.151  0.00  0.00     0.026 A 
ENDBRANCH  11  12
ENDBRANCH   1  11
TORSDOF 3
ENDMDL
MODEL 5
REMARK VINA RESULT:      -5.5     10.762     11.389
REMARK  3 active torsions:
REMARK  status: ('A' for Active; 'I' for Inactive)
REMARK    1  A    between atoms: C_13  and  C_4 
REMARK    2  A    between atoms: O_15  and  C_13 
REMARK    3  A    between atoms: C_16  and  O_15 
ROOT
ATOM      1  C   UNL d   1      44.642  26.108  56.507  0.00  0.00     0.144 C 
ENDROOT
BRANCH   1   2
ATOM      2  C   UNL d   1      44.683  25.444  56.038  0.00  0.00     0.142 A 
ATOM      3  N   UNL d   1      45.069  24.737  56.205  0.00  0.00    -0.057 NA
ATOM      4  C   UNL d   1      44.969  24.213  55.577  0.00  0.00     0.735 A 
ATOM      5  N   UNL d   1      44.508  24.590  54.991  0.00  0.00    -0.136 N 
ATOM      6  N   UNL d   1      45.231  23.446  55.451  0.00  0.00    -0.059 NA
ATOM      7  C   UNL d   1      44.341  25.346  55.292  0.00  0.00     0.120 A 
ATOM      8  C   UNL d   1      44.314  24.200  54.293  0.00  0.00     0.100 A 
ATOM      9  C   UNL d   1      44.562  23.449  54.153  0.00  0.00     0.041 A 
ATOM     10  C   UNL d   1      45.035  23.043  54.738  0.00  0.00     0.119 A 
ENDBRANCH   1   2
BRANCH   1  11
ATOM     11  O   UNL d   1      45.264  26.640  56.526  0.00  0.00    -0.303 OA
BRANCH  11  12
ATOM     12  C   UNL d   1      45.230  27.312  57.003  0.00  0.00     0.100 A 
ATOM     13  C   UNL d   1      44.991  28.020  56.676  0.00  0.00     0.025 A 
ATOM     14  C   UNL d   1      44.956  28.693  57.150  0.00  0.00     0.013 A 
ATOM     15  C   UNL d   1      44.708  29.428  56.810  0.00  0.00     0.001 C 
ATOM     16  C   UNL d   1      45.160  28.658  57.953  0.00  0.00     0.058 A 
ATOM     17  C   UNL d   1      45.398  27.950  58.279  0.00  0.00     0.013 A 
ATOM     18 CL   UNL d   1      45.130  29.330  58.446  0.00  0.00    -0.082 Cl
ATOM     19  C   UNL d   1      45.433  27.277  57.801  0.00  0.00     0.026 A 
ENDBRANCH  11  12
ENDBRANCH   1  11
TORSDOF 3
ENDMDL
MODEL 6
REMARK VINA RESULT:      -5.3      9.997     10.568
REMARK  3 active torsions:
REMARK  status: ('A' for Active; 'I' for Inactive)
REMARK    1  A    between atoms: C_13  and  C_4 
REMARK    2  A    between atoms: O_15  and  C_13 
REMARK    3  A    between atoms: C_16  and  O_15 
ROOT
ATOM      1  C   UNL d   1      44.363  30.180  59.650  0.00  0.00     0.144 C 
ENDROOT
BRANCH   1   2
ATOM      2  C   UNL d   1      44.450  29.766  60.347  0.00  0.00     0.142 A 
ATOM      3  N   UNL d   1      44.349  28.958  60.463  0.00  0.00    -0.057 NA
ATOM      4  C   UNL d   1      44.492  28.772  61.253  0.00  0.00     0.735 A 
ATOM      5  N   UNL d   1      44.688  29.477  61.656  0.00  0.00    -0.136 N 
ATOM      6  N   UNL d   1      44.472  28.065  61.667  0.00  0.00    -0.059 NA
ATOM      7  C   UNL d   1      44.657  30.078  61.082  0.00  0.00     0.120 A 
ATOM      8  C   UNL d   1      44.861  29.468  62.461  0.00  0.00     0.100 A 
ATOM      9  C   UNL d   1      44.846  28.783  62.881  0.00  0.00     0.041 A 
ATOM     10  C   UNL d   1      44.648  28.050  62.490  0.00  0.00     0.119 A 
ENDBRANCH   1   2
BRANCH   1  11
ATOM     11  O   UNL d   1      44.931  30.125  59.064  0.00  0.00    -0.303 OA
BRANCH  11  12
ATOM     12  C   UNL d   1      44.816  30.486  58.331  0.00  0.00     0.100 A 
ATOM     13  C   UNL d   1      44.765  30.021  57.663  0.00  0.00     0.025 A 
ATOM     14  C   UNL d   1      44.651  30.378  56.929  0.00  0.00     0.013 A 
ATOM     15  C   UNL d   1      44.598  29.894  56.235  0.00  0.00     0.001 C 
ATOM     16  C   UNL d   1      44.587  31.202  56.864  0.00  0.00     0.058 A 
ATOM     17  C   UNL d   1      44.638  31.666  57.532  0.00  0.00     0.013 A 
ATOM     18 CL   UNL d   1      44.471  31.579  56.129  0.00  0.00    -0.082 Cl
ATOM     19  C   UNL d   1      44.753  31.305  58.266  0.00  0.00     0.026 A 
ENDBRANCH  11  12
ENDBRANCH   1  11
TORSDOF 3
ENDMDL
MODEL 7
REMARK VINA RESULT:      -5.1     10.276     10.876
REMARK  3 active torsions:
REMARK  status: ('A' for Active; 'I' for Inactive)
REMARK    1  A    between atoms: C_13  and  C_4 
REMARK    2  A    between atoms: O_15  and  C_13 
REMARK    3  A    between atoms: C_16  and  O_15 
ROOT
ATOM      1  C   UNL d   1      45.068  27.663  57.167  0.00  0.00     0.144 C 
ENDROOT
BRANCH   1   2
ATOM      2  C   UNL d   1      45.053  28.411  57.488  0.00  0.00     0.142 A 
ATOM      3  N   UNL d   1      45.248  28.628  58.258  0.00  0.00    -0.057 NA
ATOM      4  C   UNL d   1      45.155  29.442  58.347  0.00  0.00     0.735 A 
ATOM      5  N   UNL d   1      44.895  29.758  57.619  0.00  0.00    -0.136 N 
ATOM      6  N   UNL d   1      45.269  29.944  58.985  0.00  0.00    -0.059 NA
ATOM      7  C   UNL d   1      44.838  29.109  57.102  0.00  0.00     0.120 A 
ATOM      8  C   UNL d   1      44.752  30.564  57.536  0.00  0.00     0.100 A 
ATOM      9  C   UNL d   1      44.859  31.070  58.151  0.00  0.00     0.041 A 
ATOM     10  C   UNL d   1      45.125  30.770  58.906  0.00  0.00     0.119 A 
ENDBRANCH   1   2
BRANCH   1  11
ATOM     11  O   UNL d   1      44.481  27.123  57.350  0.00  0.00    -0.303 OA
BRANCH  11  12
ATOM     12  C   UNL d   1      44.514  26.351  57.061  0.00  0.00     0.100 A 
ATOM     13  C   UNL d   1      44.401  25.728  57.576  0.00  0.00     0.025 A 
ATOM     14  C   UNL d   1      44.432  24.956  57.291  0.00  0.00     0.013 A 
ATOM     15  C   UNL d   1      44.314  24.310  57.826  0.00  0.00     0.001 C 
ATOM     16  C   UNL d   1      44.577  24.806  56.488  0.00  0.00     0.058 A 
ATOM     17  C   UNL d   1      44.690  25.429  55.975  0.00  0.00     0.013 A 
ATOM     18 CL   UNL d   1      44.613  24.030  56.183  0.00  0.00    -0.082 Cl
ATOM     19  C   UNL d   1      44.658  26.202  56.263  0.00  0.00     0.026 A 
ENDBRANCH  11  12
ENDBRANCH   1  11
TORSDOF 3
ENDMDL
