MODEL 1
REMARK VINA RESULT:      -1.5      0.000      0.000
REMARK  3 active torsions:
REMARK  status: ('A' for Active; 'I' for Inactive)
REMARK    1  A    between atoms: C_5  and  C_1 
REMARK    2  A    between atoms: N_8  and  C_5 
REMARK    3  A    between atoms: C_10  and  C_5 
ROOT
ATOM      1  C   UNL d   1      31.827  17.469 -24.227  0.00  0.00     0.085 C 
ENDROOT
BRANCH   1   2
ATOM      2  C   UNL d   1      32.171  18.206 -24.055  0.00  0.00     0.059 A 
ATOM      3  C   UNL d   1      32.216  18.454 -23.267  0.00  0.00     0.214 A 
ATOM      4  C   UNL d   1      32.557  19.184 -23.101  0.00  0.00     0.121 A 
ATOM      5  O   UNL d   1      31.928  17.981 -22.666  0.00  0.00    -0.285 OA
ATOM      6  N   UNL d   1      32.603  19.432 -22.313  0.00  0.00    -0.241 NA
ATOM      7  C   UNL d   1      32.849  19.661 -23.708  0.00  0.00     0.032 A 
ATOM      8  C   UNL d   1      32.945  20.165 -22.144  0.00  0.00     0.099 A 
ATOM      9  C   UNL d   1      33.241  20.652 -22.746  0.00  0.00     0.021 A 
ATOM     10  C   UNL d   1      33.189  20.392 -23.535  0.00  0.00     0.004 A 
ATOM     11  C   UNL d   1      32.803  19.414 -24.489  0.00  0.00     0.059 A 
ATOM     12  C   UNL d   1      32.461  18.679 -24.665  0.00  0.00     0.016 A 
ATOM     13 CL   UNL d   1      33.092  19.888 -25.093  0.00  0.00    -0.082 Cl
ENDBRANCH   1   2
BRANCH   1  14
ATOM     14  N   UNL d   1      32.293  16.801 -24.291  0.00  0.00    -0.302 N 
ATOM     15  C   UNL d   1      32.582  16.560 -25.032  0.00  0.00     0.080 A 
ATOM     16  C   UNL d   1      33.055  15.882 -25.096  0.00  0.00     0.019 A 
ATOM     17  C   UNL d   1      33.233  15.453 -24.419  0.00  0.00     0.003 A 
ATOM     18  C   UNL d   1      32.949  15.689 -23.684  0.00  0.00     0.019 A 
ATOM     19  C   UNL d   1      32.483  16.356 -23.621  0.00  0.00     0.080 A 
ENDBRANCH   1  14
BRANCH   1  20
ATOM     20  C   UNL d   1      31.009  17.422 -24.334  0.00  0.00     0.098 A 
ATOM     21  N   UNL d   1      30.550  16.969 -23.815  0.00  0.00    -0.243 NA
ATOM     22  C   UNL d   1      29.744  16.919 -23.914  0.00  0.00     0.099 A 
ATOM     23  C   UNL d   1      29.377  17.323 -24.538  0.00  0.00     0.021 A 
ATOM     24  C   UNL d   1      29.830  17.776 -25.059  0.00  0.00     0.003 A 
ATOM     25  C   UNL d   1      30.643  17.824 -24.954  0.00  0.00     0.021 A 
ENDBRANCH   1  20
TORSDOF 3
ENDMDL
