MODEL 1
REMARK VINA RESULT:      -2.5      0.000      0.000
REMARK  3 active torsions:
REMARK  status: ('A' for Active; 'I' for Inactive)
REMARK    1  A    between atoms: C_2  and  C_1 
REMARK    2  A    between atoms: N_5  and  C_2 
REMARK    3  A    between atoms: C_9  and  N_5 
ROOT
ATOM      1  C   UNL d   1      30.254  16.342 -24.020  0.00  0.00     0.139 C 
ATOM      2  S   UNL d   1      30.527  16.319 -24.804  0.00  0.00    -0.057 SA
ENDROOT
BRANCH   1   3
ATOM      3  C   UNL d   1      29.464  16.164 -23.850  0.00  0.00     0.074 A 
ATOM      4  C   UNL d   1      28.787  16.663 -24.031  0.00  0.00     0.129 A 
ATOM      5  O   UNL d   1      28.083  16.255 -23.754  0.00  0.00    -0.211 OA
ATOM      6  C   UNL d   1      28.814  17.392 -24.400  0.00  0.00     0.029 C 
ATOM      7  N   UNL d   1      28.322  15.511 -23.404  0.00  0.00    -0.125 NA
ATOM      8  C   UNL d   1      29.176  15.453 -23.462  0.00  0.00     0.132 A 
ENDBRANCH   1   3
BRANCH   1   9
ATOM      9  N   UNL d   1      30.772  16.541 -23.414  0.00  0.00    -0.235 NA
BRANCH   9  10
ATOM     10  C   UNL d   1      31.583  16.506 -23.538  0.00  0.00     0.082 A 
ATOM     11  C   UNL d   1      31.972  15.783 -23.485  0.00  0.00     0.019 A 
ATOM     12  C   UNL d   1      32.780  15.752 -23.610  0.00  0.00     0.002 A 
ATOM     13  C   UNL d   1      33.197  16.430 -23.785  0.00  0.00     0.000 A 
ATOM     14  C   UNL d   1      32.802  17.154 -23.838  0.00  0.00     0.002 A 
ATOM     15  C   UNL d   1      31.987  17.187 -23.713  0.00  0.00     0.019 A 
ENDBRANCH   9  10
ENDBRANCH   1   9
TORSDOF 3
ENDMDL
MODEL 2
REMARK VINA RESULT:      -2.2      1.683      3.591
REMARK  3 active torsions:
REMARK  status: ('A' for Active; 'I' for Inactive)
REMARK    1  A    between atoms: C_2  and  C_1 
REMARK    2  A    between atoms: N_5  and  C_2 
REMARK    3  A    between atoms: C_9  and  N_5 
ROOT
ATOM      1  C   UNL d   1      30.925  16.329 -23.995  0.00  0.00     0.139 C 
ATOM      2  S   UNL d   1      30.881  15.834 -23.330  0.00  0.00    -0.057 SA
ENDROOT
BRANCH   1   3
ATOM      3  C   UNL d   1      31.623  16.743 -24.160  0.00  0.00     0.074 A 
ATOM      4  C   UNL d   1      32.320  16.419 -24.545  0.00  0.00     0.129 A 
ATOM      5  O   UNL d   1      32.903  17.049 -24.598  0.00  0.00    -0.211 OA
ATOM      6  C   UNL d   1      32.407  15.651 -24.811  0.00  0.00     0.029 C 
ATOM      7  N   UNL d   1      32.570  17.755 -24.248  0.00  0.00    -0.125 NA
ATOM      8  C   UNL d   1      31.777  17.569 -23.976  0.00  0.00     0.132 A 
ENDBRANCH   1   3
BRANCH   1   9
ATOM      9  N   UNL d   1      30.274  16.406 -24.490  0.00  0.00    -0.235 NA
BRANCH   9  10
ATOM     10  C   UNL d   1      29.515  16.302 -24.190  0.00  0.00     0.082 A 
ATOM     11  C   UNL d   1      29.098  16.952 -23.908  0.00  0.00     0.019 A 
ATOM     12  C   UNL d   1      28.343  16.845 -23.611  0.00  0.00     0.002 A 
ATOM     13  C   UNL d   1      28.007  16.102 -23.593  0.00  0.00     0.000 A 
ATOM     14  C   UNL d   1      28.432  15.453 -23.878  0.00  0.00     0.002 A 
ATOM     15  C   UNL d   1      29.193  15.559 -24.178  0.00  0.00     0.019 A 
ENDBRANCH   9  10
ENDBRANCH   1   9
TORSDOF 3
ENDMDL
MODEL 3
REMARK VINA RESULT:      -0.9      5.243      6.233
REMARK  3 active torsions:
REMARK  status: ('A' for Active; 'I' for Inactive)
REMARK    1  A    between atoms: C_2  and  C_1 
REMARK    2  A    between atoms: N_5  and  C_2 
REMARK    3  A    between atoms: C_9  and  N_5 
ROOT
ATOM      1  C   UNL d   1      32.578  21.149 -21.229  0.00  0.00     0.139 C 
ATOM      2  S   UNL d   1      31.820  20.811 -21.273  0.00  0.00    -0.057 SA
ENDROOT
BRANCH   1   3
ATOM      3  C   UNL d   1      32.664  21.952 -21.045  0.00  0.00     0.074 A 
ATOM      4  C   UNL d   1      32.726  22.281 -20.253  0.00  0.00     0.129 A 
ATOM      5  O   UNL d   1      32.807  23.133 -20.333  0.00  0.00    -0.211 OA
ATOM      6  C   UNL d   1      32.711  21.856 -19.555  0.00  0.00     0.029 C 
ATOM      7  N   UNL d   1      32.795  23.329 -21.166  0.00  0.00    -0.125 NA
ATOM      8  C   UNL d   1      32.706  22.599 -21.609  0.00  0.00     0.132 A 
ENDBRANCH   1   3
BRANCH   1   9
ATOM      9  N   UNL d   1      33.241  20.685 -21.369  0.00  0.00    -0.235 NA
BRANCH   9  10
ATOM     10  C   UNL d   1      33.220  20.102 -21.948  0.00  0.00     0.082 A 
ATOM     11  C   UNL d   1      33.177  20.317 -22.740  0.00  0.00     0.019 A 
ATOM     12  C   UNL d   1      33.156  19.734 -23.314  0.00  0.00     0.002 A 
ATOM     13  C   UNL d   1      33.177  18.947 -23.103  0.00  0.00     0.000 A 
ATOM     14  C   UNL d   1      33.219  18.736 -22.305  0.00  0.00     0.002 A 
ATOM     15  C   UNL d   1      33.241  19.323 -21.726  0.00  0.00     0.019 A 
ENDBRANCH   9  10
ENDBRANCH   1   9
TORSDOF 3
ENDMDL
