MODEL 1
REMARK VINA RESULT:      37.3      0.000      0.000
REMARK  3 active torsions:
REMARK  status: ('A' for Active; 'I' for Inactive)
REMARK    1  A    between atoms: C_6  and  N_1 
REMARK    2  A    between atoms: C_5  and  C_9 
REMARK    3  A    between atoms: C_14  and  C_6 
ROOT
ATOM      1  C   UNL d   1     -55.220-101.352 -44.199  0.00  0.00     0.064 A 
ATOM      2  C   UNL d   1     -54.714-100.703 -44.140  0.00  0.00     0.006 A 
ATOM      3  C   UNL d   1     -56.016-101.239 -44.375  0.00  0.00     0.006 A 
ATOM      4  C   UNL d   1     -55.804 -99.827 -44.435  0.00  0.00     0.018 A 
ATOM      5  C   UNL d   1     -55.004 -99.941 -44.258  0.00  0.00     0.002 A 
ATOM      6  C   UNL d   1     -56.310-100.476 -44.493  0.00  0.00     0.002 A 
ENDROOT
BRANCH   4   7
ATOM      7  C   UNL d   1     -56.095 -99.065 -44.553  0.00  0.00     0.084 C 
BRANCH   7   8
ATOM      8  N   UNL d   1     -56.886 -98.951 -44.757  0.00  0.00    -0.259 N 
ATOM      9  C   UNL d   1     -57.518 -98.883 -44.223  0.00  0.00     0.153 A 
ATOM     10  S   UNL d   1     -58.201 -98.776 -44.663  0.00  0.00    -0.053 SA
ATOM     11  S   UNL d   1     -57.462 -98.919 -43.400  0.00  0.00    -0.052 SA
ATOM     12  C   UNL d   1     -57.995 -98.777 -45.462  0.00  0.00     0.099 A 
ATOM     13  C   UNL d   1     -57.183 -98.885 -45.519  0.00  0.00     0.272 A 
ATOM     14  O   UNL d   1     -56.739 -98.921 -46.217  0.00  0.00    -0.266 OA
ENDBRANCH   7   8
ENDBRANCH   4   7
BRANCH   1  15
ATOM     15  C   UNL d   1     -54.923-102.118 -44.079  0.00  0.00     0.211 C 
ATOM     16  O   UNL d   1     -54.768-102.387 -43.317  0.00  0.00    -0.644 OA
ATOM     17  O   UNL d   1     -54.784-102.609 -44.727  0.00  0.00    -0.644 OA
ENDBRANCH   1  15
TORSDOF 3
ENDMDL
MODEL 2
REMARK VINA RESULT:      38.8      1.182      1.541
REMARK  3 active torsions:
REMARK  status: ('A' for Active; 'I' for Inactive)
REMARK    1  A    between atoms: C_6  and  N_1 
REMARK    2  A    between atoms: C_5  and  C_9 
REMARK    3  A    between atoms: C_14  and  C_6 
ROOT
ATOM      1  C   UNL d   1     -55.707-100.859 -44.414  0.00  0.00     0.064 A 
ATOM      2  C   UNL d   1     -55.324-100.132 -44.341  0.00  0.00     0.006 A 
ATOM      3  C   UNL d   1     -56.522-100.886 -44.522  0.00  0.00     0.006 A 
ATOM      4  C   UNL d   1     -56.575 -99.458 -44.485  0.00  0.00     0.018 A 
ATOM      5  C   UNL d   1     -55.755 -99.432 -44.376  0.00  0.00     0.002 A 
ATOM      6  C   UNL d   1     -56.959-100.184 -44.557  0.00  0.00     0.002 A 
ENDROOT
BRANCH   4   7
ATOM      7  C   UNL d   1     -57.008 -98.757 -44.520  0.00  0.00     0.084 C 
BRANCH   7   8
ATOM      8  N   UNL d   1     -57.815 -98.760 -44.349  0.00  0.00    -0.259 N 
ATOM      9  C   UNL d   1     -58.427 -98.765 -44.909  0.00  0.00     0.153 A 
ATOM     10  S   UNL d   1     -59.136 -98.767 -44.498  0.00  0.00    -0.053 SA
ATOM     11  S   UNL d   1     -58.332 -98.768 -45.730  0.00  0.00    -0.052 SA
ATOM     12  C   UNL d   1     -58.966 -98.764 -43.691  0.00  0.00     0.099 A 
ATOM     13  C   UNL d   1     -58.150 -98.759 -43.600  0.00  0.00     0.272 A 
ATOM     14  O   UNL d   1     -57.735 -98.755 -42.884  0.00  0.00    -0.266 OA
ENDBRANCH   7   8
ENDBRANCH   4   7
BRANCH   1  15
ATOM     15  C   UNL d   1     -55.267-101.562 -44.378  0.00  0.00     0.211 C 
ATOM     16  O   UNL d   1     -55.374-102.147 -44.947  0.00  0.00    -0.644 OA
ATOM     17  O   UNL d   1     -54.722-101.673 -43.769  0.00  0.00    -0.644 OA
ENDBRANCH   1  15
TORSDOF 3
ENDMDL
