MODEL 1
REMARK VINA RESULT:      63.2      0.000      0.000
REMARK  9 active torsions:
REMARK  status: ('A' for Active; 'I' for Inactive)
REMARK    1  A    between atoms: C_2  and  N_1 
REMARK    2  A    between atoms: C_6  and  C_2 
REMARK    3  A    between atoms: C_8  and  C_2 
REMARK    4  A    between atoms: C_10  and  N_3 
REMARK       I    between atoms: C_4  and  N_7 
REMARK    5  A    between atoms: C_5  and  C_4 
REMARK       I    between atoms: N_9  and  C_5 
REMARK    6  A    between atoms: N_7  and  C_8 
REMARK    7  A    between atoms: C_24  and  N_9 
REMARK    8  A    between atoms: C_26  and  C_24 
REMARK    9  A    between atoms: O_29  and  C_25 
ROOT
ATOM      1  C   UNL d   1      13.375  13.237  -4.116  0.00  0.00     0.106 C 
ENDROOT
BRANCH   1   2
ATOM      2  N   UNL d   1      13.636  14.019  -4.238  0.00  0.00    -0.298 N 
ATOM      3  C   UNL d   1      13.131  14.574  -4.562  0.00  0.00     0.100 A 
ATOM      4  C   UNL d   1      13.392  15.356  -4.684  0.00  0.00     0.100 A 
ATOM      5  N   UNL d   1      14.163  15.565  -4.478  0.00  0.00    -0.301 N 
ATOM      6  C   UNL d   1      14.668  14.992  -4.150  0.00  0.00     0.100 A 
ATOM      7  C   UNL d   1      14.407  14.229  -4.032  0.00  0.00     0.100 A 
BRANCH   5   8
ATOM      8  C   UNL d   1      14.425  16.321  -4.593  0.00  0.00     0.064 A 
ATOM      9  C   UNL d   1      15.133  16.576  -4.242  0.00  0.00     0.020 A 
ATOM     10  C   UNL d   1      15.408  17.344  -4.354  0.00  0.00     0.026 A 
ATOM     11  C   UNL d   1      14.975  17.869  -4.821  0.00  0.00     0.094 A 
ATOM     12  C   UNL d   1      14.263  17.617  -5.174  0.00  0.00     0.026 A 
ATOM     13  C   UNL d   1      13.991  16.845  -5.059  0.00  0.00     0.020 A 
BRANCH  11  14
ATOM     14  O   UNL d   1      15.249  18.643  -4.935  0.00  0.00    -0.328 OA
ATOM     15  C   UNL d   1      14.747  19.218  -5.249  0.00  0.00     0.181 C 
ENDBRANCH  11  14
ENDBRANCH   5   8
ENDBRANCH   1   2
BRANCH   1  16
ATOM     16  C   UNL d   1      13.483  12.672  -4.726  0.00  0.00     0.118 A 
ATOM     17  O   UNL d   1      14.155  12.275  -5.005  0.00  0.00    -0.304 OA
ATOM     18  C   UNL d   1      13.907  11.780  -5.624  0.00  0.00     0.123 A 
ATOM     19  C   UNL d   1      13.103  11.869  -5.725  0.00  0.00     0.029 A 
ATOM     20  C   UNL d   1      12.837  12.423  -5.167  0.00  0.00     0.028 A 
ENDBRANCH   1  16
BRANCH   1  21
ATOM     21  C   UNL d   1      13.016  13.011  -3.412  0.00  0.00     0.122 C 
BRANCH  21  22
ATOM     22  N   UNL d   1      13.443  13.067  -2.692  0.00  0.00    -0.201 NA
ATOM     23  C   UNL d   1      13.422  12.450  -2.147  0.00  0.00     0.337 C 
ATOM     24  O   UNL d   1      12.986  11.779  -2.302  0.00  0.00    -0.260 OA
BRANCH  23  25
ATOM     25  C   UNL d   1      13.846  12.521  -1.448  0.00  0.00     0.337 C 
ATOM     26  N   UNL d   1      14.099  13.268  -1.202  0.00  0.00    -0.200 NA
ATOM     27  O   UNL d   1      14.020  11.864  -0.993  0.00  0.00    -0.260 OA
BRANCH  26  28
ATOM     28  C   UNL d   1      14.526  13.348  -0.501  0.00  0.00     0.127 C 
BRANCH  28  29
ATOM     29  C   UNL d   1      15.095  13.941  -0.430  0.00  0.00     0.119 A 
ATOM     30  O   UNL d   1      15.919  13.921  -0.456  0.00  0.00    -0.304 OA
ATOM     31  C   UNL d   1      16.190  14.696  -0.351  0.00  0.00     0.123 A 
ATOM     32  C   UNL d   1      15.542  15.185  -0.262  0.00  0.00     0.029 A 
ATOM     33  C   UNL d   1      14.862  14.723  -0.310  0.00  0.00     0.028 A 
ENDBRANCH  28  29
ENDBRANCH  26  28
ENDBRANCH  23  25
ENDBRANCH  21  22
ENDBRANCH   1  21
TORSDOF 9
ENDMDL
MODEL 2
REMARK VINA RESULT:      65.5      1.268      2.794
REMARK  9 active torsions:
REMARK  status: ('A' for Active; 'I' for Inactive)
REMARK    1  A    between atoms: C_2  and  N_1 
REMARK    2  A    between atoms: C_6  and  C_2 
REMARK    3  A    between atoms: C_8  and  C_2 
REMARK    4  A    between atoms: C_10  and  N_3 
REMARK       I    between atoms: C_4  and  N_7 
REMARK    5  A    between atoms: C_5  and  C_4 
REMARK       I    between atoms: N_9  and  C_5 
REMARK    6  A    between atoms: N_7  and  C_8 
REMARK    7  A    between atoms: C_24  and  N_9 
REMARK    8  A    between atoms: C_26  and  C_24 
REMARK    9  A    between atoms: O_29  and  C_25 
ROOT
ATOM      1  C   UNL d   1      14.255  15.286  -3.563  0.00  0.00     0.106 C 
ENDROOT
BRANCH   1   2
ATOM      2  N   UNL d   1      14.300  16.009  -3.973  0.00  0.00    -0.298 N 
ATOM      3  C   UNL d   1      13.672  16.259  -4.433  0.00  0.00     0.100 A 
ATOM      4  C   UNL d   1      13.716  16.982  -4.844  0.00  0.00     0.100 A 
ATOM      5  N   UNL d   1      14.397  17.444  -4.784  0.00  0.00    -0.301 N 
ATOM      6  C   UNL d   1      15.029  17.180  -4.314  0.00  0.00     0.100 A 
ATOM      7  C   UNL d   1      14.981  16.471  -3.914  0.00  0.00     0.100 A 
BRANCH   5   8
ATOM      8  C   UNL d   1      14.449  18.147  -5.178  0.00  0.00     0.064 A 
ATOM      9  C   UNL d   1      14.824  18.799  -4.825  0.00  0.00     0.020 A 
ATOM     10  C   UNL d   1      14.881  19.519  -5.220  0.00  0.00     0.026 A 
ATOM     11  C   UNL d   1      14.563  19.596  -5.977  0.00  0.00     0.094 A 
ATOM     12  C   UNL d   1      14.187  18.944  -6.335  0.00  0.00     0.026 A 
ATOM     13  C   UNL d   1      14.131  18.224  -5.936  0.00  0.00     0.020 A 
BRANCH  11  14
ATOM     14  O   UNL d   1      14.620  20.320  -6.377  0.00  0.00    -0.328 OA
ATOM     15  C   UNL d   1      14.787  21.012  -5.959  0.00  0.00     0.181 C 
ENDBRANCH  11  14
ENDBRANCH   5   8
ENDBRANCH   1   2
BRANCH   1  16
ATOM     16  C   UNL d   1      14.549  15.244  -2.778  0.00  0.00     0.118 A 
ATOM     17  O   UNL d   1      14.947  14.648  -2.363  0.00  0.00    -0.304 OA
ATOM     18  C   UNL d   1      15.094  14.938  -1.599  0.00  0.00     0.123 A 
ATOM     19  C   UNL d   1      14.795  15.694  -1.544  0.00  0.00     0.029 A 
ATOM     20  C   UNL d   1      14.455  15.887  -2.275  0.00  0.00     0.028 A 
ENDBRANCH   1  16
BRANCH   1  21
ATOM     21  C   UNL d   1      13.931  14.614  -3.910  0.00  0.00     0.122 C 
BRANCH  21  22
ATOM     22  N   UNL d   1      13.885  13.902  -3.470  0.00  0.00    -0.201 NA
ATOM     23  C   UNL d   1      13.533  13.233  -3.797  0.00  0.00     0.337 C 
ATOM     24  O   UNL d   1      13.225  13.258  -4.551  0.00  0.00    -0.260 OA
BRANCH  23  25
ATOM     25  C   UNL d   1      13.496  12.544  -3.353  0.00  0.00     0.337 C 
ATOM     26  N   UNL d   1      13.972  12.469  -2.682  0.00  0.00    -0.200 NA
ATOM     27  O   UNL d   1      12.996  11.933  -3.565  0.00  0.00    -0.260 OA
BRANCH  26  28
ATOM     28  C   UNL d   1      13.942  11.779  -2.230  0.00  0.00     0.127 C 
BRANCH  28  29
ATOM     29  C   UNL d   1      14.115  11.808  -1.424  0.00  0.00     0.119 A 
ATOM     30  O   UNL d   1      14.830  11.857  -1.015  0.00  0.00    -0.304 OA
ATOM     31  C   UNL d   1      14.652  11.866  -0.206  0.00  0.00     0.123 A 
ATOM     32  C   UNL d   1      13.841  11.822  -0.119  0.00  0.00     0.029 A 
ATOM     33  C   UNL d   1      13.504  11.786  -0.870  0.00  0.00     0.028 A 
ENDBRANCH  28  29
ENDBRANCH  26  28
ENDBRANCH  23  25
ENDBRANCH  21  22
ENDBRANCH   1  21
TORSDOF 9
ENDMDL
