MODEL 1
REMARK VINA RESULT:      -5.4      0.000      0.000
REMARK  0 active torsions:
REMARK  status: ('A' for Active; 'I' for Inactive)
ROOT
ATOM      1  N   UNL d   1      57.010  -0.562  31.585  0.00  0.00    -0.248 N 
ATOM      2  C   UNL d   1      57.035   0.253  31.592  0.00  0.00     0.208 A 
ATOM      3  C   UNL d   1      56.515  -0.981  32.136  0.00  0.00     0.268 A 
ATOM      4  C   UNL d   1      56.078  -0.571  32.660  0.00  0.00     0.074 A 
ATOM      5  N   UNL d   1      56.566   0.663  32.152  0.00  0.00    -0.218 NA
ATOM      6  C   UNL d   1      56.103   0.248  32.668  0.00  0.00     0.088 A 
ATOM      7  S   UNL d   1      57.515   0.682  31.058  0.00  0.00    -0.038 SA
ATOM      8  O   UNL d   1      56.490  -1.811  32.128  0.00  0.00    -0.267 OA
ATOM      9  C   UNL d   1      57.471  -1.014  31.032  0.00  0.00     0.104 C 
ATOM     10  C   UNL d   1      55.590  -0.976  33.205  0.00  0.00     0.006 A 
ATOM     11  C   UNL d   1      55.634   0.682  33.228  0.00  0.00     0.019 A 
ATOM     12  C   UNL d   1      55.133  -0.557  33.751  0.00  0.00     0.000 A 
ATOM     13  C   UNL d   1      55.159   0.267  33.759  0.00  0.00     0.002 A 
ENDROOT
TORSDOF 0
ENDMDL
MODEL 2
REMARK VINA RESULT:      -3.8      1.582      2.133
REMARK  0 active torsions:
REMARK  status: ('A' for Active; 'I' for Inactive)
ROOT
ATOM      1  N   UNL d   1      58.270  -0.538  29.875  0.00  0.00    -0.248 N 
ATOM      2  C   UNL d   1      58.412   0.260  29.966  0.00  0.00     0.208 A 
ATOM      3  C   UNL d   1      57.767  -0.949  30.424  0.00  0.00     0.268 A 
ATOM      4  C   UNL d   1      57.436  -0.550  31.028  0.00  0.00     0.074 A 
ATOM      5  N   UNL d   1      58.053   0.660  30.608  0.00  0.00    -0.218 NA
ATOM      6  C   UNL d   1      57.579   0.252  31.120  0.00  0.00     0.088 A 
ATOM      7  S   UNL d   1      58.903   0.682  29.437  0.00  0.00    -0.038 SA
ATOM      8  O   UNL d   1      57.623  -1.762  30.332  0.00  0.00    -0.267 OA
ATOM      9  C   UNL d   1      58.616  -0.979  29.236  0.00  0.00     0.104 C 
ATOM     10  C   UNL d   1      56.941  -0.948  31.572  0.00  0.00     0.006 A 
ATOM     11  C   UNL d   1      57.223   0.675  31.766  0.00  0.00     0.019 A 
ATOM     12  C   UNL d   1      56.594  -0.539  32.200  0.00  0.00     0.000 A 
ATOM     13  C   UNL d   1      56.738   0.268  32.293  0.00  0.00     0.002 A 
ENDROOT
TORSDOF 0
ENDMDL
MODEL 3
REMARK VINA RESULT:      -3.4      9.404      9.573
REMARK  0 active torsions:
REMARK  status: ('A' for Active; 'I' for Inactive)
ROOT
ATOM      1  N   UNL d   1      59.888  -9.217  33.808  0.00  0.00    -0.248 N 
ATOM      2  C   UNL d   1      60.678  -9.041  33.717  0.00  0.00     0.208 A 
ATOM      3  C   UNL d   1      59.466  -8.952  34.498  0.00  0.00     0.268 A 
ATOM      4  C   UNL d   1      59.849  -8.530  35.054  0.00  0.00     0.074 A 
ATOM      5  N   UNL d   1      61.061  -8.596  34.314  0.00  0.00    -0.218 NA
ATOM      6  C   UNL d   1      60.645  -8.352  34.962  0.00  0.00     0.088 A 
ATOM      7  S   UNL d   1      61.110  -9.293  33.046  0.00  0.00    -0.038 SA
ATOM      8  O   UNL d   1      58.661  -9.132  34.591  0.00  0.00    -0.267 OA
ATOM      9  C   UNL d   1      59.464  -9.667  33.224  0.00  0.00     0.104 C 
ATOM     10  C   UNL d   1      59.441  -8.266  35.735  0.00  0.00     0.006 A 
ATOM     11  C   UNL d   1      61.050  -7.902  35.558  0.00  0.00     0.019 A 
ATOM     12  C   UNL d   1      59.833  -7.828  36.315  0.00  0.00     0.000 A 
ATOM     13  C   UNL d   1      60.633  -7.649  36.222  0.00  0.00     0.002 A 
ENDROOT
TORSDOF 0
ENDMDL
MODEL 4
REMARK VINA RESULT:      -3.4      9.057      9.598
REMARK  0 active torsions:
REMARK  status: ('A' for Active; 'I' for Inactive)
ROOT
ATOM      1  N   UNL d   1      59.865  -6.935  36.125  0.00  0.00    -0.248 N 
ATOM      2  C   UNL d   1      60.678  -6.952  36.171  0.00  0.00     0.208 A 
ATOM      3  C   UNL d   1      59.419  -7.660  36.142  0.00  0.00     0.268 A 
ATOM      4  C   UNL d   1      59.803  -8.355  36.202  0.00  0.00     0.074 A 
ATOM      5  N   UNL d   1      61.061  -7.694  36.234  0.00  0.00    -0.218 NA
ATOM      6  C   UNL d   1      60.622  -8.372  36.248  0.00  0.00     0.088 A 
ATOM      7  S   UNL d   1      61.133  -6.250  36.157  0.00  0.00    -0.038 SA
ATOM      8  O   UNL d   1      58.591  -7.643  36.095  0.00  0.00    -0.267 OA
ATOM      9  C   UNL d   1      59.440  -6.201  36.060  0.00  0.00     0.104 C 
ATOM     10  C   UNL d   1      59.372  -9.071  36.219  0.00  0.00     0.006 A 
ATOM     11  C   UNL d   1      61.027  -9.115  36.313  0.00  0.00     0.019 A 
ATOM     12  C   UNL d   1      59.764  -9.795  36.281  0.00  0.00     0.000 A 
ATOM     13  C   UNL d   1      60.587  -9.812  36.328  0.00  0.00     0.002 A 
ENDROOT
TORSDOF 0
ENDMDL
MODEL 5
REMARK VINA RESULT:      -3.4      9.380      9.883
REMARK  0 active torsions:
REMARK  status: ('A' for Active; 'I' for Inactive)
ROOT
ATOM      1  N   UNL d   1      59.835  -8.339  35.642  0.00  0.00    -0.248 N 
ATOM      2  C   UNL d   1      60.573  -8.014  35.525  0.00  0.00     0.208 A 
ATOM      3  C   UNL d   1      59.512  -8.885  35.074  0.00  0.00     0.268 A 
ATOM      4  C   UNL d   1      59.936  -9.076  34.428  0.00  0.00     0.074 A 
ATOM      5  N   UNL d   1      61.002  -8.230  34.839  0.00  0.00    -0.218 NA
ATOM      6  C   UNL d   1      60.679  -8.750  34.311  0.00  0.00     0.088 A 
ATOM      7  S   UNL d   1      60.908  -7.476  36.071  0.00  0.00    -0.038 SA
ATOM      8  O   UNL d   1      58.760  -9.215  35.193  0.00  0.00    -0.267 OA
ATOM      9  C   UNL d   1      59.369  -8.145  36.326  0.00  0.00     0.104 C 
ATOM     10  C   UNL d   1      59.625  -9.612  33.867  0.00  0.00     0.006 A 
ATOM     11  C   UNL d   1      61.129  -8.957  33.621  0.00  0.00     0.019 A 
ATOM     12  C   UNL d   1      60.060  -9.815  33.195  0.00  0.00     0.000 A 
ATOM     13  C   UNL d   1      60.808  -9.486  33.077  0.00  0.00     0.002 A 
ENDROOT
TORSDOF 0
ENDMDL
MODEL 6
REMARK VINA RESULT:      -3.1      1.409      1.696
REMARK  0 active torsions:
REMARK  status: ('A' for Active; 'I' for Inactive)
ROOT
ATOM      1  N   UNL d   1      57.096   0.360  32.766  0.00  0.00    -0.248 N 
ATOM      2  C   UNL d   1      56.509   0.206  32.222  0.00  0.00     0.208 A 
ATOM      3  C   UNL d   1      56.899   0.510  33.580  0.00  0.00     0.268 A 
ATOM      4  C   UNL d   1      56.135   0.499  33.807  0.00  0.00     0.074 A 
ATOM      5  N   UNL d   1      55.713   0.199  32.483  0.00  0.00    -0.218 NA
ATOM      6  C   UNL d   1      55.544   0.343  33.260  0.00  0.00     0.088 A 
ATOM      7  S   UNL d   1      56.683   0.057  31.418  0.00  0.00    -0.038 SA
ATOM      8  O   UNL d   1      57.497   0.667  34.133  0.00  0.00    -0.267 OA
ATOM      9  C   UNL d   1      57.916   0.376  32.540  0.00  0.00     0.104 C 
ATOM     10  C   UNL d   1      55.934   0.645  34.605  0.00  0.00     0.006 A 
ATOM     11  C   UNL d   1      54.731   0.332  33.506  0.00  0.00     0.019 A 
ATOM     12  C   UNL d   1      55.144   0.634  34.847  0.00  0.00     0.000 A 
ATOM     13  C   UNL d   1      54.550   0.478  34.296  0.00  0.00     0.002 A 
ENDROOT
TORSDOF 0
ENDMDL
MODEL 7
REMARK VINA RESULT:      -3.0      1.404      2.882
REMARK  0 active torsions:
REMARK  status: ('A' for Active; 'I' for Inactive)
ROOT
ATOM      1  N   UNL d   1      56.930  -0.209  32.351  0.00  0.00    -0.248 N 
ATOM      2  C   UNL d   1      57.411   0.374  32.655  0.00  0.00     0.208 A 
ATOM      3  C   UNL d   1      57.063  -0.509  31.566  0.00  0.00     0.268 A 
ATOM      4  C   UNL d   1      57.661  -0.215  31.130  0.00  0.00     0.074 A 
ATOM      5  N   UNL d   1      58.034   0.668  32.179  0.00  0.00    -0.218 NA
ATOM      6  C   UNL d   1      58.145   0.371  31.436  0.00  0.00     0.088 A 
ATOM      7  S   UNL d   1      57.296   0.682  33.425  0.00  0.00    -0.038 SA
ATOM      8  O   UNL d   1      56.573  -1.103  31.257  0.00  0.00    -0.267 OA
ATOM      9  C   UNL d   1      56.287  -0.533  32.804  0.00  0.00     0.104 C 
ATOM     10  C   UNL d   1      57.797  -0.506  30.358  0.00  0.00     0.006 A 
ATOM     11  C   UNL d   1      58.783   0.682  30.968  0.00  0.00     0.019 A 
ATOM     12  C   UNL d   1      58.416  -0.205  29.901  0.00  0.00     0.000 A 
ATOM     13  C   UNL d   1      58.904   0.385  30.208  0.00  0.00     0.002 A 
ENDROOT
TORSDOF 0
ENDMDL
MODEL 8
REMARK VINA RESULT:      -2.8      2.635      3.489
REMARK  0 active torsions:
REMARK  status: ('A' for Active; 'I' for Inactive)
ROOT
ATOM      1  N   UNL d   1      58.866  -0.944  29.123  0.00  0.00    -0.248 N 
ATOM      2  C   UNL d   1      58.552  -1.646  29.392  0.00  0.00     0.208 A 
ATOM      3  C   UNL d   1      58.667  -0.210  29.505  0.00  0.00     0.268 A 
ATOM      4  C   UNL d   1      58.171  -0.215  30.129  0.00  0.00     0.074 A 
ATOM      5  N   UNL d   1      58.034  -1.628  30.049  0.00  0.00    -0.218 NA
ATOM      6  C   UNL d   1      57.856  -0.922  30.400  0.00  0.00     0.088 A 
ATOM      7  S   UNL d   1      58.736  -2.377  29.029  0.00  0.00    -0.038 SA
ATOM      8  O   UNL d   1      58.986   0.505  29.231  0.00  0.00    -0.267 OA
ATOM      9  C   UNL d   1      59.396  -0.921  28.458  0.00  0.00     0.104 C 
ATOM     10  C   UNL d   1      57.971   0.502  30.510  0.00  0.00     0.006 A 
ATOM     11  C   UNL d   1      57.328  -0.923  31.065  0.00  0.00     0.019 A 
ATOM     12  C   UNL d   1      57.458   0.503  31.157  0.00  0.00     0.000 A 
ATOM     13  C   UNL d   1      57.141  -0.208  31.430  0.00  0.00     0.002 A 
ENDROOT
TORSDOF 0
ENDMDL
MODEL 9
REMARK VINA RESULT:      -2.7      2.286      3.112
REMARK  0 active torsions:
REMARK  status: ('A' for Active; 'I' for Inactive)
ROOT
ATOM      1  N   UNL d   1      55.306   0.659  34.393  0.00  0.00    -0.248 N 
ATOM      2  C   UNL d   1      55.889   0.667  34.962  0.00  0.00     0.208 A 
ATOM      3  C   UNL d   1      55.513   0.657  33.567  0.00  0.00     0.268 A 
ATOM      4  C   UNL d   1      56.281   0.662  33.355  0.00  0.00     0.074 A 
ATOM      5  N   UNL d   1      56.690   0.673  34.717  0.00  0.00    -0.218 NA
ATOM      6  C   UNL d   1      56.867   0.671  33.928  0.00  0.00     0.088 A 
ATOM      7  S   UNL d   1      55.706   0.669  35.779  0.00  0.00    -0.038 SA
ATOM      8  O   UNL d   1      54.919   0.648  32.987  0.00  0.00    -0.267 OA
ATOM      9  C   UNL d   1      54.482   0.652  34.603  0.00  0.00     0.104 C 
ATOM     10  C   UNL d   1      56.491   0.660  32.546  0.00  0.00     0.006 A 
ATOM     11  C   UNL d   1      57.685   0.677  33.698  0.00  0.00     0.019 A 
ATOM     12  C   UNL d   1      57.285   0.666  32.320  0.00  0.00     0.000 A 
ATOM     13  C   UNL d   1      57.876   0.675  32.896  0.00  0.00     0.002 A 
ENDROOT
TORSDOF 0
ENDMDL
