MODEL 1
REMARK VINA RESULT:      -2.3      0.000      0.000
REMARK  6 active torsions:
REMARK  status: ('A' for Active; 'I' for Inactive)
REMARK       I    between atoms: C_3  and  N_1 
REMARK    1  A    between atoms: C_4  and  N_1 
REMARK    2  A    between atoms: S_2  and  C_12 
REMARK    3  A    between atoms: C_6  and  C_3 
REMARK    4  A    between atoms: N_5  and  C_6 
REMARK       I    between atoms: C_7  and  N_5 
REMARK    5  A    between atoms: C_8  and  C_6 
REMARK    6  A    between atoms: C_12  and  C_8 
ROOT
ATOM      1  N   UNL d   1     -41.433-122.300 -53.088  0.00  0.00    -0.207 NA
ATOM      2  C   UNL d   1     -41.871-122.709 -52.521  0.00  0.00     0.297 C 
ATOM      3  O   UNL d   1     -42.465-123.236 -52.762  0.00  0.00    -0.264 OA
ENDROOT
BRANCH   2   4
ATOM      4  C   UNL d   1     -41.718-122.594 -51.712  0.00  0.00     0.143 C 
BRANCH   4   5
ATOM      5  N   UNL d   1     -41.247-121.961 -51.470  0.00  0.00    -0.203 NA
ATOM      6  C   UNL d   1     -41.594-121.286 -51.148  0.00  0.00     0.280 C 
ATOM      7  O   UNL d   1     -42.414-121.245 -51.069  0.00  0.00    -0.265 OA
ATOM      8  C   UNL d   1     -41.123-120.653 -50.905  0.00  0.00     0.068 C 
ENDBRANCH   4   5
BRANCH   4   9
ATOM      9  C   UNL d   1     -42.036-123.110 -51.154  0.00  0.00     0.036 C 
BRANCH   9  10
ATOM     10  C   UNL d   1     -41.535-123.560 -50.678  0.00  0.00     0.096 C 
BRANCH  10  11
ATOM     11  S   UNL d   1     -41.724-123.685 -49.886  0.00  0.00     0.192 S 
ATOM     12  O   UNL d   1     -42.458-123.673 -50.276  0.00  0.00    -0.222 OA
ATOM     13  O   UNL d   1     -42.120-123.813 -49.163  0.00  0.00    -0.222 OA
ATOM     14  C   UNL d   1     -41.124-123.730 -49.323  0.00  0.00     0.145 C 
ENDBRANCH  10  11
ENDBRANCH   9  10
ENDBRANCH   4   9
ENDBRANCH   2   4
BRANCH   1  15
ATOM     15  C   UNL d   1     -41.593-122.420 -53.908  0.00  0.00     0.085 A 
ATOM     16  C   UNL d   1     -41.899-121.808 -54.349  0.00  0.00     0.018 A 
ATOM     17  C   UNL d   1     -42.052-121.938 -55.157  0.00  0.00     0.002 A 
ATOM     18  C   UNL d   1     -42.057-121.076 -54.020  0.00  0.00     0.002 C 
ATOM     19  C   UNL d   1     -41.900-122.670 -55.511  0.00  0.00     0.000 A 
ATOM     20  C   UNL d   1     -41.588-123.282 -55.045  0.00  0.00     0.002 A 
ATOM     21  C   UNL d   1     -41.430-123.160 -54.229  0.00  0.00     0.018 A 
ATOM     22  C   UNL d   1     -41.123-123.776 -53.787  0.00  0.00     0.002 C 
ENDBRANCH   1  15
TORSDOF 6
ENDMDL
MODEL 2
REMARK VINA RESULT:      -1.5      1.378      2.025
REMARK  6 active torsions:
REMARK  status: ('A' for Active; 'I' for Inactive)
REMARK       I    between atoms: C_3  and  N_1 
REMARK    1  A    between atoms: C_4  and  N_1 
REMARK    2  A    between atoms: S_2  and  C_12 
REMARK    3  A    between atoms: C_6  and  C_3 
REMARK    4  A    between atoms: N_5  and  C_6 
REMARK       I    between atoms: C_7  and  N_5 
REMARK    5  A    between atoms: C_8  and  C_6 
REMARK    6  A    between atoms: C_12  and  C_8 
ROOT
ATOM      1  N   UNL d   1     -42.253-122.494 -51.704  0.00  0.00    -0.207 NA
ATOM      2  C   UNL d   1     -41.862-122.848 -51.071  0.00  0.00     0.297 C 
ATOM      3  O   UNL d   1     -41.125-123.211 -51.193  0.00  0.00    -0.264 OA
ENDROOT
BRANCH   2   4
ATOM      4  C   UNL d   1     -42.203-122.842 -50.313  0.00  0.00     0.143 C 
BRANCH   4   5
ATOM      5  N   UNL d   1     -42.922-122.455 -50.190  0.00  0.00    -0.203 NA
ATOM      6  C   UNL d   1     -43.608-122.892 -50.058  0.00  0.00     0.280 C 
ATOM      7  O   UNL d   1     -43.575-123.716 -50.049  0.00  0.00    -0.265 OA
ATOM      8  C   UNL d   1     -44.328-122.505 -49.934  0.00  0.00     0.068 C 
ENDBRANCH   4   5
BRANCH   4   9
ATOM      9  C   UNL d   1     -41.824-123.220 -49.686  0.00  0.00     0.036 C 
BRANCH   9  10
ATOM     10  C   UNL d   1     -41.432-122.774 -49.114  0.00  0.00     0.096 C 
BRANCH  10  11
ATOM     11  S   UNL d   1     -41.422-123.029 -48.331  0.00  0.00     0.192 S 
ATOM     12  O   UNL d   1     -41.225-122.222 -48.290  0.00  0.00    -0.222 OA
ATOM     13  O   UNL d   1     -41.358-123.078 -47.500  0.00  0.00    -0.222 OA
ATOM     14  C   UNL d   1     -41.594-123.815 -48.153  0.00  0.00     0.145 C 
ENDBRANCH  10  11
ENDBRANCH   9  10
ENDBRANCH   4   9
ENDBRANCH   2   4
BRANCH   1  15
ATOM     15  C   UNL d   1     -41.902-122.503 -52.472  0.00  0.00     0.085 A 
ATOM     16  C   UNL d   1     -41.465-121.862 -52.718  0.00  0.00     0.018 A 
ATOM     17  C   UNL d   1     -41.123-121.882 -53.477  0.00  0.00     0.002 A 
ATOM     18  C   UNL d   1     -41.354-121.206 -52.242  0.00  0.00     0.002 C 
ATOM     19  C   UNL d   1     -41.221-122.534 -53.976  0.00  0.00     0.000 A 
ATOM     20  C   UNL d   1     -41.671-123.178 -53.707  0.00  0.00     0.002 A 
ATOM     21  C   UNL d   1     -42.019-123.167 -52.944  0.00  0.00     0.018 A 
ATOM     22  C   UNL d   1     -42.459-123.812 -52.697  0.00  0.00     0.002 C 
ENDBRANCH   1  15
TORSDOF 6
ENDMDL
MODEL 3
REMARK VINA RESULT:       0.3      1.615      3.910
REMARK  6 active torsions:
REMARK  status: ('A' for Active; 'I' for Inactive)
REMARK       I    between atoms: C_3  and  N_1 
REMARK    1  A    between atoms: C_4  and  N_1 
REMARK    2  A    between atoms: S_2  and  C_12 
REMARK    3  A    between atoms: C_6  and  C_3 
REMARK    4  A    between atoms: N_5  and  C_6 
REMARK       I    between atoms: C_7  and  N_5 
REMARK    5  A    between atoms: C_8  and  C_6 
REMARK    6  A    between atoms: C_12  and  C_8 
ROOT
ATOM      1  N   UNL d   1     -42.119-122.532 -51.261  0.00  0.00    -0.207 NA
ATOM      2  C   UNL d   1     -41.626-122.852 -51.841  0.00  0.00     0.297 C 
ATOM      3  O   UNL d   1     -41.123-123.483 -51.649  0.00  0.00    -0.264 OA
ENDROOT
BRANCH   2   4
ATOM      4  C   UNL d   1     -41.635-122.543 -52.612  0.00  0.00     0.143 C 
BRANCH   4   5
ATOM      5  N   UNL d   1     -41.349-121.781 -52.753  0.00  0.00    -0.203 NA
ATOM      6  C   UNL d   1     -41.802-121.243 -53.182  0.00  0.00     0.280 C 
ATOM      7  O   UNL d   1     -42.541-121.466 -53.470  0.00  0.00    -0.265 OA
ATOM      8  C   UNL d   1     -41.515-120.481 -53.322  0.00  0.00     0.068 C 
ENDBRANCH   4   5
BRANCH   4   9
ATOM      9  C   UNL d   1     -41.928-122.996 -53.235  0.00  0.00     0.036 C 
BRANCH   9  10
ATOM     10  C   UNL d   1     -41.405-123.366 -53.755  0.00  0.00     0.096 C 
BRANCH  10  11
ATOM     11  S   UNL d   1     -41.658-123.578 -54.510  0.00  0.00     0.192 S 
ATOM     12  O   UNL d   1     -42.338-123.645 -54.035  0.00  0.00    -0.222 OA
ATOM     13  O   UNL d   1     -42.107-123.817 -55.171  0.00  0.00    -0.222 OA
ATOM     14  C   UNL d   1     -41.124-123.575 -55.137  0.00  0.00     0.145 C 
ENDBRANCH  10  11
ENDBRANCH   9  10
ENDBRANCH   4   9
ENDBRANCH   2   4
BRANCH   1  15
ATOM     15  C   UNL d   1     -42.106-122.849 -50.478  0.00  0.00     0.085 A 
ATOM     16  C   UNL d   1     -41.611-122.519 -49.923  0.00  0.00     0.018 A 
ATOM     17  C   UNL d   1     -41.607-122.840 -49.154  0.00  0.00     0.002 A 
ATOM     18  C   UNL d   1     -41.123-121.887 -50.100  0.00  0.00     0.002 C 
ATOM     19  C   UNL d   1     -42.091-123.479 -48.953  0.00  0.00     0.000 A 
ATOM     20  C   UNL d   1     -42.589-123.802 -49.533  0.00  0.00     0.002 A 
ATOM     21  C   UNL d   1     -42.601-123.485 -50.311  0.00  0.00     0.018 A 
ATOM     22  C   UNL d   1     -43.098-123.817 -50.869  0.00  0.00     0.002 C 
ENDBRANCH   1  15
TORSDOF 6
ENDMDL
