MODEL 1
REMARK VINA RESULT:      -3.1      0.000      0.000
REMARK  5 active torsions:
REMARK  status: ('A' for Active; 'I' for Inactive)
REMARK    1  A    between atoms: C_5  and  C_1 
REMARK    2  A    between atoms: N_15  and  C_4 
REMARK       I    between atoms: N_9  and  C_5 
REMARK    3  A    between atoms: C_7  and  N_9 
REMARK    4  A    between atoms: C_18  and  N_15 
REMARK    5  A    between atoms: C_16  and  C_18 
ROOT
ATOM      1  C   UNL d   1      32.806  22.391 -20.752  0.00  0.00     0.128 A 
ATOM      2  N   UNL d   1      32.524  23.667 -19.763  0.00  0.00    -0.200 NA
ATOM      3  C   UNL d   1      32.383  23.039 -21.027  0.00  0.00     0.196 A 
ATOM      4  C   UNL d   1      32.947  23.019 -19.488  0.00  0.00     0.196 A 
ATOM      5  S   UNL d   1      33.085  22.390 -19.975  0.00  0.00    -0.041 SA
ATOM      6  N   UNL d   1      32.101  23.049 -21.799  0.00  0.00    -0.126 N 
ENDROOT
BRANCH   1   7
ATOM      7  C   UNL d   1      32.944  21.750 -21.257  0.00  0.00     0.290 C 
ATOM      8  N   UNL d   1      32.789  20.974 -20.989  0.00  0.00    -0.186 NA
ATOM      9  O   UNL d   1      33.233  21.867 -22.023  0.00  0.00    -0.264 OA
BRANCH   8  10
ATOM     10  C   UNL d   1      32.926  20.325 -21.491  0.00  0.00     0.194 A 
ATOM     11  N   UNL d   1      33.157  19.535 -21.383  0.00  0.00    -0.107 NA
ATOM     12  O   UNL d   1      33.240  19.032 -22.025  0.00  0.00    -0.210 OA
ATOM     13  C   UNL d   1      33.090  19.321 -22.806  0.00  0.00     0.128 A 
ATOM     14  C   UNL d   1      32.860  20.106 -22.912  0.00  0.00     0.068 A 
ATOM     15  C   UNL d   1      33.113  18.991 -23.579  0.00  0.00     0.029 C 
ENDBRANCH   8  10
ENDBRANCH   1   7
BRANCH   4  16
ATOM     16  N   UNL d   1      33.226  23.015 -18.716  0.00  0.00    -0.220 NA
BRANCH  16  17
ATOM     17  C   UNL d   1      32.867  23.498 -18.152  0.00  0.00     0.101 C 
BRANCH  17  18
ATOM     18  C   UNL d   1      33.139  23.494 -17.381  0.00  0.00     0.021 C 
ATOM     19  C   UNL d   1      32.625  23.680 -16.763  0.00  0.00     0.002 C 
ENDBRANCH  17  18
ENDBRANCH  16  17
ENDBRANCH   4  16
TORSDOF 5
ENDMDL
MODEL 2
REMARK VINA RESULT:      -2.3      1.791      5.094
REMARK  5 active torsions:
REMARK  status: ('A' for Active; 'I' for Inactive)
REMARK    1  A    between atoms: C_5  and  C_1 
REMARK    2  A    between atoms: N_15  and  C_4 
REMARK       I    between atoms: N_9  and  C_5 
REMARK    3  A    between atoms: C_7  and  N_9 
REMARK    4  A    between atoms: C_18  and  N_15 
REMARK    5  A    between atoms: C_16  and  C_18 
ROOT
ATOM      1  C   UNL d   1      33.054  20.490 -23.095  0.00  0.00     0.128 A 
ATOM      2  N   UNL d   1      33.240  19.221 -24.114  0.00  0.00    -0.200 NA
ATOM      3  C   UNL d   1      33.164  20.620 -23.898  0.00  0.00     0.196 A 
ATOM      4  C   UNL d   1      33.130  19.091 -23.311  0.00  0.00     0.196 A 
ATOM      5  S   UNL d   1      33.038  19.715 -22.808  0.00  0.00    -0.041 SA
ATOM      6  N   UNL d   1      33.181  21.388 -24.191  0.00  0.00    -0.126 N 
ENDROOT
BRANCH   1   7
ATOM      7  C   UNL d   1      32.960  21.136 -22.586  0.00  0.00     0.290 C 
ATOM      8  N   UNL d   1      32.577  21.029 -21.850  0.00  0.00    -0.186 NA
ATOM      9  O   UNL d   1      33.240  21.886 -22.794  0.00  0.00    -0.264 OA
BRANCH   8  10
ATOM     10  C   UNL d   1      32.480  21.674 -21.334  0.00  0.00     0.194 A 
ATOM     11  N   UNL d   1      31.907  22.267 -21.234  0.00  0.00    -0.107 NA
ATOM     12  O   UNL d   1      31.991  22.835 -20.649  0.00  0.00    -0.210 OA
ATOM     13  C   UNL d   1      32.667  22.816 -20.141  0.00  0.00     0.128 A 
ATOM     14  C   UNL d   1      33.235  22.226 -20.241  0.00  0.00     0.068 A 
ATOM     15  C   UNL d   1      32.944  23.282 -19.498  0.00  0.00     0.029 C 
ENDBRANCH   8  10
ENDBRANCH   1   7
BRANCH   4  16
ATOM     16  N   UNL d   1      33.113  18.322 -23.024  0.00  0.00    -0.220 NA
BRANCH  16  17
ATOM     17  C   UNL d   1      32.771  17.725 -23.479  0.00  0.00     0.101 C 
BRANCH  17  18
ATOM     18  C   UNL d   1      32.712  16.967 -23.178  0.00  0.00     0.021 C 
ATOM     19  C   UNL d   1      32.140  16.451 -23.473  0.00  0.00     0.002 C 
ENDBRANCH  17  18
ENDBRANCH  16  17
ENDBRANCH   4  16
TORSDOF 5
ENDMDL
MODEL 3
REMARK VINA RESULT:      -2.0      2.248      3.615
REMARK  5 active torsions:
REMARK  status: ('A' for Active; 'I' for Inactive)
REMARK    1  A    between atoms: C_5  and  C_1 
REMARK    2  A    between atoms: N_15  and  C_4 
REMARK       I    between atoms: N_9  and  C_5 
REMARK    3  A    between atoms: C_7  and  N_9 
REMARK    4  A    between atoms: C_18  and  N_15 
REMARK    5  A    between atoms: C_16  and  C_18 
ROOT
ATOM      1  C   UNL d   1      33.004  19.800 -23.369  0.00  0.00     0.128 A 
ATOM      2  N   UNL d   1      33.241  21.364 -22.944  0.00  0.00    -0.200 NA
ATOM      3  C   UNL d   1      33.076  20.377 -23.948  0.00  0.00     0.196 A 
ATOM      4  C   UNL d   1      33.169  20.787 -22.364  0.00  0.00     0.196 A 
ATOM      5  S   UNL d   1      33.053  20.016 -22.573  0.00  0.00    -0.041 SA
ATOM      6  N   UNL d   1      33.029  20.171 -24.743  0.00  0.00    -0.126 N 
ENDROOT
BRANCH   1   7
ATOM      7  C   UNL d   1      32.885  19.012 -23.591  0.00  0.00     0.290 C 
ATOM      8  N   UNL d   1      32.880  18.415 -23.006  0.00  0.00    -0.186 NA
ATOM      9  O   UNL d   1      32.771  18.806 -24.385  0.00  0.00    -0.264 OA
BRANCH   8  10
ATOM     10  C   UNL d   1      32.761  17.621 -23.223  0.00  0.00     0.194 A 
ATOM     11  N   UNL d   1      33.226  16.932 -23.217  0.00  0.00    -0.107 NA
ATOM     12  O   UNL d   1      32.919  16.219 -23.480  0.00  0.00    -0.210 OA
ATOM     13  C   UNL d   1      32.121  16.183 -23.758  0.00  0.00     0.128 A 
ATOM     14  C   UNL d   1      31.661  16.867 -23.763  0.00  0.00     0.068 A 
ATOM     15  C   UNL d   1      31.622  15.578 -24.062  0.00  0.00     0.029 C 
ENDBRANCH   8  10
ENDBRANCH   1   7
BRANCH   4  16
ATOM     16  N   UNL d   1      33.217  20.999 -21.573  0.00  0.00    -0.220 NA
BRANCH  16  17
ATOM     17  C   UNL d   1      32.853  21.693 -21.315  0.00  0.00     0.101 C 
BRANCH  17  18
ATOM     18  C   UNL d   1      32.772  21.837 -20.514  0.00  0.00     0.021 C 
ATOM     19  C   UNL d   1      32.908  22.594 -20.217  0.00  0.00     0.002 C 
ENDBRANCH  17  18
ENDBRANCH  16  17
ENDBRANCH   4  16
TORSDOF 5
ENDMDL
MODEL 4
REMARK VINA RESULT:      -1.7      3.728      6.934
REMARK  5 active torsions:
REMARK  status: ('A' for Active; 'I' for Inactive)
REMARK    1  A    between atoms: C_5  and  C_1 
REMARK    2  A    between atoms: N_15  and  C_4 
REMARK       I    between atoms: N_9  and  C_5 
REMARK    3  A    between atoms: C_7  and  N_9 
REMARK    4  A    between atoms: C_18  and  N_15 
REMARK    5  A    between atoms: C_16  and  C_18 
ROOT
ATOM      1  C   UNL d   1      32.056  16.852 -23.808  0.00  0.00     0.128 A 
ATOM      2  N   UNL d   1      31.402  15.549 -24.557  0.00  0.00    -0.200 NA
ATOM      3  C   UNL d   1      32.483  16.153 -23.866  0.00  0.00     0.196 A 
ATOM      4  C   UNL d   1      30.975  16.248 -24.499  0.00  0.00     0.196 A 
ATOM      5  S   UNL d   1      31.296  16.890 -24.131  0.00  0.00    -0.041 SA
ATOM      6  N   UNL d   1      33.240  16.107 -23.548  0.00  0.00    -0.126 N 
ENDROOT
BRANCH   1   7
ATOM      7  C   UNL d   1      32.393  17.506 -23.429  0.00  0.00     0.290 C 
ATOM      8  N   UNL d   1      32.152  18.277 -23.645  0.00  0.00    -0.186 NA
ATOM      9  O   UNL d   1      32.964  17.408 -22.839  0.00  0.00    -0.264 OA
BRANCH   8  10
ATOM     10  C   UNL d   1      32.487  18.938 -23.268  0.00  0.00     0.194 A 
ATOM     11  N   UNL d   1      33.024  19.533 -23.488  0.00  0.00    -0.107 NA
ATOM     12  O   UNL d   1      33.238  20.120 -22.957  0.00  0.00    -0.210 OA
ATOM     13  C   UNL d   1      32.908  20.120 -22.178  0.00  0.00     0.128 A 
ATOM     14  C   UNL d   1      32.375  19.529 -21.961  0.00  0.00     0.068 A 
ATOM     15  C   UNL d   1      32.986  20.609 -21.498  0.00  0.00     0.029 C 
ENDBRANCH   8  10
ENDBRANCH   1   7
BRANCH   4  16
ATOM     16  N   UNL d   1      30.220  16.289 -24.818  0.00  0.00    -0.220 NA
BRANCH  16  17
ATOM     17  C   UNL d   1      29.599  15.889 -24.449  0.00  0.00     0.101 C 
BRANCH  17  18
ATOM     18  C   UNL d   1      28.826  16.070 -24.643  0.00  0.00     0.021 C 
ATOM     19  C   UNL d   1      28.214  15.574 -24.397  0.00  0.00     0.002 C 
ENDBRANCH  17  18
ENDBRANCH  16  17
ENDBRANCH   4  16
TORSDOF 5
ENDMDL
MODEL 5
REMARK VINA RESULT:      -1.6      1.143      1.594
REMARK  5 active torsions:
REMARK  status: ('A' for Active; 'I' for Inactive)
REMARK    1  A    between atoms: C_5  and  C_1 
REMARK    2  A    between atoms: N_15  and  C_4 
REMARK       I    between atoms: N_9  and  C_5 
REMARK    3  A    between atoms: C_7  and  N_9 
REMARK    4  A    between atoms: C_18  and  N_15 
REMARK    5  A    between atoms: C_16  and  C_18 
ROOT
ATOM      1  C   UNL d   1      33.117  21.751 -22.204  0.00  0.00     0.128 A 
ATOM      2  N   UNL d   1      33.134  23.258 -21.561  0.00  0.00    -0.200 NA
ATOM      3  C   UNL d   1      33.176  22.407 -22.695  0.00  0.00     0.196 A 
ATOM      4  C   UNL d   1      33.076  22.602 -21.071  0.00  0.00     0.196 A 
ATOM      5  S   UNL d   1      33.067  21.860 -21.387  0.00  0.00    -0.041 SA
ATOM      6  N   UNL d   1      33.226  22.308 -23.509  0.00  0.00    -0.126 N 
ENDROOT
BRANCH   1   7
ATOM      7  C   UNL d   1      33.109  20.993 -22.536  0.00  0.00     0.290 C 
ATOM      8  N   UNL d   1      32.999  20.328 -22.042  0.00  0.00    -0.186 NA
ATOM      9  O   UNL d   1      33.208  20.884 -23.350  0.00  0.00    -0.264 OA
BRANCH   8  10
ATOM     10  C   UNL d   1      32.990  19.563 -22.369  0.00  0.00     0.194 A 
ATOM     11  N   UNL d   1      33.227  18.810 -22.111  0.00  0.00    -0.107 NA
ATOM     12  O   UNL d   1      33.133  18.155 -22.595  0.00  0.00    -0.210 OA
ATOM     13  C   UNL d   1      32.791  18.247 -23.363  0.00  0.00     0.128 A 
ATOM     14  C   UNL d   1      32.557  18.996 -23.617  0.00  0.00     0.068 A 
ATOM     15  C   UNL d   1      32.609  17.729 -24.001  0.00  0.00     0.029 C 
ENDBRANCH   8  10
ENDBRANCH   1   7
BRANCH   4  16
ATOM     16  N   UNL d   1      33.026  22.707 -20.258  0.00  0.00    -0.220 NA
BRANCH  16  17
ATOM     17  C   UNL d   1      33.208  23.443 -19.931  0.00  0.00     0.101 C 
BRANCH  17  18
ATOM     18  C   UNL d   1      32.808  23.702 -19.267  0.00  0.00     0.021 C 
ATOM     19  C   UNL d   1      33.174  23.671 -18.528  0.00  0.00     0.002 C 
ENDBRANCH  17  18
ENDBRANCH  16  17
ENDBRANCH   4  16
TORSDOF 5
ENDMDL
