MODEL 1
REMARK VINA RESULT:       0.8      0.000      0.000
REMARK  3 active torsions:
REMARK  status: ('A' for Active; 'I' for Inactive)
REMARK    1  A    between atoms: C_9  and  C_2 
REMARK    2  A    between atoms: C_10  and  C_6 
REMARK    3  A    between atoms: O_18  and  C_9 
ROOT
ATOM      1  C   UNL d   1     -41.761-122.660 -51.327  0.00  0.00     0.044 A 
ATOM      2  C   UNL d   1     -42.085-123.188 -50.130  0.00  0.00     0.113 A 
ATOM      3  C   UNL d   1     -41.916-122.484 -50.525  0.00  0.00     0.116 A 
ATOM      4  C   UNL d   1     -41.836-123.484 -51.424  0.00  0.00     0.112 A 
ATOM      5  S   UNL d   1     -42.036-123.810 -50.682  0.00  0.00    -0.061 SA
ATOM      6  C   UNL d   1     -41.566-122.192 -51.971  0.00  0.00     0.011 A 
ATOM      7  N   UNL d   1     -41.715-123.817 -52.154  0.00  0.00    -0.239 NA
ATOM      8  C   UNL d   1     -41.446-122.534 -52.703  0.00  0.00     0.018 A 
ATOM      9  C   UNL d   1     -41.519-123.343 -52.798  0.00  0.00     0.082 A 
ATOM     10  N   UNL d   1     -41.903-121.732 -50.187  0.00  0.00    -0.147 N 
ATOM     11  C   UNL d   1     -41.249-122.051 -53.344  0.00  0.00     0.002 A 
ATOM     12  C   UNL d   1     -41.397-123.683 -53.537  0.00  0.00     0.019 A 
ATOM     13  C   UNL d   1     -41.129-122.401 -54.080  0.00  0.00     0.000 A 
ATOM     14  C   UNL d   1     -41.202-123.217 -54.177  0.00  0.00     0.002 A 
ENDROOT
BRANCH   6  15
ATOM     15  C   UNL d   1     -41.494-121.378 -51.867  0.00  0.00     0.030 A 
ATOM     16  S   UNL d   1     -41.124-120.991 -51.237  0.00  0.00    -0.086 SA
ATOM     17  C   UNL d   1     -41.189-120.178 -51.371  0.00  0.00     0.035 A 
ATOM     18  C   UNL d   1     -41.597-120.060 -52.078  0.00  0.00     0.007 A 
ATOM     19  C   UNL d   1     -41.786-120.803 -52.385  0.00  0.00     0.007 A 
ENDBRANCH   6  15
BRANCH   2  20
ATOM     20  C   UNL d   1     -42.269-123.266 -49.330  0.00  0.00     0.303 C 
ATOM     21  O   UNL d   1     -43.052-123.222 -49.080  0.00  0.00    -0.259 OA
BRANCH  20  22
ATOM     22  O   UNL d   1     -41.667-123.388 -48.786  0.00  0.00    -0.295 OA
ATOM     23  C   UNL d   1     -41.856-123.567 -48.003  0.00  0.00     0.185 C 
ENDBRANCH  20  22
ENDBRANCH   2  20
TORSDOF 3
ENDMDL
