MODEL 1
REMARK VINA RESULT:      11.3      0.000      0.000
REMARK  4 active torsions:
REMARK  status: ('A' for Active; 'I' for Inactive)
REMARK    1  A    between atoms: C_16  and  C_4 
REMARK    2  A    between atoms: C_8  and  S_14 
REMARK    3  A    between atoms: C_18  and  C_9 
REMARK    4  A    between atoms: S_14  and  C_16 
ROOT
ATOM      1  N   UNL d   1      46.390 -18.020  43.558  0.00  0.00    -0.218 NA
ATOM      2  C   UNL d   1      46.297 -17.735  44.334  0.00  0.00     0.215 A 
ATOM      3  C   UNL d   1      46.366 -18.807  43.396  0.00  0.00     0.104 A 
ATOM      4  N   UNL d   1      46.178 -18.271  44.955  0.00  0.00    -0.121 NA
ATOM      5  N   UNL d   1      46.152 -19.084  44.792  0.00  0.00    -0.143 NA
ATOM      6  C   UNL d   1      46.244 -19.352  44.031  0.00  0.00     0.141 A 
ENDROOT
BRANCH   2   7
ATOM      7  S   UNL d   1      46.323 -16.934  44.488  0.00  0.00    -0.045 SA
BRANCH   7   8
ATOM      8  C   UNL d   1      45.624 -16.523  44.585  0.00  0.00     0.060 C 
BRANCH   8   9
ATOM      9  C   UNL d   1      45.624 -15.675  44.577  0.00  0.00     0.124 A 
ATOM     10  N   UNL d   1      46.190 -15.189  44.858  0.00  0.00    -0.059 NA
ATOM     11  C   UNL d   1      45.952 -14.414  44.731  0.00  0.00     0.735 A 
ATOM     12  N   UNL d   1      45.216 -14.447  44.360  0.00  0.00    -0.136 N 
ATOM     13  N   UNL d   1      46.297 -13.679  44.898  0.00  0.00    -0.059 NA
ATOM     14  C   UNL d   1      45.016 -15.235  44.266  0.00  0.00     0.118 A 
ATOM     15  C   UNL d   1      44.825 -13.754  44.156  0.00  0.00     0.100 A 
ATOM     16  C   UNL d   1      45.170 -13.019  44.324  0.00  0.00     0.041 A 
ATOM     17  C   UNL d   1      45.904 -12.980  44.694  0.00  0.00     0.119 A 
ENDBRANCH   8   9
ENDBRANCH   7   8
ENDBRANCH   2   7
BRANCH   3  18
ATOM     18  C   UNL d   1      46.460 -19.089  42.613  0.00  0.00     0.019 A 
ATOM     19  C   UNL d   1      46.524 -18.540  42.007  0.00  0.00     0.002 A 
ATOM     20  C   UNL d   1      46.618 -18.822  41.224  0.00  0.00     0.000 A 
ATOM     21  C   UNL d   1      46.643 -19.633  41.076  0.00  0.00     0.000 A 
ATOM     22  C   UNL d   1      46.575 -20.167  41.713  0.00  0.00     0.000 A 
ATOM     23  C   UNL d   1      46.484 -19.881  42.473  0.00  0.00     0.002 A 
ENDBRANCH   3  18
TORSDOF 4
ENDMDL
