MODEL 1
REMARK VINA RESULT:      93.6      0.000      0.000
REMARK  3 active torsions:
REMARK  status: ('A' for Active; 'I' for Inactive)
REMARK    1  A    between atoms: C_2  and  C_1 
REMARK       I    between atoms: N_6  and  C_2 
REMARK    2  A    between atoms: C_7  and  N_6 
REMARK    3  A    between atoms: C_18  and  N_6 
ROOT
ATOM      1  C   UNL d   1     -50.168  26.734  33.862  0.00  0.00     0.270 C 
ATOM      2  N   UNL d   1     -49.963  27.272  34.967  0.00  0.00    -0.274 N 
ATOM      3  O   UNL d   1     -49.653  26.986  33.307  0.00  0.00    -0.266 OA
ENDROOT
BRANCH   2   4
ATOM      4  C   UNL d   1     -50.446  27.054  35.545  0.00  0.00     0.079 A 
ATOM      5  C   UNL d   1     -50.234  26.819  36.260  0.00  0.00     0.116 A 
ATOM      6  S   UNL d   1     -50.882  26.654  36.661  0.00  0.00     0.213 S 
ATOM      7  O   UNL d   1     -51.531  26.490  37.063  0.00  0.00    -0.217 OA
ATOM      8  O   UNL d   1     -50.300  26.511  37.153  0.00  0.00    -0.217 OA
ATOM      9  C   UNL d   1     -51.491  26.790  36.192  0.00  0.00     0.100 A 
ATOM     10  C   UNL d   1     -51.224  27.035  35.507  0.00  0.00     0.030 A 
ENDBRANCH   2   4
BRANCH   2  11
ATOM     11  C   UNL d   1     -49.361  27.818  35.080  0.00  0.00     0.067 A 
ATOM     12  C   UNL d   1     -49.117  28.276  34.453  0.00  0.00     0.018 A 
ATOM     13  C   UNL d   1     -48.503  28.834  34.565  0.00  0.00     0.002 A 
ATOM     14  C   UNL d   1     -48.151  28.917  35.301  0.00  0.00     0.000 A 
ATOM     15  C   UNL d   1     -48.401  28.453  35.933  0.00  0.00     0.002 A 
ATOM     16  C   UNL d   1     -49.003  27.902  35.832  0.00  0.00     0.018 A 
ENDBRANCH   2  11
BRANCH   1  17
ATOM     17  C   UNL d   1     -50.765  26.184  33.725  0.00  0.00     0.120 A 
ATOM     18  C   UNL d   1     -51.524  26.448  33.481  0.00  0.00     0.305 A 
ATOM     19  O   UNL d   1     -52.125  25.897  33.343  0.00  0.00    -0.273 OA
ATOM     20  O   UNL d   1     -51.665  27.254  33.379  0.00  0.00    -0.259 OA
ATOM     21  C   UNL d   1     -51.975  25.090  33.447  0.00  0.00     0.103 A 
ATOM     22  C   UNL d   1     -51.227  24.830  33.688  0.00  0.00     0.023 A 
ATOM     23  C   UNL d   1     -52.583  24.544  33.307  0.00  0.00     0.025 A 
ATOM     24  C   UNL d   1     -50.627  25.376  33.825  0.00  0.00     0.012 A 
ATOM     25  C   UNL d   1     -51.086  24.024  33.789  0.00  0.00     0.002 A 
ATOM     26  C   UNL d   1     -51.689  23.475  33.651  0.00  0.00     0.000 A 
ATOM     27  C   UNL d   1     -52.437  23.736  33.410  0.00  0.00     0.002 A 
ENDBRANCH   1  17
TORSDOF 3
ENDMDL
