MODEL 1
REMARK VINA RESULT:      -9.5      0.000      0.000
REMARK  6 active torsions:
REMARK  status: ('A' for Active; 'I' for Inactive)
REMARK    1  A    between atoms: C_4  and  C_1 
REMARK    2  A    between atoms: C_3  and  N_8 
REMARK       I    between atoms: N_8  and  C_4 
REMARK    3  A    between atoms: C_14  and  C_6 
REMARK    4  A    between atoms: C_15  and  C_10 
REMARK    5  A    between atoms: C_12  and  C_16 
REMARK    6  A    between atoms: C_19  and  C_15 
ROOT
ATOM      1  C   UNL d   1      51.819  33.849  52.864  0.00  0.00     0.083 A 
ATOM      2  C   UNL d   1      51.944  33.037  52.887  0.00  0.00     0.032 A 
ATOM      3  C   UNL d   1      52.690  32.902  53.214  0.00  0.00     0.100 A 
ATOM      4  C   UNL d   1      52.487  34.220  53.176  0.00  0.00     0.105 A 
ATOM      5  O   UNL d   1      53.026  33.635  53.393  0.00  0.00    -0.307 OA
ATOM      6  C   UNL d   1      52.600  35.032  53.259  0.00  0.00     0.027 C 
ENDROOT
BRANCH   1   7
ATOM      7  C   UNL d   1      51.143  34.227  52.578  0.00  0.00     0.283 C 
ATOM      8  N   UNL d   1      50.450  34.226  53.029  0.00  0.00    -0.181 NA
ATOM      9  O   UNL d   1      51.159  34.601  51.848  0.00  0.00    -0.265 OA
BRANCH   8  10
ATOM     10  C   UNL d   1      49.774  34.603  52.744  0.00  0.00     0.216 A 
ATOM     11  N   UNL d   1      49.416  35.263  53.075  0.00  0.00    -0.200 NA
ATOM     12  C   UNL d   1      48.760  35.452  52.613  0.00  0.00     0.175 A 
ATOM     13  N   UNL d   1      48.717  34.904  51.997  0.00  0.00    -0.187 NA
ATOM     14  S   UNL d   1      49.346  34.381  52.083  0.00  0.00     0.054 SA
BRANCH  12  15
ATOM     15  C   UNL d   1      48.240  36.077  52.743  0.00  0.00     0.082 C 
BRANCH  15  16
ATOM     16  C   UNL d   1      47.984  36.245  53.510  0.00  0.00     0.199 C 
ATOM     17  O   UNL d   1      48.457  36.708  54.005  0.00  0.00    -0.286 OA
ATOM     18  C   UNL d   1      47.263  35.954  53.780  0.00  0.00     0.045 C 
ENDBRANCH  15  16
ENDBRANCH  12  15
ENDBRANCH   8  10
ENDBRANCH   1   7
BRANCH   3  19
ATOM     19  C   UNL d   1      53.037  32.162  53.339  0.00  0.00     0.023 A 
ATOM     20  C   UNL d   1      52.650  31.471  53.098  0.00  0.00     0.006 A 
ATOM     21  C   UNL d   1      53.002  30.738  53.226  0.00  0.00     0.071 A 
ATOM     22  C   UNL d   1      53.738  30.689  53.593  0.00  0.00     0.004 A 
ATOM     23  C   UNL d   1      54.125  31.380  53.834  0.00  0.00     0.000 A 
ATOM     24  C   UNL d   1      53.773  32.115  53.706  0.00  0.00     0.002 A 
BRANCH  21  25
ATOM     25  C   UNL d   1      52.616  30.049  52.985  0.00  0.00     0.419 C 
ATOM     26  F   UNL d   1      52.890  29.628  52.329  0.00  0.00    -0.166 F 
ATOM     27  F   UNL d   1      51.955  29.778  53.400  0.00  0.00    -0.166 F 
ATOM     28  F   UNL d   1      53.235  30.142  52.451  0.00  0.00    -0.166 F 
ENDBRANCH  21  25
ENDBRANCH   3  19
TORSDOF 6
ENDMDL
MODEL 2
REMARK VINA RESULT:      -9.5      3.117      5.746
REMARK  6 active torsions:
REMARK  status: ('A' for Active; 'I' for Inactive)
REMARK    1  A    between atoms: C_4  and  C_1 
REMARK    2  A    between atoms: C_3  and  N_8 
REMARK       I    between atoms: N_8  and  C_4 
REMARK    3  A    between atoms: C_14  and  C_6 
REMARK    4  A    between atoms: C_15  and  C_10 
REMARK    5  A    between atoms: C_12  and  C_16 
REMARK    6  A    between atoms: C_19  and  C_15 
ROOT
ATOM      1  C   UNL d   1      51.593  33.796  53.155  0.00  0.00     0.083 A 
ATOM      2  C   UNL d   1      50.804  33.762  52.925  0.00  0.00     0.032 A 
ATOM      3  C   UNL d   1      50.547  34.532  52.777  0.00  0.00     0.100 A 
ATOM      4  C   UNL d   1      51.826  34.588  53.151  0.00  0.00     0.105 A 
ATOM      5  O   UNL d   1      51.180  35.044  52.917  0.00  0.00    -0.307 OA
ATOM      6  C   UNL d   1      52.574  34.876  53.345  0.00  0.00     0.027 C 
ENDROOT
BRANCH   1   7
ATOM      7  C   UNL d   1      52.066  33.151  53.355  0.00  0.00     0.283 C 
ATOM      8  N   UNL d   1      52.391  32.678  52.758  0.00  0.00    -0.181 NA
ATOM      9  O   UNL d   1      52.215  32.978  54.143  0.00  0.00    -0.265 OA
BRANCH   8  10
ATOM     10  C   UNL d   1      52.864  32.033  52.957  0.00  0.00     0.216 A 
ATOM     11  N   UNL d   1      52.669  31.243  52.850  0.00  0.00    -0.200 NA
ATOM     12  C   UNL d   1      53.300  30.788  53.125  0.00  0.00     0.175 A 
ATOM     13  N   UNL d   1      53.883  31.304  53.401  0.00  0.00    -0.187 NA
ATOM     14  S   UNL d   1      53.608  32.073  53.295  0.00  0.00     0.054 SA
BRANCH  12  15
ATOM     15  C   UNL d   1      53.341  29.967  53.124  0.00  0.00     0.082 C 
BRANCH  15  16
ATOM     16  C   UNL d   1      52.936  29.535  53.699  0.00  0.00     0.199 C 
ATOM     17  O   UNL d   1      52.123  29.407  53.616  0.00  0.00    -0.286 OA
ATOM     18  C   UNL d   1      53.338  29.234  54.352  0.00  0.00     0.045 C 
ENDBRANCH  15  16
ENDBRANCH  12  15
ENDBRANCH   8  10
ENDBRANCH   1   7
BRANCH   3  19
ATOM     19  C   UNL d   1      49.788  34.751  52.533  0.00  0.00     0.023 A 
ATOM     20  C   UNL d   1      49.312  35.225  53.016  0.00  0.00     0.006 A 
ATOM     21  C   UNL d   1      48.557  35.438  52.766  0.00  0.00     0.071 A 
ATOM     22  C   UNL d   1      48.274  35.182  52.035  0.00  0.00     0.004 A 
ATOM     23  C   UNL d   1      48.750  34.709  51.551  0.00  0.00     0.000 A 
ATOM     24  C   UNL d   1      49.507  34.494  51.802  0.00  0.00     0.002 A 
BRANCH  21  25
ATOM     25  C   UNL d   1      48.082  35.911  53.248  0.00  0.00     0.419 C 
ATOM     26  F   UNL d   1      47.808  36.640  52.973  0.00  0.00    -0.166 F 
ATOM     27  F   UNL d   1      47.879  35.656  54.007  0.00  0.00    -0.166 F 
ATOM     28  F   UNL d   1      48.164  36.337  52.549  0.00  0.00    -0.166 F 
ENDBRANCH  21  25
ENDBRANCH   3  19
TORSDOF 6
ENDMDL
MODEL 3
REMARK VINA RESULT:      -9.2      1.812      2.471
REMARK  6 active torsions:
REMARK  status: ('A' for Active; 'I' for Inactive)
REMARK    1  A    between atoms: C_4  and  C_1 
REMARK    2  A    between atoms: C_3  and  N_8 
REMARK       I    between atoms: N_8  and  C_4 
REMARK    3  A    between atoms: C_14  and  C_6 
REMARK    4  A    between atoms: C_15  and  C_10 
REMARK    5  A    between atoms: C_12  and  C_16 
REMARK    6  A    between atoms: C_19  and  C_15 
ROOT
ATOM      1  C   UNL d   1      50.709  34.445  52.825  0.00  0.00     0.083 A 
ATOM      2  C   UNL d   1      51.171  34.442  53.506  0.00  0.00     0.032 A 
ATOM      3  C   UNL d   1      51.933  34.205  53.296  0.00  0.00     0.100 A 
ATOM      4  C   UNL d   1      51.185  34.210  52.192  0.00  0.00     0.105 A 
ATOM      5  O   UNL d   1      51.942  34.062  52.483  0.00  0.00    -0.307 OA
ATOM      6  C   UNL d   1      50.948  34.136  51.406  0.00  0.00     0.027 C 
ENDROOT
BRANCH   1   7
ATOM      7  C   UNL d   1      49.910  34.647  52.784  0.00  0.00     0.283 C 
ATOM      8  N   UNL d   1      49.667  35.409  52.998  0.00  0.00    -0.181 NA
ATOM      9  O   UNL d   1      49.358  34.095  52.532  0.00  0.00    -0.265 OA
BRANCH   8  10
ATOM     10  C   UNL d   1      48.869  35.612  52.957  0.00  0.00     0.216 A 
ATOM     11  N   UNL d   1      48.459  35.813  52.275  0.00  0.00    -0.200 NA
ATOM     12  C   UNL d   1      47.679  35.974  52.488  0.00  0.00     0.175 A 
ATOM     13  N   UNL d   1      47.613  35.870  53.305  0.00  0.00    -0.187 NA
ATOM     14  S   UNL d   1      48.352  35.646  53.590  0.00  0.00     0.054 SA
BRANCH  12  15
ATOM     15  C   UNL d   1      47.074  36.198  51.978  0.00  0.00     0.082 C 
BRANCH  15  16
ATOM     16  C   UNL d   1      46.498  35.649  51.758  0.00  0.00     0.199 C 
ATOM     17  O   UNL d   1      46.655  35.116  51.146  0.00  0.00    -0.286 OA
ATOM     18  C   UNL d   1      45.771  35.632  52.145  0.00  0.00     0.045 C 
ENDBRANCH  15  16
ENDBRANCH  12  15
ENDBRANCH   8  10
ENDBRANCH   1   7
BRANCH   3  19
ATOM     19  C   UNL d   1      52.574  34.127  53.812  0.00  0.00     0.023 A 
ATOM     20  C   UNL d   1      52.944  33.393  53.913  0.00  0.00     0.006 A 
ATOM     21  C   UNL d   1      53.582  33.323  54.429  0.00  0.00     0.071 A 
ATOM     22  C   UNL d   1      53.854  33.980  54.845  0.00  0.00     0.004 A 
ATOM     23  C   UNL d   1      53.484  34.713  54.745  0.00  0.00     0.000 A 
ATOM     24  C   UNL d   1      52.845  34.785  54.228  0.00  0.00     0.002 A 
BRANCH  21  25
ATOM     25  C   UNL d   1      53.951  32.591  54.529  0.00  0.00     0.419 C 
ATOM     26  F   UNL d   1      53.914  32.205  55.259  0.00  0.00    -0.166 F 
ATOM     27  F   UNL d   1      54.358  32.243  53.901  0.00  0.00    -0.166 F 
ATOM     28  F   UNL d   1      53.609  32.757  55.259  0.00  0.00    -0.166 F 
ENDBRANCH  21  25
ENDBRANCH   3  19
TORSDOF 6
ENDMDL
MODEL 4
REMARK VINA RESULT:      -8.2      1.582      2.625
REMARK  6 active torsions:
REMARK  status: ('A' for Active; 'I' for Inactive)
REMARK    1  A    between atoms: C_4  and  C_1 
REMARK    2  A    between atoms: C_3  and  N_8 
REMARK       I    between atoms: N_8  and  C_4 
REMARK    3  A    between atoms: C_14  and  C_6 
REMARK    4  A    between atoms: C_15  and  C_10 
REMARK    5  A    between atoms: C_12  and  C_16 
REMARK    6  A    between atoms: C_19  and  C_15 
ROOT
ATOM      1  C   UNL d   1      49.754  34.757  52.543  0.00  0.00     0.083 A 
ATOM      2  C   UNL d   1      50.377  34.668  53.074  0.00  0.00     0.032 A 
ATOM      3  C   UNL d   1      51.002  34.307  52.675  0.00  0.00     0.100 A 
ATOM      4  C   UNL d   1      49.994  34.451  51.814  0.00  0.00     0.105 A 
ATOM      5  O   UNL d   1      50.766  34.173  51.895  0.00  0.00    -0.307 OA
ATOM      6  C   UNL d   1      49.543  34.427  51.125  0.00  0.00     0.027 C 
ENDROOT
BRANCH   1   7
ATOM      7  C   UNL d   1      49.020  35.093  52.712  0.00  0.00     0.283 C 
ATOM      8  N   UNL d   1      48.953  35.653  53.318  0.00  0.00    -0.181 NA
ATOM      9  O   UNL d   1      48.358  34.873  52.281  0.00  0.00    -0.265 OA
BRANCH   8  10
ATOM     10  C   UNL d   1      48.220  35.989  53.486  0.00  0.00     0.216 A 
ATOM     11  N   UNL d   1      47.777  35.860  54.165  0.00  0.00    -0.200 NA
ATOM     12  C   UNL d   1      47.085  36.305  54.103  0.00  0.00     0.175 A 
ATOM     13  N   UNL d   1      47.106  36.708  53.383  0.00  0.00    -0.187 NA
ATOM     14  S   UNL d   1      47.810  36.509  53.005  0.00  0.00     0.054 SA
BRANCH  12  15
ATOM     15  C   UNL d   1      46.481  36.341  54.661  0.00  0.00     0.082 C 
BRANCH  15  16
ATOM     16  C   UNL d   1      45.731  36.051  54.472  0.00  0.00     0.199 C 
ATOM     17  O   UNL d   1      45.619  35.237  54.378  0.00  0.00    -0.286 OA
ATOM     18  C   UNL d   1      45.098  36.570  54.378  0.00  0.00     0.045 C 
ENDBRANCH  15  16
ENDBRANCH  12  15
ENDBRANCH   8  10
ENDBRANCH   1   7
BRANCH   3  19
ATOM     19  C   UNL d   1      51.737  34.115  53.002  0.00  0.00     0.023 A 
ATOM     20  C   UNL d   1      52.024  33.339  52.962  0.00  0.00     0.006 A 
ATOM     21  C   UNL d   1      52.756  33.155  53.290  0.00  0.00     0.071 A 
ATOM     22  C   UNL d   1      53.206  33.740  53.656  0.00  0.00     0.004 A 
ATOM     23  C   UNL d   1      52.920  34.516  53.696  0.00  0.00     0.000 A 
ATOM     24  C   UNL d   1      52.186  34.701  53.368  0.00  0.00     0.002 A 
BRANCH  21  25
ATOM     25  C   UNL d   1      53.042  32.381  53.251  0.00  0.00     0.419 C 
ATOM     26  F   UNL d   1      53.676  32.198  52.753  0.00  0.00    -0.166 F 
ATOM     27  F   UNL d   1      52.695  31.788  53.708  0.00  0.00    -0.166 F 
ATOM     28  F   UNL d   1      53.515  32.808  52.730  0.00  0.00    -0.166 F 
ENDBRANCH  21  25
ENDBRANCH   3  19
TORSDOF 6
ENDMDL
MODEL 5
REMARK VINA RESULT:      -8.1      3.235      5.994
REMARK  6 active torsions:
REMARK  status: ('A' for Active; 'I' for Inactive)
REMARK    1  A    between atoms: C_4  and  C_1 
REMARK    2  A    between atoms: C_3  and  N_8 
REMARK       I    between atoms: N_8  and  C_4 
REMARK    3  A    between atoms: C_14  and  C_6 
REMARK    4  A    between atoms: C_15  and  C_10 
REMARK    5  A    between atoms: C_12  and  C_16 
REMARK    6  A    between atoms: C_19  and  C_15 
ROOT
ATOM      1  C   UNL d   1      50.288  34.482  52.814  0.00  0.00     0.083 A 
ATOM      2  C   UNL d   1      49.698  34.929  53.173  0.00  0.00     0.032 A 
ATOM      3  C   UNL d   1      49.127  35.102  52.604  0.00  0.00     0.100 A 
ATOM      4  C   UNL d   1      50.083  34.378  52.021  0.00  0.00     0.105 A 
ATOM      5  O   UNL d   1      49.365  34.761  51.890  0.00  0.00    -0.307 OA
ATOM      6  C   UNL d   1      50.518  33.964  51.456  0.00  0.00     0.027 C 
ENDROOT
BRANCH   1   7
ATOM      7  C   UNL d   1      50.966  34.191  53.184  0.00  0.00     0.283 C 
ATOM      8  N   UNL d   1      51.658  34.644  53.190  0.00  0.00    -0.181 NA
ATOM      9  O   UNL d   1      50.954  33.454  53.544  0.00  0.00    -0.265 OA
BRANCH   8  10
ATOM     10  C   UNL d   1      52.336  34.354  53.558  0.00  0.00     0.216 A 
ATOM     11  N   UNL d   1      52.812  33.746  53.279  0.00  0.00    -0.200 NA
ATOM     12  C   UNL d   1      53.426  33.638  53.819  0.00  0.00     0.175 A 
ATOM     13  N   UNL d   1      53.323  34.182  54.432  0.00  0.00    -0.187 NA
ATOM     14  S   UNL d   1      52.648  34.622  54.265  0.00  0.00     0.054 SA
BRANCH  12  15
ATOM     15  C   UNL d   1      54.032  33.085  53.759  0.00  0.00     0.082 C 
BRANCH  15  16
ATOM     16  C   UNL d   1      53.968  32.360  54.148  0.00  0.00     0.199 C 
ATOM     17  O   UNL d   1      54.031  32.333  54.972  0.00  0.00    -0.286 OA
ATOM     18  C   UNL d   1      53.840  31.669  53.719  0.00  0.00     0.045 C 
ENDBRANCH  15  16
ENDBRANCH  12  15
ENDBRANCH   8  10
ENDBRANCH   1   7
BRANCH   3  19
ATOM     19  C   UNL d   1      48.436  35.540  52.729  0.00  0.00     0.023 A 
ATOM     20  C   UNL d   1      47.799  35.477  52.204  0.00  0.00     0.006 A 
ATOM     21  C   UNL d   1      47.115  35.917  52.335  0.00  0.00     0.071 A 
ATOM     22  C   UNL d   1      47.062  36.419  52.986  0.00  0.00     0.004 A 
ATOM     23  C   UNL d   1      47.700  36.482  53.510  0.00  0.00     0.000 A 
ATOM     24  C   UNL d   1      48.386  36.042  53.380  0.00  0.00     0.002 A 
BRANCH  21  25
ATOM     25  C   UNL d   1      46.479  35.854  51.811  0.00  0.00     0.419 C 
ATOM     26  F   UNL d   1      46.346  36.445  51.249  0.00  0.00    -0.166 F 
ATOM     27  F   UNL d   1      45.976  35.201  51.848  0.00  0.00    -0.166 F 
ATOM     28  F   UNL d   1      46.848  36.562  51.613  0.00  0.00    -0.166 F 
ENDBRANCH  21  25
ENDBRANCH   3  19
TORSDOF 6
ENDMDL
