MODEL 1
REMARK VINA RESULT:      66.7      0.000      0.000
REMARK  3 active torsions:
REMARK  status: ('A' for Active; 'I' for Inactive)
REMARK    1  A    between atoms: N_10  and  C_3 
REMARK    2  A    between atoms: C_15  and  N_4 
REMARK    3  A    between atoms: C_20  and  C_15 
ROOT
ATOM      1  C   UNL d   1      13.687  13.859  -4.636  0.00  0.00     0.191 A 
ATOM      2  C   UNL d   1      13.751  14.082  -3.839  0.00  0.00     0.173 A 
ATOM      3  C   UNL d   1      14.075  15.131  -4.599  0.00  0.00     0.738 A 
ATOM      4  N   UNL d   1      13.349  12.769  -3.451  0.00  0.00    -0.224 N 
ATOM      5  N   UNL d   1      13.886  14.507  -5.103  0.00  0.00    -0.041 NA
ATOM      6  N   UNL d   1      13.455  13.098  -4.838  0.00  0.00    -0.240 N 
ATOM      7  C   UNL d   1      13.286  12.551  -4.245  0.00  0.00     0.343 A 
ATOM      8  C   UNL d   1      13.582  13.533  -3.250  0.00  0.00     0.288 A 
ATOM      9  N   UNL d   1      13.992  14.871  -3.818  0.00  0.00    -0.130 N 
ATOM     10  O   UNL d   1      13.053  11.786  -4.446  0.00  0.00    -0.245 OA
ATOM     11  O   UNL d   1      13.645  13.751  -2.455  0.00  0.00    -0.265 OA
ATOM     12  C   UNL d   1      13.392  12.880  -5.632  0.00  0.00     0.105 C 
ATOM     13  C   UNL d   1      14.126  15.318  -3.141  0.00  0.00     0.118 C 
ENDROOT
BRANCH   4  14
ATOM     14  C   UNL d   1      13.178  12.217  -2.857  0.00  0.00     0.087 C 
BRANCH  14  15
ATOM     15  C   UNL d   1      13.705  12.107  -2.233  0.00  0.00     0.019 A 
ATOM     16  C   UNL d   1      13.434  12.153  -1.446  0.00  0.00     0.014 A 
ATOM     17  C   UNL d   1      13.961  12.043  -0.821  0.00  0.00     0.068 A 
ATOM     18 CL   UNL d   1      13.691  12.089  -0.044  0.00  0.00    -0.082 Cl
ATOM     19  C   UNL d   1      14.750  11.889  -0.973  0.00  0.00     0.068 A 
ATOM     20  C   UNL d   1      15.025  11.843  -1.765  0.00  0.00     0.012 A 
ATOM     21 CL   UNL d   1      15.276  11.779  -0.349  0.00  0.00    -0.082 Cl
ATOM     22  C   UNL d   1      14.490  11.954  -2.384  0.00  0.00     0.002 A 
ENDBRANCH  14  15
ENDBRANCH   4  14
BRANCH   3  23
ATOM     23  N   UNL d   1      14.307  15.888  -4.833  0.00  0.00    -0.059 N 
ATOM     24  N   UNL d   1      14.909  16.334  -4.493  0.00  0.00    -0.151 NA
ATOM     25  C   UNL d   1      14.953  17.058  -4.899  0.00  0.00     0.103 A 
ATOM     26  C   UNL d   1      15.484  17.673  -4.738  0.00  0.00     0.022 C 
ATOM     27  C   UNL d   1      14.374  17.048  -5.489  0.00  0.00     0.041 A 
ATOM     28  C   UNL d   1      13.978  16.326  -5.444  0.00  0.00     0.102 A 
ATOM     29  C   UNL d   1      13.356  16.086  -5.934  0.00  0.00     0.021 C 
ENDBRANCH   3  23
TORSDOF 3
ENDMDL
