MODEL 1
REMARK VINA RESULT:      58.9      0.000      0.000
REMARK  5 active torsions:
REMARK  status: ('A' for Active; 'I' for Inactive)
REMARK    1  A    between atoms: N_6  and  C_1 
REMARK    2  A    between atoms: C_12  and  C_2 
REMARK       I    between atoms: C_9  and  N_6 
REMARK       I    between atoms: C_11  and  N_7 
REMARK    3  A    between atoms: C_8  and  C_9 
REMARK    4  A    between atoms: O_24  and  C_11 
REMARK    5  A    between atoms: C_25  and  O_24 
ROOT
ATOM      1  C   UNL d   1      14.375  13.892  -2.243  0.00  0.00     0.119 A 
ATOM      2  C   UNL d   1      14.681  13.796  -1.482  0.00  0.00     0.084 A 
ATOM      3  C   UNL d   1      14.744  15.089  -1.792  0.00  0.00     0.049 A 
ATOM      4  C   UNL d   1      14.909  14.548  -1.209  0.00  0.00     0.016 A 
ATOM      5  S   UNL d   1      14.414  14.700  -2.437  0.00  0.00    -0.066 SA
ATOM      6  N   UNL d   1      15.252  16.138  -0.958  0.00  0.00    -0.251 N 
ATOM      7  C   UNL d   1      15.428  16.942  -0.824  0.00  0.00     0.378 C 
ATOM      8  C   UNL d   1      14.918  15.901  -1.667  0.00  0.00     0.091 A 
ATOM      9  C   UNL d   1      15.248  14.781  -0.485  0.00  0.00     0.020 A 
ATOM     10  C   UNL d   1      15.416  15.582  -0.371  0.00  0.00     0.085 A 
ATOM     11  O   UNL d   1      15.264  17.498  -1.411  0.00  0.00    -0.237 OA
ENDROOT
BRANCH   1  12
ATOM     12  N   UNL d   1      14.081  13.293  -2.729  0.00  0.00    -0.201 NA
ATOM     13  C   UNL d   1      13.710  13.482  -3.437  0.00  0.00     0.286 C 
ATOM     14  O   UNL d   1      13.628  14.276  -3.667  0.00  0.00    -0.265 OA
BRANCH  13  15
ATOM     15  C   UNL d   1      13.416  12.883  -3.923  0.00  0.00     0.088 A 
ATOM     16  S   UNL d   1      13.537  12.803  -4.747  0.00  0.00    -0.071 SA
ATOM     17  C   UNL d   1      13.136  12.117  -4.996  0.00  0.00     0.087 A 
ATOM     18 CL   UNL d   1      13.107  11.822  -5.783  0.00  0.00    -0.075 Cl
ATOM     19  C   UNL d   1      12.773  11.782  -4.335  0.00  0.00     0.019 A 
ATOM     20  C   UNL d   1      12.951  12.260  -3.680  0.00  0.00     0.013 A 
ENDBRANCH  13  15
ENDBRANCH   1  12
BRANCH   2  21
ATOM     21  C   UNL d   1      14.748  13.086  -1.072  0.00  0.00     0.299 C 
ATOM     22  O   UNL d   1      15.364  12.576  -1.238  0.00  0.00    -0.264 OA
ATOM     23  N   UNL d   1      14.192  12.891  -0.493  0.00  0.00    -0.102 N 
ENDBRANCH   2  21
BRANCH   7  24
ATOM     24  O   UNL d   1      15.764  17.182  -0.112  0.00  0.00    -0.257 OA
BRANCH  24  25
ATOM     25  C   UNL d   1      16.022  17.959  -0.014  0.00  0.00     0.128 C 
ATOM     26  C   UNL d   1      16.541  18.301  -0.551  0.00  0.00     0.029 C 
ENDBRANCH  24  25
ENDBRANCH   7  24
TORSDOF 5
ENDMDL
MODEL 2
REMARK VINA RESULT:      60.3      2.791      4.165
REMARK  5 active torsions:
REMARK  status: ('A' for Active; 'I' for Inactive)
REMARK    1  A    between atoms: N_6  and  C_1 
REMARK    2  A    between atoms: C_12  and  C_2 
REMARK       I    between atoms: C_9  and  N_6 
REMARK       I    between atoms: C_11  and  N_7 
REMARK    3  A    between atoms: C_8  and  C_9 
REMARK    4  A    between atoms: O_24  and  C_11 
REMARK    5  A    between atoms: C_25  and  O_24 
ROOT
ATOM      1  C   UNL d   1      13.895  13.821  -3.435  0.00  0.00     0.119 A 
ATOM      2  C   UNL d   1      13.452  13.736  -4.127  0.00  0.00     0.084 A 
ATOM      3  C   UNL d   1      13.984  14.956  -4.126  0.00  0.00     0.049 A 
ATOM      4  C   UNL d   1      13.513  14.449  -4.551  0.00  0.00     0.016 A 
ATOM      5  S   UNL d   1      14.228  14.584  -3.434  0.00  0.00    -0.066 SA
ATOM      6  N   UNL d   1      13.823  15.953  -5.142  0.00  0.00    -0.251 N 
ATOM      7  C   UNL d   1      13.976  16.714  -5.447  0.00  0.00     0.378 C 
ATOM      8  C   UNL d   1      14.144  15.725  -4.424  0.00  0.00     0.091 A 
ATOM      9  C   UNL d   1      13.183  14.675  -5.282  0.00  0.00     0.020 A 
ATOM     10  C   UNL d   1      13.346  15.432  -5.568  0.00  0.00     0.085 A 
ATOM     11  O   UNL d   1      14.453  17.236  -5.021  0.00  0.00    -0.237 OA
ENDROOT
BRANCH   1  12
ATOM     12  N   UNL d   1      13.992  13.252  -2.846  0.00  0.00    -0.201 NA
ATOM     13  C   UNL d   1      14.323  13.459  -2.122  0.00  0.00     0.286 C 
ATOM     14  O   UNL d   1      14.560  14.243  -1.981  0.00  0.00    -0.265 OA
BRANCH  13  15
ATOM     15  C   UNL d   1      14.420  12.890  -1.534  0.00  0.00     0.088 A 
ATOM     16  S   UNL d   1      15.115  12.739  -1.094  0.00  0.00    -0.071 SA
ATOM     17  C   UNL d   1      14.951  12.117  -0.565  0.00  0.00     0.087 A 
ATOM     18 CL   UNL d   1      15.491  11.782  -0.014  0.00  0.00    -0.075 Cl
ATOM     19  C   UNL d   1      14.166  11.889  -0.679  0.00  0.00     0.019 A 
ATOM     20  C   UNL d   1      13.847  12.370  -1.277  0.00  0.00     0.013 A 
ENDBRANCH  13  15
ENDBRANCH   1  12
BRANCH   2  21
ATOM     21  C   UNL d   1      13.028  13.069  -4.352  0.00  0.00     0.299 C 
ATOM     22  O   UNL d   1      12.863  12.486  -3.804  0.00  0.00    -0.264 OA
ATOM     23  N   UNL d   1      12.770  12.989  -5.133  0.00  0.00    -0.102 N 
ENDBRANCH   2  21
BRANCH   7  24
ATOM     24  O   UNL d   1      13.654  16.946  -6.168  0.00  0.00    -0.257 OA
BRANCH  24  25
ATOM     25  C   UNL d   1      13.643  17.743  -6.382  0.00  0.00     0.128 C 
ATOM     26  C   UNL d   1      12.939  18.167  -6.389  0.00  0.00     0.029 C 
ENDBRANCH  24  25
ENDBRANCH   7  24
TORSDOF 5
ENDMDL
