MODEL 1
REMARK VINA RESULT:      67.0      0.000      0.000
REMARK  5 active torsions:
REMARK  status: ('A' for Active; 'I' for Inactive)
REMARK    1  A    between atoms: C_7  and  C_1 
REMARK    2  A    between atoms: C_9  and  C_17 
REMARK       I    between atoms: N_11  and  C_9 
REMARK    3  A    between atoms: S_12  and  C_10 
REMARK    4  A    between atoms: C_13  and  N_11 
REMARK    5  A    between atoms: C_17  and  S_12 
ROOT
ATOM      1  N   UNL d   1      61.022  47.110  50.934  0.00  0.00    -0.147 NA
ATOM      2  C   UNL d   1      61.367  47.216  50.182  0.00  0.00     0.111 A 
ATOM      3  N   UNL d   1      60.704  47.757  51.328  0.00  0.00    -0.141 NA
ATOM      4  C   UNL d   1      60.728  48.507  50.978  0.00  0.00     0.133 A 
ATOM      5  C   UNL d   1      61.386  47.953  49.846  0.00  0.00     0.024 A 
ATOM      6  C   UNL d   1      61.072  48.595  50.234  0.00  0.00     0.029 A 
ENDROOT
BRANCH   4   7
ATOM      7  S   UNL d   1      60.409  49.156  51.375  0.00  0.00    -0.061 SA
BRANCH   7   8
ATOM      8  C   UNL d   1      59.881  49.664  50.986  0.00  0.00     0.099 C 
BRANCH   8   9
ATOM      9  C   UNL d   1      59.083  49.497  50.987  0.00  0.00     0.286 C 
ATOM     10  N   UNL d   1      58.611  49.705  50.343  0.00  0.00    -0.208 NA
ATOM     11  O   UNL d   1      58.732  49.114  51.639  0.00  0.00    -0.265 OA
BRANCH  10  12
ATOM     12  C   UNL d   1      57.802  49.537  50.340  0.00  0.00     0.086 A 
ATOM     13  C   UNL d   1      57.361  49.663  49.653  0.00  0.00     0.031 A 
ATOM     14  C   UNL d   1      56.547  49.495  49.647  0.00  0.00     0.059 A 
ATOM     15 CL   UNL d   1      56.102  49.621  48.956  0.00  0.00    -0.082 Cl
ATOM     16  C   UNL d   1      56.189  49.204  50.334  0.00  0.00     0.011 A 
ATOM     17  C   UNL d   1      56.633  49.081  51.017  0.00  0.00     0.002 A 
ATOM     18  C   UNL d   1      57.439  49.246  51.023  0.00  0.00     0.019 A 
ENDBRANCH  10  12
ENDBRANCH   8   9
ENDBRANCH   7   8
ENDBRANCH   4   7
BRANCH   2  19
ATOM     19  C   UNL d   1      61.686  46.560  49.789  0.00  0.00     0.068 A 
ATOM     20  C   UNL d   1      62.472  46.496  49.524  0.00  0.00     0.089 A 
ATOM     21  N   UNL d   1      62.548  45.749  49.162  0.00  0.00    -0.238 NA
ATOM     22  C   UNL d   1      63.055  47.060  49.606  0.00  0.00     0.021 C 
ATOM     23  C   UNL d   1      61.820  45.367  49.207  0.00  0.00     0.111 A 
ATOM     24  S   UNL d   1      61.290  45.869  49.593  0.00  0.00    -0.065 SA
ATOM     25  C   UNL d   1      61.656  44.609  48.912  0.00  0.00     0.028 C 
ENDBRANCH   2  19
TORSDOF 5
ENDMDL
