MODEL 1
REMARK VINA RESULT:      -7.4      0.000      0.000
REMARK  6 active torsions:
REMARK  status: ('A' for Active; 'I' for Inactive)
REMARK    1  A    between atoms: C_16  and  N_1 
REMARK    2  A    between atoms: C_11  and  C_2 
REMARK    3  A    between atoms: S_15  and  C_3 
REMARK    4  A    between atoms: C_8  and  C_11 
REMARK    5  A    between atoms: C_13  and  C_17 
REMARK       I    between atoms: N_14  and  C_13 
REMARK    6  A    between atoms: C_17  and  S_15 
ROOT
ATOM      1  N   UNL d   1      51.802  33.534  53.307  0.00  0.00    -0.269 N 
ATOM      2  C   UNL d   1      51.986  32.735  53.229  0.00  0.00     0.172 A 
ATOM      3  C   UNL d   1      51.012  33.621  53.140  0.00  0.00     0.201 A 
ATOM      4  N   UNL d   1      51.301  32.341  53.014  0.00  0.00    -0.128 NA
ATOM      5  N   UNL d   1      50.692  32.895  52.958  0.00  0.00    -0.121 NA
ENDROOT
BRANCH   2   6
ATOM      6  C   UNL d   1      52.745  32.477  53.363  0.00  0.00     0.059 C 
BRANCH   6   7
ATOM      7  C   UNL d   1      52.915  31.671  53.324  0.00  0.00     0.094 A 
ATOM      8  C   UNL d   1      53.070  31.249  54.012  0.00  0.00     0.082 A 
ATOM      9  C   UNL d   1      53.240  30.441  53.970  0.00  0.00     0.285 A 
ATOM     10  O   UNL d   1      53.401  30.003  54.672  0.00  0.00    -0.265 OA
ATOM     11  N   UNL d   1      53.250  30.066  53.224  0.00  0.00    -0.152 NA
ATOM     12  C   UNL d   1      53.094  30.488  52.543  0.00  0.00     0.371 A 
ATOM     13  N   UNL d   1      52.924  31.301  52.592  0.00  0.00    -0.191 NA
ATOM     14  O   UNL d   1      53.107  30.105  51.810  0.00  0.00    -0.242 OA
ENDBRANCH   6   7
ENDBRANCH   2   6
BRANCH   1  15
ATOM     15  C   UNL d   1      52.299  34.153  53.514  0.00  0.00     0.067 A 
ATOM     16  C   UNL d   1      52.413  34.339  54.314  0.00  0.00     0.018 A 
ATOM     17  C   UNL d   1      52.917  34.968  54.526  0.00  0.00     0.002 A 
ATOM     18  C   UNL d   1      53.299  35.401  53.936  0.00  0.00     0.000 A 
ATOM     19  C   UNL d   1      53.181  35.212  53.138  0.00  0.00     0.002 A 
ATOM     20  C   UNL d   1      52.682  34.589  52.930  0.00  0.00     0.018 A 
ENDBRANCH   1  15
BRANCH   3  21
ATOM     21  S   UNL d   1      50.594  34.354  53.155  0.00  0.00    -0.043 SA
BRANCH  21  22
ATOM     22  C   UNL d   1      49.881  34.429  52.725  0.00  0.00     0.099 C 
BRANCH  22  23
ATOM     23  C   UNL d   1      49.365  35.054  52.896  0.00  0.00     0.271 C 
ATOM     24  N   UNL d   1      48.736  35.219  52.382  0.00  0.00    -0.272 N 
ATOM     25  C   UNL d   1      48.495  34.856  51.670  0.00  0.00     0.083 A 
ATOM     26  C   UNL d   1      48.215  35.841  52.544  0.00  0.00     0.083 A 
ATOM     27  C   UNL d   1      47.828  35.257  51.399  0.00  0.00     0.021 A 
ATOM     28  C   UNL d   1      47.657  35.864  51.939  0.00  0.00     0.021 A 
ATOM     29  O   UNL d   1      49.472  35.517  53.577  0.00  0.00    -0.266 OA
ENDBRANCH  22  23
ENDBRANCH  21  22
ENDBRANCH   3  21
TORSDOF 6
ENDMDL
MODEL 2
REMARK VINA RESULT:      -7.3      1.041      5.038
REMARK  6 active torsions:
REMARK  status: ('A' for Active; 'I' for Inactive)
REMARK    1  A    between atoms: C_16  and  N_1 
REMARK    2  A    between atoms: C_11  and  C_2 
REMARK    3  A    between atoms: S_15  and  C_3 
REMARK    4  A    between atoms: C_8  and  C_11 
REMARK    5  A    between atoms: C_13  and  C_17 
REMARK       I    between atoms: N_14  and  C_13 
REMARK    6  A    between atoms: C_17  and  S_15 
ROOT
ATOM      1  N   UNL d   1      51.656  33.831  53.198  0.00  0.00    -0.269 N 
ATOM      2  C   UNL d   1      50.885  34.000  52.964  0.00  0.00     0.172 A 
ATOM      3  C   UNL d   1      51.764  33.030  53.124  0.00  0.00     0.201 A 
ATOM      4  N   UNL d   1      50.529  33.295  52.749  0.00  0.00    -0.128 NA
ATOM      5  N   UNL d   1      51.079  32.688  52.849  0.00  0.00    -0.121 NA
ENDROOT
BRANCH   2   6
ATOM      6  C   UNL d   1      50.613  34.767  52.979  0.00  0.00     0.059 C 
BRANCH   6   7
ATOM      7  C   UNL d   1      49.836  34.928  52.758  0.00  0.00     0.094 A 
ATOM      8  C   UNL d   1      49.577  34.744  52.000  0.00  0.00     0.082 A 
ATOM      9  C   UNL d   1      48.797  34.906  51.781  0.00  0.00     0.285 A 
ATOM     10  O   UNL d   1      48.526  34.719  51.004  0.00  0.00    -0.265 OA
ATOM     11  N   UNL d   1      48.282  35.257  52.337  0.00  0.00    -0.152 NA
ATOM     12  C   UNL d   1      48.543  35.439  53.088  0.00  0.00     0.371 A 
ATOM     13  N   UNL d   1      49.330  35.273  53.303  0.00  0.00    -0.191 NA
ATOM     14  O   UNL d   1      48.024  35.787  53.631  0.00  0.00    -0.242 OA
ENDBRANCH   6   7
ENDBRANCH   2   6
BRANCH   1  15
ATOM     15  C   UNL d   1      52.234  34.350  53.462  0.00  0.00     0.067 A 
ATOM     16  C   UNL d   1      52.322  34.488  54.275  0.00  0.00     0.018 A 
ATOM     17  C   UNL d   1      52.908  35.015  54.546  0.00  0.00     0.002 A 
ATOM     18  C   UNL d   1      53.397  35.396  54.001  0.00  0.00     0.000 A 
ATOM     19  C   UNL d   1      53.306  35.254  53.189  0.00  0.00     0.002 A 
ATOM     20  C   UNL d   1      52.725  34.733  52.923  0.00  0.00     0.018 A 
ENDBRANCH   1  15
BRANCH   3  21
ATOM     21  S   UNL d   1      52.480  32.621  53.306  0.00  0.00    -0.043 SA
BRANCH  21  22
ATOM     22  C   UNL d   1      52.538  31.803  53.145  0.00  0.00     0.099 C 
BRANCH  22  23
ATOM     23  C   UNL d   1      53.194  31.378  53.421  0.00  0.00     0.271 C 
ATOM     24  N   UNL d   1      53.134  30.559  53.531  0.00  0.00    -0.272 N 
ATOM     25  C   UNL d   1      52.499  30.031  53.412  0.00  0.00     0.083 A 
ATOM     26  C   UNL d   1      53.783  30.125  53.807  0.00  0.00     0.083 A 
ATOM     27  C   UNL d   1      52.762  29.276  53.615  0.00  0.00     0.021 A 
ATOM     28  C   UNL d   1      53.553  29.336  53.859  0.00  0.00     0.021 A 
ATOM     29  O   UNL d   1      53.909  31.765  53.588  0.00  0.00    -0.266 OA
ENDBRANCH  22  23
ENDBRANCH  21  22
ENDBRANCH   3  21
TORSDOF 6
ENDMDL
MODEL 3
REMARK VINA RESULT:      -7.2      1.426      2.177
REMARK  6 active torsions:
REMARK  status: ('A' for Active; 'I' for Inactive)
REMARK    1  A    between atoms: C_16  and  N_1 
REMARK    2  A    between atoms: C_11  and  C_2 
REMARK    3  A    between atoms: S_15  and  C_3 
REMARK    4  A    between atoms: C_8  and  C_11 
REMARK    5  A    between atoms: C_13  and  C_17 
REMARK       I    between atoms: N_14  and  C_13 
REMARK    6  A    between atoms: C_17  and  S_15 
ROOT
ATOM      1  N   UNL d   1      53.148  32.353  53.487  0.00  0.00    -0.269 N 
ATOM      2  C   UNL d   1      53.074  31.553  53.307  0.00  0.00     0.172 A 
ATOM      3  C   UNL d   1      52.534  32.743  53.124  0.00  0.00     0.201 A 
ATOM      4  N   UNL d   1      52.413  31.463  52.833  0.00  0.00    -0.128 NA
ATOM      5  N   UNL d   1      52.075  32.208  52.719  0.00  0.00    -0.121 NA
ENDROOT
BRANCH   2   6
ATOM      6  C   UNL d   1      53.616  31.019  53.596  0.00  0.00     0.059 C 
BRANCH   6   7
ATOM      7  C   UNL d   1      53.389  30.238  53.723  0.00  0.00     0.094 A 
ATOM      8  C   UNL d   1      53.073  29.795  53.107  0.00  0.00     0.082 A 
ATOM      9  C   UNL d   1      52.846  29.011  53.237  0.00  0.00     0.285 A 
ATOM     10  O   UNL d   1      52.521  28.552  52.608  0.00  0.00    -0.265 OA
ATOM     11  N   UNL d   1      52.942  28.680  53.998  0.00  0.00    -0.152 NA
ATOM     12  C   UNL d   1      53.256  29.122  54.608  0.00  0.00     0.371 A 
ATOM     13  N   UNL d   1      53.483  29.912  54.470  0.00  0.00    -0.191 NA
ATOM     14  O   UNL d   1      53.346  28.784  55.357  0.00  0.00    -0.242 OA
ENDBRANCH   6   7
ENDBRANCH   2   6
BRANCH   1  15
ATOM     15  C   UNL d   1      53.720  32.723  53.944  0.00  0.00     0.067 A 
ATOM     16  C   UNL d   1      54.430  32.970  53.593  0.00  0.00     0.018 A 
ATOM     17  C   UNL d   1      55.013  33.345  54.055  0.00  0.00     0.002 A 
ATOM     18  C   UNL d   1      54.878  33.468  54.860  0.00  0.00     0.000 A 
ATOM     19  C   UNL d   1      54.168  33.219  55.206  0.00  0.00     0.002 A 
ATOM     20  C   UNL d   1      53.592  32.848  54.747  0.00  0.00     0.018 A 
ENDBRANCH   1  15
BRANCH   3  21
ATOM     21  S   UNL d   1      52.400  33.575  53.166  0.00  0.00    -0.043 SA
BRANCH  21  22
ATOM     22  C   UNL d   1      51.780  33.914  52.719  0.00  0.00     0.099 C 
BRANCH  22  23
ATOM     23  C   UNL d   1      51.316  34.513  53.054  0.00  0.00     0.271 C 
ATOM     24  N   UNL d   1      50.527  34.602  52.814  0.00  0.00    -0.272 N 
ATOM     25  C   UNL d   1      50.067  34.181  52.261  0.00  0.00     0.083 A 
ATOM     26  C   UNL d   1      50.055  35.197  53.143  0.00  0.00     0.083 A 
ATOM     27  C   UNL d   1      49.315  34.519  52.253  0.00  0.00     0.021 A 
ATOM     28  C   UNL d   1      49.310  35.145  52.797  0.00  0.00     0.021 A 
ATOM     29  O   UNL d   1      51.632  35.023  53.627  0.00  0.00    -0.266 OA
ENDBRANCH  22  23
ENDBRANCH  21  22
ENDBRANCH   3  21
TORSDOF 6
ENDMDL
MODEL 4
REMARK VINA RESULT:      -7.2      1.742      5.220
REMARK  6 active torsions:
REMARK  status: ('A' for Active; 'I' for Inactive)
REMARK    1  A    between atoms: C_16  and  N_1 
REMARK    2  A    between atoms: C_11  and  C_2 
REMARK    3  A    between atoms: S_15  and  C_3 
REMARK    4  A    between atoms: C_8  and  C_11 
REMARK    5  A    between atoms: C_13  and  C_17 
REMARK       I    between atoms: N_14  and  C_13 
REMARK    6  A    between atoms: C_17  and  S_15 
ROOT
ATOM      1  N   UNL d   1      52.937  32.452  53.300  0.00  0.00    -0.269 N 
ATOM      2  C   UNL d   1      52.300  32.823  52.932  0.00  0.00     0.172 A 
ATOM      3  C   UNL d   1      52.881  31.657  53.144  0.00  0.00     0.201 A 
ATOM      4  N   UNL d   1      51.860  32.246  52.553  0.00  0.00    -0.128 NA
ATOM      5  N   UNL d   1      52.224  31.516  52.686  0.00  0.00    -0.121 NA
ENDROOT
BRANCH   2   6
ATOM      6  C   UNL d   1      52.208  33.629  52.991  0.00  0.00     0.059 C 
BRANCH   6   7
ATOM      7  C   UNL d   1      51.524  33.983  52.700  0.00  0.00     0.094 A 
ATOM      8  C   UNL d   1      50.943  34.246  53.219  0.00  0.00     0.082 A 
ATOM      9  C   UNL d   1      50.257  34.601  52.924  0.00  0.00     0.285 A 
ATOM     10  O   UNL d   1      49.658  34.873  53.453  0.00  0.00    -0.265 OA
ATOM     11  N   UNL d   1      50.165  34.687  52.099  0.00  0.00    -0.152 NA
ATOM     12  C   UNL d   1      50.744  34.424  51.586  0.00  0.00     0.371 A 
ATOM     13  N   UNL d   1      51.433  34.068  51.890  0.00  0.00    -0.191 NA
ATOM     14  O   UNL d   1      50.642  34.515  50.770  0.00  0.00    -0.242 OA
ENDBRANCH   6   7
ENDBRANCH   2   6
BRANCH   1  15
ATOM     15  C   UNL d   1      53.535  32.792  53.748  0.00  0.00     0.067 A 
ATOM     16  C   UNL d   1      53.429  32.893  54.564  0.00  0.00     0.018 A 
ATOM     17  C   UNL d   1      54.035  33.238  55.022  0.00  0.00     0.002 A 
ATOM     18  C   UNL d   1      54.736  33.475  54.656  0.00  0.00     0.000 A 
ATOM     19  C   UNL d   1      54.837  33.372  53.840  0.00  0.00     0.002 A 
ATOM     20  C   UNL d   1      54.236  33.031  53.390  0.00  0.00     0.018 A 
ENDBRANCH   1  15
BRANCH   3  21
ATOM     21  S   UNL d   1      53.425  31.073  53.418  0.00  0.00    -0.043 SA
BRANCH  21  22
ATOM     22  C   UNL d   1      53.166  30.284  53.515  0.00  0.00     0.099 C 
BRANCH  22  23
ATOM     23  C   UNL d   1      53.709  29.702  53.743  0.00  0.00     0.271 C 
ATOM     24  N   UNL d   1      53.524  29.193  54.371  0.00  0.00    -0.272 N 
ATOM     25  C   UNL d   1      52.851  29.141  54.860  0.00  0.00     0.083 A 
ATOM     26  C   UNL d   1      54.060  28.607  54.606  0.00  0.00     0.083 A 
ATOM     27  C   UNL d   1      52.976  28.525  55.394  0.00  0.00     0.021 A 
ATOM     28  C   UNL d   1      53.723  28.197  55.235  0.00  0.00     0.021 A 
ATOM     29  O   UNL d   1      54.435  29.623  53.349  0.00  0.00    -0.266 OA
ENDBRANCH  22  23
ENDBRANCH  21  22
ENDBRANCH   3  21
TORSDOF 6
ENDMDL
