MODEL 1
REMARK VINA RESULT:      32.0      0.000      0.000
REMARK  5 active torsions:
REMARK  status: ('A' for Active; 'I' for Inactive)
REMARK    1  A    between atoms: C_6  and  C_3 
REMARK    2  A    between atoms: C_7  and  C_6 
REMARK    3  A    between atoms: C_8  and  C_7 
REMARK    4  A    between atoms: O_16  and  C_10 
REMARK    5  A    between atoms: O_17  and  C_12 
ROOT
ATOM      1  C   UNL d   1      13.405  12.295  -3.316  0.00  0.00     0.198 C 
ATOM      2  O   UNL d   1      12.769  11.779  -3.435  0.00  0.00    -0.286 OA
ENDROOT
BRANCH   1   3
ATOM      3  C   UNL d   1      14.035  12.065  -2.827  0.00  0.00     0.067 C 
BRANCH   3   4
ATOM      4  C   UNL d   1      13.925  12.021  -2.012  0.00  0.00     0.107 A 
ATOM      5  O   UNL d   1      13.202  11.895  -1.615  0.00  0.00    -0.273 OA
ATOM      6  C   UNL d   1      13.350  11.891  -0.809  0.00  0.00     0.300 A 
ATOM      7  C   UNL d   1      14.163  12.015  -0.697  0.00  0.00     0.065 A 
ATOM      8  O   UNL d   1      12.791  11.784  -0.208  0.00  0.00    -0.259 OA
ATOM      9  C   UNL d   1      14.513  12.094  -1.441  0.00  0.00     0.028 A 
ATOM     10  C   UNL d   1      14.622  12.064  -0.014  0.00  0.00     0.005 A 
ATOM     11  C   UNL d   1      15.332  12.224  -1.504  0.00  0.00     0.002 A 
ATOM     12  C   UNL d   1      15.791  12.273  -0.821  0.00  0.00     0.000 A 
ATOM     13  C   UNL d   1      15.433  12.192  -0.074  0.00  0.00     0.000 A 
ENDBRANCH   3   4
ENDBRANCH   1   3
BRANCH   1  14
ATOM     14  C   UNL d   1      13.418  13.033  -3.679  0.00  0.00     0.041 A 
ATOM     15  C   UNL d   1      13.594  13.701  -3.233  0.00  0.00     0.029 A 
ATOM     16  C   UNL d   1      13.610  14.446  -3.587  0.00  0.00     0.116 A 
ATOM     17  C   UNL d   1      13.447  14.520  -4.394  0.00  0.00     0.116 A 
ATOM     18  C   UNL d   1      13.270  13.844  -4.841  0.00  0.00     0.026 A 
ATOM     19  C   UNL d   1      13.256  13.106  -4.479  0.00  0.00     0.005 A 
BRANCH  16  20
ATOM     20  O   UNL d   1      13.787  15.114  -3.141  0.00  0.00    -0.326 OA
ATOM     21  C   UNL d   1      14.578  15.309  -2.986  0.00  0.00     0.181 C 
ENDBRANCH  16  20
BRANCH  17  22
ATOM     22  O   UNL d   1      13.461  15.258  -4.757  0.00  0.00    -0.326 OA
ATOM     23  C   UNL d   1      12.877  15.466  -5.306  0.00  0.00     0.181 C 
ENDBRANCH  17  22
ENDBRANCH   1  14
TORSDOF 5
ENDMDL
