MODEL 1
REMARK VINA RESULT:      -9.2      0.000      0.000
REMARK  3 active torsions:
REMARK  status: ('A' for Active; 'I' for Inactive)
REMARK    1  A    between atoms: C_8  and  C_2 
REMARK    2  A    between atoms: C_9  and  C_3 
REMARK    3  A    between atoms: N_6  and  C_8 
ROOT
ATOM      1  N   UNL d   1      52.851  30.502  52.788  0.00  0.00    -0.121 NA
ATOM      2  C   UNL d   1      53.178  31.763  53.076  0.00  0.00     0.222 A 
ATOM      3  C   UNL d   1      53.155  30.511  53.553  0.00  0.00     0.204 A 
ATOM      4  O   UNL d   1      53.357  31.297  53.729  0.00  0.00    -0.267 OA
ATOM      5  N   UNL d   1      52.863  31.272  52.489  0.00  0.00    -0.119 NA
ENDROOT
BRANCH   2   6
ATOM      6  C   UNL d   1      53.289  32.581  53.009  0.00  0.00     0.127 C 
BRANCH   6   7
ATOM      7  N   UNL d   1      52.653  33.096  53.104  0.00  0.00    -0.301 N 
ATOM      8  C   UNL d   1      52.772  33.820  53.469  0.00  0.00     0.064 A 
ATOM      9  C   UNL d   1      52.142  34.343  53.569  0.00  0.00     0.016 A 
ATOM     10  C   UNL d   1      53.515  34.036  53.738  0.00  0.00     0.018 A 
ATOM     11  C   UNL d   1      52.253  35.066  53.932  0.00  0.00     0.001 A 
ATOM     12  C   UNL d   1      51.391  34.126  53.298  0.00  0.00     0.003 A 
ATOM     13  C   UNL d   1      52.997  35.279  54.199  0.00  0.00     0.000 A 
ATOM     14  C   UNL d   1      53.635  34.760  54.102  0.00  0.00     0.002 A 
ATOM     15  C   UNL d   1      51.273  33.399  52.932  0.00  0.00     0.019 A 
ATOM     16  C   UNL d   1      51.910  32.876  52.833  0.00  0.00     0.080 A 
ENDBRANCH   6   7
ENDBRANCH   2   6
BRANCH   3  17
ATOM     17  C   UNL d   1      53.243  29.859  54.053  0.00  0.00     0.043 A 
ATOM     18  C   UNL d   1      52.984  29.911  54.836  0.00  0.00     0.004 A 
ATOM     19  C   UNL d   1      53.069  29.262  55.338  0.00  0.00     0.000 A 
ATOM     20  C   UNL d   1      53.414  28.565  55.055  0.00  0.00     0.000 A 
ATOM     21  C   UNL d   1      53.671  28.520  54.270  0.00  0.00     0.000 A 
ATOM     22  C   UNL d   1      53.583  29.170  53.771  0.00  0.00     0.004 A 
ENDBRANCH   3  17
TORSDOF 3
ENDMDL
MODEL 2
REMARK VINA RESULT:      -9.1      2.095      4.601
REMARK  3 active torsions:
REMARK  status: ('A' for Active; 'I' for Inactive)
REMARK    1  A    between atoms: C_8  and  C_2 
REMARK    2  A    between atoms: C_9  and  C_3 
REMARK    3  A    between atoms: N_6  and  C_8 
ROOT
ATOM      1  N   UNL d   1      50.206  33.789  53.256  0.00  0.00    -0.121 NA
ATOM      2  C   UNL d   1      51.508  34.056  53.136  0.00  0.00     0.222 A 
ATOM      3  C   UNL d   1      50.312  34.206  52.555  0.00  0.00     0.204 A 
ATOM      4  O   UNL d   1      51.123  34.371  52.483  0.00  0.00    -0.267 OA
ATOM      5  N   UNL d   1      50.942  33.693  53.619  0.00  0.00    -0.119 NA
ENDROOT
BRANCH   2   6
ATOM      6  C   UNL d   1      52.322  34.090  53.292  0.00  0.00     0.127 C 
BRANCH   6   7
ATOM      7  N   UNL d   1      52.756  33.396  53.384  0.00  0.00    -0.301 N 
ATOM      8  C   UNL d   1      53.366  33.373  53.931  0.00  0.00     0.064 A 
ATOM      9  C   UNL d   1      53.808  32.684  54.032  0.00  0.00     0.016 A 
ATOM     10  C   UNL d   1      53.547  34.031  54.384  0.00  0.00     0.018 A 
ATOM     11  C   UNL d   1      54.417  32.654  54.575  0.00  0.00     0.001 A 
ATOM     12  C   UNL d   1      53.626  32.018  53.575  0.00  0.00     0.003 A 
ATOM     13  C   UNL d   1      54.594  33.313  55.026  0.00  0.00     0.000 A 
ATOM     14  C   UNL d   1      54.156  34.009  54.931  0.00  0.00     0.002 A 
ATOM     15  C   UNL d   1      53.014  32.043  53.026  0.00  0.00     0.019 A 
ATOM     16  C   UNL d   1      52.572  32.739  52.929  0.00  0.00     0.080 A 
ENDBRANCH   6   7
ENDBRANCH   2   6
BRANCH   3  17
ATOM     17  C   UNL d   1      49.719  34.422  52.020  0.00  0.00     0.043 A 
ATOM     18  C   UNL d   1      49.092  34.894  52.279  0.00  0.00     0.004 A 
ATOM     19  C   UNL d   1      48.498  35.112  51.749  0.00  0.00     0.000 A 
ATOM     20  C   UNL d   1      48.535  34.856  50.963  0.00  0.00     0.000 A 
ATOM     21  C   UNL d   1      49.166  34.384  50.710  0.00  0.00     0.000 A 
ATOM     22  C   UNL d   1      49.757  34.169  51.243  0.00  0.00     0.004 A 
ENDBRANCH   3  17
TORSDOF 3
ENDMDL
MODEL 3
REMARK VINA RESULT:      -8.7      1.526      4.674
REMARK  3 active torsions:
REMARK  status: ('A' for Active; 'I' for Inactive)
REMARK    1  A    between atoms: C_8  and  C_2 
REMARK    2  A    between atoms: C_9  and  C_3 
REMARK    3  A    between atoms: N_6  and  C_8 
ROOT
ATOM      1  N   UNL d   1      51.931  34.656  52.721  0.00  0.00    -0.121 NA
ATOM      2  C   UNL d   1      52.341  33.389  52.639  0.00  0.00     0.222 A 
ATOM      3  C   UNL d   1      51.263  34.184  52.626  0.00  0.00     0.204 A 
ATOM      4  O   UNL d   1      51.522  33.396  52.575  0.00  0.00    -0.267 OA
ATOM      5  N   UNL d   1      52.599  34.170  52.730  0.00  0.00    -0.119 NA
ENDROOT
BRANCH   2   6
ATOM      6  C   UNL d   1      52.831  32.721  52.616  0.00  0.00     0.127 C 
BRANCH   6   7
ATOM      7  N   UNL d   1      53.155  32.421  53.313  0.00  0.00    -0.301 N 
ATOM      8  C   UNL d   1      53.196  31.610  53.420  0.00  0.00     0.064 A 
ATOM      9  C   UNL d   1      53.518  31.298  54.112  0.00  0.00     0.016 A 
ATOM     10  C   UNL d   1      52.919  31.097  52.844  0.00  0.00     0.018 A 
ATOM     11  C   UNL d   1      53.562  30.491  54.226  0.00  0.00     0.001 A 
ATOM     12  C   UNL d   1      53.799  31.815  54.695  0.00  0.00     0.003 A 
ATOM     13  C   UNL d   1      53.284  29.981  53.649  0.00  0.00     0.000 A 
ATOM     14  C   UNL d   1      52.959  30.286  52.951  0.00  0.00     0.002 A 
ATOM     15  C   UNL d   1      53.757  32.630  54.585  0.00  0.00     0.019 A 
ATOM     16  C   UNL d   1      53.432  32.938  53.886  0.00  0.00     0.080 A 
ENDBRANCH   6   7
ENDBRANCH   2   6
BRANCH   3  17
ATOM     17  C   UNL d   1      50.480  34.445  52.588  0.00  0.00     0.043 A 
ATOM     18  C   UNL d   1      50.057  34.357  51.883  0.00  0.00     0.004 A 
ATOM     19  C   UNL d   1      49.275  34.616  51.841  0.00  0.00     0.000 A 
ATOM     20  C   UNL d   1      48.920  34.963  52.503  0.00  0.00     0.000 A 
ATOM     21  C   UNL d   1      49.349  35.048  53.206  0.00  0.00     0.000 A 
ATOM     22  C   UNL d   1      50.130  34.787  53.244  0.00  0.00     0.004 A 
ENDBRANCH   3  17
TORSDOF 3
ENDMDL
