MODEL 1
REMARK VINA RESULT:      -4.2      0.000      0.000
REMARK  9 active torsions:
REMARK  status: ('A' for Active; 'I' for Inactive)
REMARK    1  A    between atoms: C_9  and  N_1 
REMARK    2  A    between atoms: C_6  and  C_2 
REMARK    3  A    between atoms: S_11  and  C_3 
REMARK    4  A    between atoms: C_7  and  C_6 
REMARK    5  A    between atoms: C_20  and  C_9 
REMARK       I    between atoms: N_10  and  C_12 
REMARK    6  A    between atoms: C_13  and  N_10 
REMARK    7  A    between atoms: C_19  and  S_11 
REMARK    8  A    between atoms: C_12  and  C_19 
REMARK    9  A    between atoms: C_23  and  C_20 
ROOT
ATOM      1  N   UNL d   1     -40.739  14.394  20.250  0.00  0.00    -0.268 N 
ATOM      2  C   UNL d   1     -40.464  14.401  19.471  0.00  0.00     0.172 A 
ATOM      3  C   UNL d   1     -41.431  13.948  20.275  0.00  0.00     0.201 A 
ATOM      4  N   UNL d   1     -40.985  13.960  19.014  0.00  0.00    -0.128 NA
ATOM      5  N   UNL d   1     -41.585  13.677  19.505  0.00  0.00    -0.121 NA
ENDROOT
BRANCH   3   6
ATOM      6  S   UNL d   1     -41.889  13.796  20.938  0.00  0.00    -0.043 SA
BRANCH   6   7
ATOM      7  C   UNL d   1     -42.438  13.181  20.932  0.00  0.00     0.101 C 
BRANCH   7   8
ATOM      8  C   UNL d   1     -43.126  13.237  21.387  0.00  0.00     0.286 C 
ATOM      9  N   UNL d   1     -43.638  12.590  21.426  0.00  0.00    -0.205 NA
ATOM     10  O   UNL d   1     -43.299  13.926  21.798  0.00  0.00    -0.265 OA
BRANCH   9  11
ATOM     11  C   UNL d   1     -44.313  12.641  21.872  0.00  0.00     0.112 A 
ATOM     12  C   UNL d   1     -44.471  12.057  22.432  0.00  0.00     0.158 A 
ATOM     13  F   UNL d   1     -43.947  11.424  22.542  0.00  0.00    -0.203 F 
ATOM     14  C   UNL d   1     -45.152  12.094  22.894  0.00  0.00     0.031 A 
ATOM     15  C   UNL d   1     -45.679  12.728  22.786  0.00  0.00     0.002 A 
ATOM     16  C   UNL d   1     -45.518  13.312  22.223  0.00  0.00     0.002 A 
ATOM     17  C   UNL d   1     -44.829  13.263  21.766  0.00  0.00     0.021 A 
ENDBRANCH   9  11
ENDBRANCH   7   8
ENDBRANCH   6   7
ENDBRANCH   3   6
BRANCH   1  18
ATOM     18  C   UNL d   1     -40.380  14.770  20.891  0.00  0.00     0.084 C 
BRANCH  18  19
ATOM     19  C   UNL d   1     -39.756  14.394  21.297  0.00  0.00     0.019 C 
BRANCH  19  20
ATOM     20  C   UNL d   1     -39.414  14.754  21.960  0.00  0.00     0.002 A 
ATOM     21  C   UNL d   1     -39.457  15.568  22.043  0.00  0.00     0.000 A 
ATOM     22  C   UNL d   1     -39.115  15.922  22.705  0.00  0.00     0.000 A 
ATOM     23  C   UNL d   1     -38.735  15.455  23.275  0.00  0.00     0.000 A 
ATOM     24  C   UNL d   1     -38.696  14.633  23.184  0.00  0.00     0.000 A 
ATOM     25  C   UNL d   1     -39.042  14.290  22.519  0.00  0.00     0.000 A 
ENDBRANCH  19  20
ENDBRANCH  18  19
ENDBRANCH   1  18
BRANCH   2  26
ATOM     26  C   UNL d   1     -39.785  14.785  19.197  0.00  0.00     0.057 C 
BRANCH  26  27
ATOM     27  C   UNL d   1     -39.748  15.061  18.424  0.00  0.00     0.067 A 
ATOM     28  N   UNL d   1     -39.106  14.993  17.909  0.00  0.00    -0.303 N 
ATOM     29  C   UNL d   1     -39.313  15.347  17.191  0.00  0.00     0.080 A 
ATOM     30  C   UNL d   1     -38.386  14.634  18.084  0.00  0.00     0.100 C 
ATOM     31  C   UNL d   1     -40.081  15.634  17.259  0.00  0.00     0.021 A 
ATOM     32  C   UNL d   1     -40.353  15.460  18.016  0.00  0.00     0.019 A 
ENDBRANCH  26  27
ENDBRANCH   2  26
TORSDOF 9
ENDMDL
MODEL 2
REMARK VINA RESULT:      -2.6      2.012      5.421
REMARK  9 active torsions:
REMARK  status: ('A' for Active; 'I' for Inactive)
REMARK    1  A    between atoms: C_9  and  N_1 
REMARK    2  A    between atoms: C_6  and  C_2 
REMARK    3  A    between atoms: S_11  and  C_3 
REMARK    4  A    between atoms: C_7  and  C_6 
REMARK    5  A    between atoms: C_20  and  C_9 
REMARK       I    between atoms: N_10  and  C_12 
REMARK    6  A    between atoms: C_13  and  N_10 
REMARK    7  A    between atoms: C_19  and  S_11 
REMARK    8  A    between atoms: C_12  and  C_19 
REMARK    9  A    between atoms: C_23  and  C_20 
ROOT
ATOM      1  N   UNL d   1     -41.124  14.137  20.342  0.00  0.00    -0.268 N 
ATOM      2  C   UNL d   1     -41.759  13.646  20.540  0.00  0.00     0.172 A 
ATOM      3  C   UNL d   1     -41.056  14.152  19.521  0.00  0.00     0.201 A 
ATOM      4  N   UNL d   1     -42.083  13.358  19.843  0.00  0.00    -0.128 NA
ATOM      5  N   UNL d   1     -41.654  13.667  19.210  0.00  0.00    -0.121 NA
ENDROOT
BRANCH   3   6
ATOM      6  S   UNL d   1     -40.501  14.569  19.085  0.00  0.00    -0.043 SA
BRANCH   6   7
ATOM      7  C   UNL d   1     -40.605  14.678  18.275  0.00  0.00     0.101 C 
BRANCH   7   8
ATOM      8  C   UNL d   1     -39.980  14.958  17.812  0.00  0.00     0.286 C 
ATOM      9  N   UNL d   1     -39.801  14.576  17.102  0.00  0.00    -0.205 NA
ATOM     10  O   UNL d   1     -39.540  15.609  18.053  0.00  0.00    -0.265 OA
BRANCH   9  11
ATOM     11  C   UNL d   1     -39.188  14.847  16.646  0.00  0.00     0.112 A 
ATOM     12  C   UNL d   1     -38.694  14.304  16.270  0.00  0.00     0.158 A 
ATOM     13  F   UNL d   1     -38.819  13.489  16.356  0.00  0.00    -0.203 F 
ATOM     14  C   UNL d   1     -38.067  14.563  15.803  0.00  0.00     0.031 A 
ATOM     15  C   UNL d   1     -37.940  15.380  15.715  0.00  0.00     0.002 A 
ATOM     16  C   UNL d   1     -38.437  15.922  16.093  0.00  0.00     0.002 A 
ATOM     17  C   UNL d   1     -39.063  15.648  16.560  0.00  0.00     0.021 A 
ENDBRANCH   9  11
ENDBRANCH   7   8
ENDBRANCH   6   7
ENDBRANCH   3   6
BRANCH   1  18
ATOM     18  C   UNL d   1     -40.642  14.542  20.876  0.00  0.00     0.084 C 
BRANCH  18  19
ATOM     19  C   UNL d   1     -39.929  14.195  21.136  0.00  0.00     0.019 C 
BRANCH  19  20
ATOM     20  C   UNL d   1     -39.462  14.581  21.703  0.00  0.00     0.002 A 
ATOM     21  C   UNL d   1     -38.933  14.146  22.151  0.00  0.00     0.000 A 
ATOM     22  C   UNL d   1     -38.471  14.533  22.713  0.00  0.00     0.000 A 
ATOM     23  C   UNL d   1     -38.546  15.352  22.819  0.00  0.00     0.000 A 
ATOM     24  C   UNL d   1     -39.083  15.785  22.362  0.00  0.00     0.000 A 
ATOM     25  C   UNL d   1     -39.540  15.387  21.802  0.00  0.00     0.000 A 
ENDBRANCH  19  20
ENDBRANCH  18  19
ENDBRANCH   1  18
BRANCH   2  26
ATOM     26  C   UNL d   1     -42.022  13.475  21.305  0.00  0.00     0.057 C 
BRANCH  26  27
ATOM     27  C   UNL d   1     -42.795  13.226  21.430  0.00  0.00     0.067 A 
ATOM     28  N   UNL d   1     -43.032  12.553  21.847  0.00  0.00    -0.303 N 
ATOM     29  C   UNL d   1     -43.857  12.520  21.834  0.00  0.00     0.080 A 
ATOM     30  C   UNL d   1     -42.528  12.012  22.210  0.00  0.00     0.100 C 
ATOM     31  C   UNL d   1     -44.134  13.169  21.411  0.00  0.00     0.021 A 
ATOM     32  C   UNL d   1     -43.483  13.606  21.161  0.00  0.00     0.019 A 
ENDBRANCH  26  27
ENDBRANCH   2  26
TORSDOF 9
ENDMDL
MODEL 3
REMARK VINA RESULT:      -2.1      2.101      6.452
REMARK  9 active torsions:
REMARK  status: ('A' for Active; 'I' for Inactive)
REMARK    1  A    between atoms: C_9  and  N_1 
REMARK    2  A    between atoms: C_6  and  C_2 
REMARK    3  A    between atoms: S_11  and  C_3 
REMARK    4  A    between atoms: C_7  and  C_6 
REMARK    5  A    between atoms: C_20  and  C_9 
REMARK       I    between atoms: N_10  and  C_12 
REMARK    6  A    between atoms: C_13  and  N_10 
REMARK    7  A    between atoms: C_19  and  S_11 
REMARK    8  A    between atoms: C_12  and  C_19 
REMARK    9  A    between atoms: C_23  and  C_20 
ROOT
ATOM      1  N   UNL d   1     -44.867  12.685  22.212  0.00  0.00    -0.268 N 
ATOM      2  C   UNL d   1     -45.573  13.102  22.313  0.00  0.00     0.172 A 
ATOM      3  C   UNL d   1     -44.305  13.202  21.902  0.00  0.00     0.201 A 
ATOM      4  N   UNL d   1     -45.449  13.875  22.066  0.00  0.00    -0.128 NA
ATOM      5  N   UNL d   1     -44.667  13.943  21.811  0.00  0.00    -0.121 NA
ENDROOT
BRANCH   3   6
ATOM      6  S   UNL d   1     -43.527  13.021  21.715  0.00  0.00    -0.043 SA
BRANCH   6   7
ATOM      7  C   UNL d   1     -43.161  13.379  21.069  0.00  0.00     0.101 C 
BRANCH   7   8
ATOM      8  C   UNL d   1     -42.354  13.557  21.097  0.00  0.00     0.286 C 
ATOM      9  N   UNL d   1     -42.081  14.249  20.739  0.00  0.00    -0.205 NA
ATOM     10  O   UNL d   1     -41.829  13.053  21.477  0.00  0.00    -0.265 OA
BRANCH   9  11
ATOM     11  C   UNL d   1     -41.291  14.427  20.765  0.00  0.00     0.112 A 
ATOM     12  C   UNL d   1     -41.053  15.166  21.044  0.00  0.00     0.158 A 
ATOM     13  F   UNL d   1     -41.613  15.723  21.296  0.00  0.00    -0.203 F 
ATOM     14  C   UNL d   1     -40.254  15.363  21.077  0.00  0.00     0.031 A 
ATOM     15  C   UNL d   1     -39.690  14.806  20.825  0.00  0.00     0.002 A 
ATOM     16  C   UNL d   1     -39.931  14.067  20.546  0.00  0.00     0.002 A 
ATOM     17  C   UNL d   1     -40.738  13.881  20.518  0.00  0.00     0.021 A 
ENDBRANCH   9  11
ENDBRANCH   7   8
ENDBRANCH   6   7
ENDBRANCH   3   6
BRANCH   1  18
ATOM     18  C   UNL d   1     -44.746  11.889  22.391  0.00  0.00     0.084 C 
BRANCH  18  19
ATOM     19  C   UNL d   1     -44.580  11.661  23.176  0.00  0.00     0.019 C 
BRANCH  19  20
ATOM     20  C   UNL d   1     -44.391  10.872  23.349  0.00  0.00     0.002 A 
ATOM     21  C   UNL d   1     -43.607  10.635  23.342  0.00  0.00     0.000 A 
ATOM     22  C   UNL d   1     -43.423   9.851  23.514  0.00  0.00     0.000 A 
ATOM     23  C   UNL d   1     -44.029   9.313  23.692  0.00  0.00     0.000 A 
ATOM     24  C   UNL d   1     -44.819   9.559  23.698  0.00  0.00     0.000 A 
ATOM     25  C   UNL d   1     -44.991  10.347  23.524  0.00  0.00     0.000 A 
ENDBRANCH  19  20
ENDBRANCH  18  19
ENDBRANCH   1  18
BRANCH   2  26
ATOM     26  C   UNL d   1     -46.281  12.795  22.610  0.00  0.00     0.057 C 
BRANCH  26  27
ATOM     27  C   UNL d   1     -46.941  13.279  22.687  0.00  0.00     0.067 A 
ATOM     28  N   UNL d   1     -47.726  13.064  22.544  0.00  0.00    -0.303 N 
ATOM     29  C   UNL d   1     -48.204  13.721  22.691  0.00  0.00     0.080 A 
ATOM     30  C   UNL d   1     -47.982  12.320  22.299  0.00  0.00     0.100 C 
ATOM     31  C   UNL d   1     -47.720  14.344  22.923  0.00  0.00     0.021 A 
ATOM     32  C   UNL d   1     -46.942  14.076  22.922  0.00  0.00     0.019 A 
ENDBRANCH  26  27
ENDBRANCH   2  26
TORSDOF 9
ENDMDL
MODEL 4
REMARK VINA RESULT:      -1.8      1.876      6.453
REMARK  9 active torsions:
REMARK  status: ('A' for Active; 'I' for Inactive)
REMARK    1  A    between atoms: C_9  and  N_1 
REMARK    2  A    between atoms: C_6  and  C_2 
REMARK    3  A    between atoms: S_11  and  C_3 
REMARK    4  A    between atoms: C_7  and  C_6 
REMARK    5  A    between atoms: C_20  and  C_9 
REMARK       I    between atoms: N_10  and  C_12 
REMARK    6  A    between atoms: C_13  and  N_10 
REMARK    7  A    between atoms: C_19  and  S_11 
REMARK    8  A    between atoms: C_12  and  C_19 
REMARK    9  A    between atoms: C_23  and  C_20 
ROOT
ATOM      1  N   UNL d   1     -44.070  12.606  22.218  0.00  0.00    -0.268 N 
ATOM      2  C   UNL d   1     -44.023  11.844  22.535  0.00  0.00     0.172 A 
ATOM      3  C   UNL d   1     -43.412  12.726  21.736  0.00  0.00     0.201 A 
ATOM      4  N   UNL d   1     -43.337  11.493  22.249  0.00  0.00    -0.128 NA
ATOM      5  N   UNL d   1     -42.955  12.033  21.756  0.00  0.00    -0.121 NA
ENDROOT
BRANCH   3   6
ATOM      6  S   UNL d   1     -43.237  13.406  21.313  0.00  0.00    -0.043 SA
BRANCH   6   7
ATOM      7  C   UNL d   1     -42.583  13.425  20.811  0.00  0.00     0.101 C 
BRANCH   7   8
ATOM      8  C   UNL d   1     -42.078  14.080  20.814  0.00  0.00     0.286 C 
ATOM      9  N   UNL d   1     -41.292  13.984  20.580  0.00  0.00    -0.205 NA
ATOM     10  O   UNL d   1     -42.353  14.817  21.048  0.00  0.00    -0.265 OA
BRANCH   9  11
ATOM     11  C   UNL d   1     -40.794  14.624  20.582  0.00  0.00     0.112 A 
ATOM     12  C   UNL d   1     -40.403  14.833  19.887  0.00  0.00     0.158 A 
ATOM     13  F   UNL d   1     -40.515  14.397  19.191  0.00  0.00    -0.203 F 
ATOM     14  C   UNL d   1     -39.894  15.481  19.872  0.00  0.00     0.031 A 
ATOM     15  C   UNL d   1     -39.780  15.921  20.569  0.00  0.00     0.002 A 
ATOM     16  C   UNL d   1     -40.173  15.708  21.264  0.00  0.00     0.002 A 
ATOM     17  C   UNL d   1     -40.682  15.056  21.266  0.00  0.00     0.021 A 
ENDBRANCH   9  11
ENDBRANCH   7   8
ENDBRANCH   6   7
ENDBRANCH   3   6
BRANCH   1  18
ATOM     18  C   UNL d   1     -44.673  13.151  22.361  0.00  0.00     0.084 C 
BRANCH  18  19
ATOM     19  C   UNL d   1     -45.369  13.129  21.902  0.00  0.00     0.019 C 
BRANCH  19  20
ATOM     20  C   UNL d   1     -46.052  13.521  22.163  0.00  0.00     0.002 A 
ATOM     21  C   UNL d   1     -46.787  13.251  21.925  0.00  0.00     0.000 A 
ATOM     22  C   UNL d   1     -47.463  13.643  22.187  0.00  0.00     0.000 A 
ATOM     23  C   UNL d   1     -47.392  14.302  22.685  0.00  0.00     0.000 A 
ATOM     24  C   UNL d   1     -46.646  14.569  22.922  0.00  0.00     0.000 A 
ATOM     25  C   UNL d   1     -45.976  14.169  22.654  0.00  0.00     0.000 A 
ENDBRANCH  19  20
ENDBRANCH  18  19
ENDBRANCH   1  18
BRANCH   2  26
ATOM     26  C   UNL d   1     -44.569  11.495  23.048  0.00  0.00     0.057 C 
BRANCH  26  27
ATOM     27  C   UNL d   1     -44.476  10.712  23.281  0.00  0.00     0.067 A 
ATOM     28  N   UNL d   1     -45.077  10.195  23.512  0.00  0.00    -0.303 N 
ATOM     29  C   UNL d   1     -44.733   9.467  23.698  0.00  0.00     0.080 A 
ATOM     30  C   UNL d   1     -45.880  10.378  23.549  0.00  0.00     0.100 C 
ATOM     31  C   UNL d   1     -43.921   9.530  23.583  0.00  0.00     0.021 A 
ATOM     32  C   UNL d   1     -43.759  10.295  23.326  0.00  0.00     0.019 A 
ENDBRANCH  26  27
ENDBRANCH   2  26
TORSDOF 9
ENDMDL
