MODEL 1
REMARK VINA RESULT:       2.2      0.000      0.000
REMARK  8 active torsions:
REMARK  status: ('A' for Active; 'I' for Inactive)
REMARK    1  A    between atoms: C_25  and  N_5 
REMARK    2  A    between atoms: C_11  and  C_6 
REMARK       I    between atoms: N_15  and  C_11 
REMARK    3  A    between atoms: C_26  and  N_15 
REMARK    4  A    between atoms: C_17  and  C_26 
REMARK    5  A    between atoms: C_30  and  C_25 
REMARK    6  A    between atoms: O_29  and  C_30 
REMARK    7  A    between atoms: C_32  and  O_29 
REMARK    8  A    between atoms: C_31  and  C_32 
ROOT
ATOM      1  C   UNL d   1      57.461  -0.173  32.007  0.00  0.00     0.155 A 
ATOM      2  C   UNL d   1      56.965  -0.731  31.655  0.00  0.00     0.091 A 
ATOM      3  N   UNL d   1      57.288   0.113  32.766  0.00  0.00    -0.210 NA
ATOM      4  N   UNL d   1      56.126  -0.717  32.817  0.00  0.00    -0.258 N 
ATOM      5  N   UNL d   1      58.122   0.099  31.611  0.00  0.00    -0.272 N 
ATOM      6  C   UNL d   1      57.810  -0.736  30.502  0.00  0.00     0.094 A 
ATOM      7  C   UNL d   1      56.622  -0.159  33.168  0.00  0.00     0.152 A 
ATOM      8  C   UNL d   1      56.293  -1.006  32.061  0.00  0.00     0.269 A 
ATOM      9  C   UNL d   1      58.306  -0.179  30.853  0.00  0.00     0.175 A 
ATOM     10  C   UNL d   1      57.137  -1.017  30.899  0.00  0.00     0.016 A 
ATOM     11  C   UNL d   1      56.453   0.127  33.921  0.00  0.00     0.035 A 
ATOM     12  C   UNL d   1      55.454  -0.997  33.213  0.00  0.00     0.084 A 
ATOM     13  N   UNL d   1      58.971   0.093  30.452  0.00  0.00    -0.128 N 
ATOM     14  O   UNL d   1      55.797  -1.569  31.700  0.00  0.00    -0.266 OA
ATOM     15  C   UNL d   1      55.292  -0.703  33.972  0.00  0.00     0.019 A 
ATOM     16  C   UNL d   1      55.788  -0.145  34.323  0.00  0.00     0.005 A 
ATOM     17  C   UNL d   1      56.946   0.682  34.271  0.00  0.00     0.003 C 
ENDROOT
BRANCH   6  18
ATOM     18  C   UNL d   1      57.987  -1.023  29.738  0.00  0.00     0.282 C 
ATOM     19  N   UNL d   1      58.294  -1.782  29.649  0.00  0.00    -0.204 NA
ATOM     20  O   UNL d   1      57.851  -0.543  29.081  0.00  0.00    -0.265 OA
BRANCH  19  21
ATOM     21  C   UNL d   1      58.468  -2.065  28.894  0.00  0.00     0.127 C 
BRANCH  21  22
ATOM     22  C   UNL d   1      58.933  -2.738  28.801  0.00  0.00     0.119 A 
ATOM     23  O   UNL d   1      59.745  -2.787  28.942  0.00  0.00    -0.304 OA
ATOM     24  C   UNL d   1      59.989  -3.558  28.779  0.00  0.00     0.123 A 
ATOM     25  C   UNL d   1      59.328  -3.990  28.536  0.00  0.00     0.029 A 
ATOM     26  C   UNL d   1      58.675  -3.474  28.552  0.00  0.00     0.028 A 
ENDBRANCH  21  22
ENDBRANCH  19  21
ENDBRANCH   6  18
BRANCH   5  27
ATOM     27  C   UNL d   1      58.618   0.657  31.963  0.00  0.00     0.110 C 
BRANCH  27  28
ATOM     28  C   UNL d   1      59.436   0.533  31.972  0.00  0.00     0.142 C 
BRANCH  28  29
ATOM     29  O   UNL d   1      59.873   0.682  32.656  0.00  0.00    -0.298 OA
BRANCH  29  30
ATOM     30  C   UNL d   1      60.655   0.428  32.701  0.00  0.00     0.168 C 
BRANCH  30  31
ATOM     31  C   UNL d   1      61.124   0.625  33.354  0.00  0.00     0.261 C 
ATOM     32  O   UNL d   1      60.852   0.461  34.115  0.00  0.00    -0.281 OA
ENDBRANCH  30  31
ENDBRANCH  29  30
ENDBRANCH  28  29
ENDBRANCH  27  28
ENDBRANCH   5  27
TORSDOF 8
ENDMDL
MODEL 2
REMARK VINA RESULT:       4.0      1.549      5.316
REMARK  8 active torsions:
REMARK  status: ('A' for Active; 'I' for Inactive)
REMARK    1  A    between atoms: C_25  and  N_5 
REMARK    2  A    between atoms: C_11  and  C_6 
REMARK       I    between atoms: N_15  and  C_11 
REMARK    3  A    between atoms: C_26  and  N_15 
REMARK    4  A    between atoms: C_17  and  C_26 
REMARK    5  A    between atoms: C_30  and  C_25 
REMARK    6  A    between atoms: O_29  and  C_30 
REMARK    7  A    between atoms: C_32  and  O_29 
REMARK    8  A    between atoms: C_31  and  C_32 
ROOT
ATOM      1  C   UNL d   1      58.658  -0.963  30.076  0.00  0.00     0.155 A 
ATOM      2  C   UNL d   1      58.650  -0.446  30.720  0.00  0.00     0.091 A 
ATOM      3  N   UNL d   1      59.285  -0.938  29.533  0.00  0.00    -0.210 NA
ATOM      4  N   UNL d   1      59.891   0.119  30.280  0.00  0.00    -0.258 N 
ATOM      5  N   UNL d   1      58.051  -1.500  29.971  0.00  0.00    -0.272 N 
ATOM      6  C   UNL d   1      57.412  -1.019  31.148  0.00  0.00     0.094 A 
ATOM      7  C   UNL d   1      59.899  -0.398  29.636  0.00  0.00     0.152 A 
ATOM      8  C   UNL d   1      59.270   0.099  30.824  0.00  0.00     0.269 A 
ATOM      9  C   UNL d   1      57.419  -1.535  30.505  0.00  0.00     0.175 A 
ATOM     10  C   UNL d   1      58.026  -0.471  31.261  0.00  0.00     0.016 A 
ATOM     11  C   UNL d   1      60.519  -0.376  29.096  0.00  0.00     0.035 A 
ATOM     12  C   UNL d   1      60.504   0.666  30.392  0.00  0.00     0.084 A 
ATOM     13  N   UNL d   1      56.806  -2.074  30.403  0.00  0.00    -0.128 N 
ATOM     14  O   UNL d   1      59.256   0.617  31.475  0.00  0.00    -0.266 OA
ATOM     15  C   UNL d   1      61.126   0.681  29.842  0.00  0.00     0.019 A 
ATOM     16  C   UNL d   1      61.133   0.164  29.199  0.00  0.00     0.005 A 
ATOM     17  C   UNL d   1      60.526  -0.889  28.457  0.00  0.00     0.003 C 
ENDROOT
BRANCH   6  18
ATOM     18  C   UNL d   1      56.780  -1.046  31.693  0.00  0.00     0.282 C 
ATOM     19  N   UNL d   1      56.569  -0.365  32.105  0.00  0.00    -0.204 NA
ATOM     20  O   UNL d   1      56.374  -1.754  31.813  0.00  0.00    -0.265 OA
BRANCH  19  21
ATOM     21  C   UNL d   1      55.944  -0.391  32.644  0.00  0.00     0.127 C 
BRANCH  21  22
ATOM     22  C   UNL d   1      55.994   0.014  33.358  0.00  0.00     0.119 A 
ATOM     23  O   UNL d   1      56.688   0.293  33.708  0.00  0.00    -0.304 OA
ATOM     24  C   UNL d   1      56.489   0.666  34.416  0.00  0.00     0.123 A 
ATOM     25  C   UNL d   1      55.669   0.620  34.507  0.00  0.00     0.029 A 
ATOM     26  C   UNL d   1      55.368   0.214  33.846  0.00  0.00     0.028 A 
ENDBRANCH  21  22
ENDBRANCH  19  21
ENDBRANCH   6  18
BRANCH   5  27
ATOM     27  C   UNL d   1      58.058  -2.016  29.328  0.00  0.00     0.110 C 
BRANCH  27  28
ATOM     28  C   UNL d   1      58.121  -2.831  29.455  0.00  0.00     0.142 C 
BRANCH  28  29
ATOM     29  O   UNL d   1      57.904  -3.364  28.863  0.00  0.00    -0.298 OA
BRANCH  29  30
ATOM     30  C   UNL d   1      58.419  -3.971  28.655  0.00  0.00     0.168 C 
BRANCH  30  31
ATOM     31  C   UNL d   1      58.129  -4.721  28.461  0.00  0.00     0.261 C 
ATOM     32  O   UNL d   1      58.551  -5.392  28.689  0.00  0.00    -0.281 OA
ENDBRANCH  30  31
ENDBRANCH  29  30
ENDBRANCH  28  29
ENDBRANCH  27  28
ENDBRANCH   5  27
TORSDOF 8
ENDMDL
