MODEL 1
REMARK VINA RESULT:      60.4      0.000      0.000
REMARK  6 active torsions:
REMARK  status: ('A' for Active; 'I' for Inactive)
REMARK    1  A    between atoms: C_10  and  C_1 
REMARK    2  A    between atoms: C_7  and  O_9 
REMARK       I    between atoms: N_12  and  C_7 
REMARK    3  A    between atoms: O_9  and  C_14 
REMARK    4  A    between atoms: C_24  and  N_12 
REMARK    5  A    between atoms: C_25  and  N_12 
REMARK    6  A    between atoms: O_23  and  C_20 
ROOT
ATOM      1  C   UNL d   1      13.771  14.240  -3.852  0.00  0.00     0.062 A 
ATOM      2  C   UNL d   1      14.262  14.910  -3.767  0.00  0.00     0.199 A 
ATOM      3  C   UNL d   1      13.256  14.188  -4.513  0.00  0.00     0.103 A 
ATOM      4  C   UNL d   1      14.248  15.515  -4.321  0.00  0.00     0.062 A 
ATOM      5  C   UNL d   1      13.736  15.463  -4.979  0.00  0.00     0.105 A 
ATOM      6  O   UNL d   1      13.241  14.804  -5.078  0.00  0.00    -0.307 OA
ATOM      7  C   UNL d   1      13.719  16.075  -5.542  0.00  0.00     0.050 A 
ATOM      8  C   UNL d   1      14.734  16.184  -4.244  0.00  0.00     0.007 A 
ATOM      9  O   UNL d   1      14.767  14.958  -3.115  0.00  0.00    -0.286 OA
ATOM     10  C   UNL d   1      14.206  16.733  -5.453  0.00  0.00     0.107 A 
ATOM     11  C   UNL d   1      14.714  16.788  -4.804  0.00  0.00     0.025 A 
ATOM     12  C   UNL d   1      12.769  13.530  -4.601  0.00  0.00     0.027 C 
ENDROOT
BRANCH   1  13
ATOM     13  C   UNL d   1      13.788  13.636  -3.295  0.00  0.00     0.005 A 
ATOM     14  C   UNL d   1      14.082  13.786  -2.533  0.00  0.00     0.002 A 
ATOM     15  C   UNL d   1      14.100  13.181  -1.975  0.00  0.00     0.024 A 
ATOM     16  C   UNL d   1      13.826  12.429  -2.172  0.00  0.00     0.094 A 
ATOM     17  C   UNL d   1      13.531  12.279  -2.938  0.00  0.00     0.024 A 
ATOM     18  C   UNL d   1      13.515  12.883  -3.491  0.00  0.00     0.002 A 
BRANCH  16  19
ATOM     19  O   UNL d   1      13.842  11.823  -1.618  0.00  0.00    -0.328 OA
ATOM     20  C   UNL d   1      14.415  11.816  -1.026  0.00  0.00     0.181 C 
ENDBRANCH  16  19
ENDBRANCH   1  13
BRANCH  10  21
ATOM     21  O   UNL d   1      14.187  17.338  -6.014  0.00  0.00    -0.259 OA
BRANCH  21  22
ATOM     22  C   UNL d   1      13.485  17.747  -6.152  0.00  0.00     0.377 C 
ATOM     23  N   UNL d   1      13.473  18.570  -6.101  0.00  0.00    -0.252 N 
ATOM     24  O   UNL d   1      12.795  17.334  -6.340  0.00  0.00    -0.237 OA
BRANCH  23  25
ATOM     25  C   UNL d   1      14.164  18.989  -5.912  0.00  0.00     0.085 C 
ATOM     26  C   UNL d   1      14.254  19.781  -6.125  0.00  0.00     0.021 C 
ENDBRANCH  23  25
BRANCH  23  27
ATOM     27  C   UNL d   1      12.769  18.983  -6.239  0.00  0.00     0.085 C 
ATOM     28  C   UNL d   1      12.788  19.803  -6.387  0.00  0.00     0.021 C 
ENDBRANCH  23  27
ENDBRANCH  21  22
ENDBRANCH  10  21
TORSDOF 6
ENDMDL
MODEL 2
REMARK VINA RESULT:      60.9      1.806      5.866
REMARK  6 active torsions:
REMARK  status: ('A' for Active; 'I' for Inactive)
REMARK    1  A    between atoms: C_10  and  C_1 
REMARK    2  A    between atoms: C_7  and  O_9 
REMARK       I    between atoms: N_12  and  C_7 
REMARK    3  A    between atoms: O_9  and  C_14 
REMARK    4  A    between atoms: C_24  and  N_12 
REMARK    5  A    between atoms: C_25  and  N_12 
REMARK    6  A    between atoms: O_23  and  C_20 
ROOT
ATOM      1  C   UNL d   1      14.372  15.744  -3.980  0.00  0.00     0.062 A 
ATOM      2  C   UNL d   1      14.039  15.041  -4.286  0.00  0.00     0.199 A 
ATOM      3  C   UNL d   1      14.616  15.768  -3.178  0.00  0.00     0.103 A 
ATOM      4  C   UNL d   1      13.950  14.377  -3.813  0.00  0.00     0.062 A 
ATOM      5  C   UNL d   1      14.194  14.401  -3.015  0.00  0.00     0.105 A 
ATOM      6  O   UNL d   1      14.526  15.091  -2.695  0.00  0.00    -0.307 OA
ATOM      7  C   UNL d   1      14.105  13.729  -2.532  0.00  0.00     0.050 A 
ATOM      8  C   UNL d   1      13.621  13.675  -4.111  0.00  0.00     0.007 A 
ATOM      9  O   UNL d   1      13.799  15.022  -5.076  0.00  0.00    -0.286 OA
ATOM     10  C   UNL d   1      13.777  13.039  -2.840  0.00  0.00     0.107 A 
ATOM     11  C   UNL d   1      13.535  13.012  -3.629  0.00  0.00     0.025 A 
ATOM     12  C   UNL d   1      14.945  16.458  -2.870  0.00  0.00     0.027 C 
ENDROOT
BRANCH   1  13
ATOM     13  C   UNL d   1      14.459  16.407  -4.458  0.00  0.00     0.005 A 
ATOM     14  C   UNL d   1      14.374  16.337  -5.281  0.00  0.00     0.002 A 
ATOM     15  C   UNL d   1      14.461  17.002  -5.758  0.00  0.00     0.024 A 
ATOM     16  C   UNL d   1      14.633  17.734  -5.421  0.00  0.00     0.094 A 
ATOM     17  C   UNL d   1      14.718  17.804  -4.595  0.00  0.00     0.024 A 
ATOM     18  C   UNL d   1      14.630  17.140  -4.121  0.00  0.00     0.002 A 
BRANCH  16  19
ATOM     19  O   UNL d   1      14.721  18.398  -5.895  0.00  0.00    -0.328 OA
ATOM     20  C   UNL d   1      14.064  18.745  -6.252  0.00  0.00     0.181 C 
ENDBRANCH  16  19
ENDBRANCH   1  13
BRANCH  10  21
ATOM     21  O   UNL d   1      13.690  12.375  -2.358  0.00  0.00    -0.259 OA
BRANCH  21  22
ATOM     22  C   UNL d   1      14.280  12.181  -1.817  0.00  0.00     0.377 C 
ATOM     23  N   UNL d   1      14.078  11.974  -1.045  0.00  0.00    -0.252 N 
ATOM     24  O   UNL d   1      15.074  12.193  -2.047  0.00  0.00    -0.237 OA
BRANCH  23  25
ATOM     25  C   UNL d   1      13.282  11.960  -0.810  0.00  0.00     0.085 C 
ATOM     26  C   UNL d   1      13.074  11.868  -0.017  0.00  0.00     0.021 C 
ENDBRANCH  23  25
BRANCH  23  27
ATOM     27  C   UNL d   1      14.669  11.779  -0.500  0.00  0.00     0.085 C 
ATOM     28  C   UNL d   1      15.004  12.371  -0.018  0.00  0.00     0.021 C 
ENDBRANCH  23  27
ENDBRANCH  21  22
ENDBRANCH  10  21
TORSDOF 6
ENDMDL
MODEL 3
REMARK VINA RESULT:      61.5      1.667      5.784
REMARK  6 active torsions:
REMARK  status: ('A' for Active; 'I' for Inactive)
REMARK    1  A    between atoms: C_10  and  C_1 
REMARK    2  A    between atoms: C_7  and  O_9 
REMARK       I    between atoms: N_12  and  C_7 
REMARK    3  A    between atoms: O_9  and  C_14 
REMARK    4  A    between atoms: C_24  and  N_12 
REMARK    5  A    between atoms: C_25  and  N_12 
REMARK    6  A    between atoms: O_23  and  C_20 
ROOT
ATOM      1  C   UNL d   1      13.970  17.928  -5.652  0.00  0.00     0.062 A 
ATOM      2  C   UNL d   1      14.433  17.346  -5.271  0.00  0.00     0.199 A 
ATOM      3  C   UNL d   1      13.238  17.709  -5.999  0.00  0.00     0.103 A 
ATOM      4  C   UNL d   1      14.180  16.566  -5.233  0.00  0.00     0.062 A 
ATOM      5  C   UNL d   1      13.452  16.349  -5.578  0.00  0.00     0.105 A 
ATOM      6  O   UNL d   1      12.980  16.915  -5.961  0.00  0.00    -0.307 OA
ATOM      7  C   UNL d   1      13.193  15.559  -5.542  0.00  0.00     0.050 A 
ATOM      8  C   UNL d   1      14.635  15.982  -4.856  0.00  0.00     0.007 A 
ATOM      9  O   UNL d   1      15.153  17.565  -4.931  0.00  0.00    -0.286 OA
ATOM     10  C   UNL d   1      13.654  14.989  -5.165  0.00  0.00     0.107 A 
ATOM     11  C   UNL d   1      14.375  15.201  -4.822  0.00  0.00     0.025 A 
ATOM     12  C   UNL d   1      12.777  18.279  -6.376  0.00  0.00     0.027 C 
ENDROOT
BRANCH   1  13
ATOM     13  C   UNL d   1      14.227  18.708  -5.688  0.00  0.00     0.005 A 
ATOM     14  C   UNL d   1      14.047  19.172  -6.352  0.00  0.00     0.002 A 
ATOM     15  C   UNL d   1      14.304  19.953  -6.387  0.00  0.00     0.024 A 
ATOM     16  C   UNL d   1      14.740  20.273  -5.765  0.00  0.00     0.094 A 
ATOM     17  C   UNL d   1      14.921  19.806  -5.098  0.00  0.00     0.024 A 
ATOM     18  C   UNL d   1      14.663  19.029  -5.066  0.00  0.00     0.002 A 
BRANCH  16  19
ATOM     19  O   UNL d   1      14.998  21.051  -5.798  0.00  0.00    -0.328 OA
ATOM     20  C   UNL d   1      14.861  21.562  -5.166  0.00  0.00     0.181 C 
ENDBRANCH  16  19
ENDBRANCH   1  13
BRANCH  10  21
ATOM     21  O   UNL d   1      13.393  14.208  -5.130  0.00  0.00    -0.259 OA
BRANCH  21  22
ATOM     22  C   UNL d   1      13.293  13.840  -4.400  0.00  0.00     0.377 C 
ATOM     23  N   UNL d   1      13.183  13.023  -4.362  0.00  0.00    -0.252 N 
ATOM     24  O   UNL d   1      13.304  14.288  -3.706  0.00  0.00    -0.237 OA
BRANCH  23  25
ATOM     25  C   UNL d   1      13.172  12.570  -5.057  0.00  0.00     0.085 C 
ATOM     26  C   UNL d   1      12.929  11.781  -5.047  0.00  0.00     0.021 C 
ENDBRANCH  23  25
BRANCH  23  27
ATOM     27  C   UNL d   1      13.083  12.653  -3.629  0.00  0.00     0.085 C 
ATOM     28  C   UNL d   1      13.151  11.824  -3.568  0.00  0.00     0.021 C 
ENDBRANCH  23  27
ENDBRANCH  21  22
ENDBRANCH  10  21
TORSDOF 6
ENDMDL
MODEL 4
REMARK VINA RESULT:      62.6      1.308      1.967
REMARK  6 active torsions:
REMARK  status: ('A' for Active; 'I' for Inactive)
REMARK    1  A    between atoms: C_10  and  C_1 
REMARK    2  A    between atoms: C_7  and  O_9 
REMARK       I    between atoms: N_12  and  C_7 
REMARK    3  A    between atoms: O_9  and  C_14 
REMARK    4  A    between atoms: C_24  and  N_12 
REMARK    5  A    between atoms: C_25  and  N_12 
REMARK    6  A    between atoms: O_23  and  C_20 
ROOT
ATOM      1  C   UNL d   1      13.794  15.229  -4.660  0.00  0.00     0.062 A 
ATOM      2  C   UNL d   1      13.634  15.597  -5.393  0.00  0.00     0.199 A 
ATOM      3  C   UNL d   1      14.190  15.661  -4.060  0.00  0.00     0.103 A 
ATOM      4  C   UNL d   1      13.858  16.374  -5.531  0.00  0.00     0.062 A 
ATOM      5  C   UNL d   1      14.252  16.804  -4.934  0.00  0.00     0.105 A 
ATOM      6  O   UNL d   1      14.419  16.453  -4.200  0.00  0.00    -0.307 OA
ATOM      7  C   UNL d   1      14.481  17.592  -5.071  0.00  0.00     0.050 A 
ATOM      8  C   UNL d   1      13.702  16.746  -6.257  0.00  0.00     0.007 A 
ATOM      9  O   UNL d   1      13.244  15.168  -5.981  0.00  0.00    -0.286 OA
ATOM     10  C   UNL d   1      14.321  17.950  -5.796  0.00  0.00     0.107 A 
ATOM     11  C   UNL d   1      13.931  17.527  -6.389  0.00  0.00     0.025 A 
ATOM     12  C   UNL d   1      14.351  15.304  -3.336  0.00  0.00     0.027 C 
ENDROOT
BRANCH   1  13
ATOM     13  C   UNL d   1      13.567  14.450  -4.526  0.00  0.00     0.005 A 
ATOM     14  C   UNL d   1      12.996  14.280  -3.948  0.00  0.00     0.002 A 
ATOM     15  C   UNL d   1      12.769  13.501  -3.814  0.00  0.00     0.024 A 
ATOM     16  C   UNL d   1      13.108  12.890  -4.252  0.00  0.00     0.094 A 
ATOM     17  C   UNL d   1      13.682  13.061  -4.832  0.00  0.00     0.024 A 
ATOM     18  C   UNL d   1      13.906  13.839  -4.964  0.00  0.00     0.002 A 
BRANCH  16  19
ATOM     19  O   UNL d   1      12.884  12.112  -4.120  0.00  0.00    -0.328 OA
ATOM     20  C   UNL d   1      12.954  11.779  -3.370  0.00  0.00     0.181 C 
ENDBRANCH  16  19
ENDBRANCH   1  13
BRANCH  10  21
ATOM     21  O   UNL d   1      14.549  18.731  -5.928  0.00  0.00    -0.259 OA
BRANCH  21  22
ATOM     22  C   UNL d   1      13.980  19.302  -6.097  0.00  0.00     0.377 C 
ATOM     23  N   UNL d   1      14.158  20.102  -5.998  0.00  0.00    -0.252 N 
ATOM     24  O   UNL d   1      13.232  19.075  -6.364  0.00  0.00    -0.237 OA
BRANCH  23  25
ATOM     25  C   UNL d   1      14.909  20.334  -5.730  0.00  0.00     0.085 C 
ATOM     26  C   UNL d   1      15.132  21.128  -5.724  0.00  0.00     0.021 C 
ENDBRANCH  23  25
BRANCH  23  27
ATOM     27  C   UNL d   1      13.588  20.677  -6.167  0.00  0.00     0.085 C 
ATOM     28  C   UNL d   1      12.871  20.691  -5.742  0.00  0.00     0.021 C 
ENDBRANCH  23  27
ENDBRANCH  21  22
ENDBRANCH  10  21
TORSDOF 6
ENDMDL
