MODEL 1
REMARK VINA RESULT:      61.6      0.000      0.000
REMARK  3 active torsions:
REMARK  status: ('A' for Active; 'I' for Inactive)
REMARK    1  A    between atoms: N_6  and  C_1 
REMARK    2  A    between atoms: C_7  and  C_2 
REMARK    3  A    between atoms: C_9  and  C_5 
ROOT
ATOM      1  C   UNL d   1     -56.688 -99.306 -44.567  0.00  0.00     0.189 A 
ATOM      2  C   UNL d   1     -57.285 -98.944 -44.079  0.00  0.00     0.144 A 
ATOM      3  O   UNL d   1     -57.036 -99.381 -45.338  0.00  0.00    -0.271 OA
ATOM      4  N   UNL d   1     -57.948 -98.810 -44.531  0.00  0.00    -0.217 NA
ATOM      5  C   UNL d   1     -57.813 -99.063 -45.273  0.00  0.00     0.184 A 
ENDROOT
BRANCH   5   6
ATOM      6  C   UNL d   1     -58.376 -99.003 -45.856  0.00  0.00     0.041 A 
ATOM      7  C   UNL d   1     -59.177 -99.124 -45.686  0.00  0.00     0.004 A 
ATOM      8  C   UNL d   1     -59.727 -99.057 -46.295  0.00  0.00     0.011 A 
ATOM      9  C   UNL d   1     -59.504 -98.878 -47.045  0.00  0.00     0.058 A 
ATOM     10  C   UNL d   1     -58.699 -98.758 -47.212  0.00  0.00     0.011 A 
ATOM     11 CL   UNL d   1     -59.956 -98.781 -47.754  0.00  0.00    -0.082 Cl
ATOM     12  C   UNL d   1     -58.138 -98.823 -46.602  0.00  0.00     0.004 A 
ENDBRANCH   5   6
BRANCH   1  13
ATOM     13  N   UNL d   1     -56.076 -99.427 -44.139  0.00  0.00    -0.284 N 
ATOM     14  C   UNL d   1     -55.440 -99.129 -43.669  0.00  0.00     0.082 A 
ATOM     15  C   UNL d   1     -54.908 -99.658 -43.324  0.00  0.00     0.019 A 
ATOM     16  C   UNL d   1     -54.993-100.483 -43.436  0.00  0.00     0.003 A 
ATOM     17  C   UNL d   1     -55.609-100.780 -43.892  0.00  0.00     0.019 A 
ATOM     18  C   UNL d   1     -56.160-100.252 -44.251  0.00  0.00     0.082 A 
ENDBRANCH   1  13
BRANCH   2  19
ATOM     19  C   UNL d   1     -57.055 -98.852 -43.411  0.00  0.00     0.145 C 
ATOM     20  N   UNL d   1     -57.345 -99.058 -42.408  0.00  0.00    -0.145 N 
ENDBRANCH   2  19
TORSDOF 3
ENDMDL
