MODEL 1
REMARK VINA RESULT:      -7.6      0.000      0.000
REMARK  4 active torsions:
REMARK  status: ('A' for Active; 'I' for Inactive)
REMARK    1  A    between atoms: S_13  and  C_7 
REMARK       I    between atoms: N_10  and  C_12 
REMARK    2  A    between atoms: C_25  and  C_11 
REMARK    3  A    between atoms: C_12  and  C_16 
REMARK    4  A    between atoms: C_16  and  S_13 
ROOT
ATOM      1  N   UNL d   1     -49.608  11.832  23.517  0.00  0.00    -0.224 N 
ATOM      2  N   UNL d   1     -50.131  13.146  23.257  0.00  0.00    -0.241 N 
ATOM      3  C   UNL d   1     -50.258  12.351  23.439  0.00  0.00     0.343 A 
ATOM      4  C   UNL d   1     -49.357  13.422  23.154  0.00  0.00     0.160 A 
ATOM      5  C   UNL d   1     -48.839  12.113  23.414  0.00  0.00     0.273 A 
ATOM      6  C   UNL d   1     -48.714  12.908  23.232  0.00  0.00     0.115 A 
ATOM      7  C   UNL d   1     -47.944  13.188  23.129  0.00  0.00     0.120 A 
ATOM      8  N   UNL d   1     -49.225  14.223  22.971  0.00  0.00    -0.209 NA
ATOM      9  N   UNL d   1     -47.815  13.981  22.948  0.00  0.00    -0.220 NA
ATOM     10  C   UNL d   1     -48.457  14.504  22.868  0.00  0.00     0.165 A 
ATOM     11  O   UNL d   1     -51.029  12.067  23.543  0.00  0.00    -0.245 OA
ATOM     12  O   UNL d   1     -48.199  11.596  23.492  0.00  0.00    -0.266 OA
ATOM     13  C   UNL d   1     -49.741  11.042  23.698  0.00  0.00     0.107 C 
ATOM     14  C   UNL d   1     -50.774  13.660  23.179  0.00  0.00     0.105 C 
ENDROOT
BRANCH   7  15
ATOM     15  S   UNL d   1     -47.305  12.672  23.207  0.00  0.00    -0.062 SA
BRANCH  15  16
ATOM     16  C   UNL d   1     -46.555  12.898  22.941  0.00  0.00     0.098 C 
BRANCH  16  17
ATOM     17  C   UNL d   1     -45.907  12.400  23.054  0.00  0.00     0.271 C 
ATOM     18  N   UNL d   1     -45.226  12.496  22.606  0.00  0.00    -0.272 N 
ATOM     19  C   UNL d   1     -45.197  13.086  22.051  0.00  0.00     0.083 A 
ATOM     20  C   UNL d   1     -44.578  12.002  22.716  0.00  0.00     0.083 A 
ATOM     21  C   UNL d   1     -44.507  13.189  21.591  0.00  0.00     0.019 A 
ATOM     22  C   UNL d   1     -43.855  12.690  21.704  0.00  0.00     0.003 A 
ATOM     23  C   UNL d   1     -43.897  12.093  22.273  0.00  0.00     0.019 A 
ATOM     24  C   UNL d   1     -43.178  12.792  21.253  0.00  0.00     0.000 C 
ATOM     25  O   UNL d   1     -45.942  11.794  23.628  0.00  0.00    -0.266 OA
ENDBRANCH  16  17
ENDBRANCH  15  16
ENDBRANCH   7  15
BRANCH  10  26
ATOM     26  C   UNL d   1     -48.325  15.300  22.686  0.00  0.00     0.039 C 
ATOM     27  C   UNL d   1     -48.277  15.544  21.899  0.00  0.00     0.003 C 
ENDBRANCH  10  26
TORSDOF 4
ENDMDL
MODEL 2
REMARK VINA RESULT:      -7.0      1.384      1.643
REMARK  4 active torsions:
REMARK  status: ('A' for Active; 'I' for Inactive)
REMARK    1  A    between atoms: S_13  and  C_7 
REMARK       I    between atoms: N_10  and  C_12 
REMARK    2  A    between atoms: C_25  and  C_11 
REMARK    3  A    between atoms: C_12  and  C_16 
REMARK    4  A    between atoms: C_16  and  S_13 
ROOT
ATOM      1  N   UNL d   1     -49.988  12.547  22.681  0.00  0.00    -0.224 N 
ATOM      2  N   UNL d   1     -49.696  13.948  22.539  0.00  0.00    -0.241 N 
ATOM      3  C   UNL d   1     -50.240  13.328  22.526  0.00  0.00     0.343 A 
ATOM      4  C   UNL d   1     -48.900  13.787  22.705  0.00  0.00     0.160 A 
ATOM      5  C   UNL d   1     -49.194  12.393  22.846  0.00  0.00     0.273 A 
ATOM      6  C   UNL d   1     -48.650  13.014  22.858  0.00  0.00     0.115 A 
ATOM      7  C   UNL d   1     -47.856  12.860  23.023  0.00  0.00     0.120 A 
ATOM      8  N   UNL d   1     -48.348  14.410  22.718  0.00  0.00    -0.209 NA
ATOM      9  N   UNL d   1     -47.311  13.476  23.036  0.00  0.00    -0.220 NA
ATOM     10  C   UNL d   1     -47.554  14.257  22.883  0.00  0.00     0.165 A 
ATOM     11  O   UNL d   1     -51.038  13.480  22.361  0.00  0.00    -0.245 OA
ATOM     12  O   UNL d   1     -48.949  11.620  22.998  0.00  0.00    -0.266 OA
ATOM     13  C   UNL d   1     -50.535  11.935  22.667  0.00  0.00     0.107 C 
ATOM     14  C   UNL d   1     -49.945  14.721  22.386  0.00  0.00     0.105 C 
ENDROOT
BRANCH   7  15
ATOM     15  S   UNL d   1     -47.611  12.086  23.175  0.00  0.00    -0.062 SA
BRANCH  15  16
ATOM     16  C   UNL d   1     -46.808  11.919  23.280  0.00  0.00     0.098 C 
BRANCH  16  17
ATOM     17  C   UNL d   1     -46.564  11.156  23.477  0.00  0.00     0.271 C 
ATOM     18  N   UNL d   1     -45.768  10.956  23.458  0.00  0.00    -0.272 N 
ATOM     19  C   UNL d   1     -45.224  11.517  23.244  0.00  0.00     0.083 A 
ATOM     20  C   UNL d   1     -45.522  10.196  23.653  0.00  0.00     0.083 A 
ATOM     21  C   UNL d   1     -44.413  11.320  23.223  0.00  0.00     0.019 A 
ATOM     22  C   UNL d   1     -44.166  10.554  23.420  0.00  0.00     0.003 A 
ATOM     23  C   UNL d   1     -44.731   9.991  23.636  0.00  0.00     0.019 A 
ATOM     24  C   UNL d   1     -43.370  10.361  23.399  0.00  0.00     0.000 C 
ATOM     25  O   UNL d   1     -47.129  10.582  23.696  0.00  0.00    -0.266 OA
ENDBRANCH  16  17
ENDBRANCH  15  16
ENDBRANCH   7  15
BRANCH  10  26
ATOM     26  C   UNL d   1     -47.004  14.874  22.897  0.00  0.00     0.039 C 
ATOM     27  C   UNL d   1     -46.522  15.016  22.242  0.00  0.00     0.003 C 
ENDBRANCH  10  26
TORSDOF 4
ENDMDL
MODEL 3
REMARK VINA RESULT:      -5.2      1.278      2.224
REMARK  4 active torsions:
REMARK  status: ('A' for Active; 'I' for Inactive)
REMARK    1  A    between atoms: S_13  and  C_7 
REMARK       I    between atoms: N_10  and  C_12 
REMARK    2  A    between atoms: C_25  and  C_11 
REMARK    3  A    between atoms: C_12  and  C_16 
REMARK    4  A    between atoms: C_16  and  S_13 
ROOT
ATOM      1  N   UNL d   1     -49.657  14.266  22.421  0.00  0.00    -0.224 N 
ATOM      2  N   UNL d   1     -50.111  13.011  22.956  0.00  0.00    -0.241 N 
ATOM      3  C   UNL d   1     -50.279  13.760  22.655  0.00  0.00     0.343 A 
ATOM      4  C   UNL d   1     -49.322  12.767  23.024  0.00  0.00     0.160 A 
ATOM      5  C   UNL d   1     -48.873  14.018  22.491  0.00  0.00     0.273 A 
ATOM      6  C   UNL d   1     -48.705  13.268  22.792  0.00  0.00     0.115 A 
ATOM      7  C   UNL d   1     -47.922  13.019  22.862  0.00  0.00     0.120 A 
ATOM      8  N   UNL d   1     -49.148  12.012  23.327  0.00  0.00    -0.209 NA
ATOM      9  N   UNL d   1     -47.751  12.272  23.162  0.00  0.00    -0.220 NA
ATOM     10  C   UNL d   1     -48.365  11.763  23.397  0.00  0.00     0.165 A 
ATOM     11  O   UNL d   1     -51.064  14.012  22.583  0.00  0.00    -0.245 OA
ATOM     12  O   UNL d   1     -48.260  14.521  22.259  0.00  0.00    -0.266 OA
ATOM     13  C   UNL d   1     -49.830  15.011  22.122  0.00  0.00     0.107 C 
ATOM     14  C   UNL d   1     -50.727  12.510  23.187  0.00  0.00     0.105 C 
ENDROOT
BRANCH   7  15
ATOM     15  S   UNL d   1     -47.309  13.522  22.630  0.00  0.00    -0.062 SA
BRANCH  15  16
ATOM     16  C   UNL d   1     -46.548  13.220  22.509  0.00  0.00     0.098 C 
BRANCH  16  17
ATOM     17  C   UNL d   1     -45.913  13.732  22.390  0.00  0.00     0.271 C 
ATOM     18  N   UNL d   1     -45.193  13.445  22.118  0.00  0.00    -0.272 N 
ATOM     19  C   UNL d   1     -45.114  12.652  21.968  0.00  0.00     0.083 A 
ATOM     20  C   UNL d   1     -44.557  13.952  21.998  0.00  0.00     0.083 A 
ATOM     21  C   UNL d   1     -44.386  12.353  21.691  0.00  0.00     0.019 A 
ATOM     22  C   UNL d   1     -43.746  12.866  21.570  0.00  0.00     0.003 A 
ATOM     23  C   UNL d   1     -43.839  13.673  21.727  0.00  0.00     0.019 A 
ATOM     24  C   UNL d   1     -43.030  12.573  21.299  0.00  0.00     0.000 C 
ATOM     25  O   UNL d   1     -45.999  14.548  22.546  0.00  0.00    -0.266 OA
ENDBRANCH  16  17
ENDBRANCH  15  16
ENDBRANCH   7  15
BRANCH  10  26
ATOM     26  C   UNL d   1     -48.191  11.012  23.698  0.00  0.00     0.039 C 
ATOM     27  C   UNL d   1     -47.415  10.732  23.693  0.00  0.00     0.003 C 
ENDBRANCH  10  26
TORSDOF 4
ENDMDL
