MODEL 1
REMARK VINA RESULT:      51.8      0.000      0.000
REMARK  3 active torsions:
REMARK  status: ('A' for Active; 'I' for Inactive)
REMARK    1  A    between atoms: C_2  and  C_1 
REMARK    2  A    between atoms: N_5  and  C_2 
REMARK    3  A    between atoms: C_9  and  C_4 
ROOT
ATOM      1  C   UNL d   1     -51.184  26.030  33.461  0.00  0.00     0.126 A 
ATOM      2  O   UNL d   1     -51.567  25.305  33.547  0.00  0.00    -0.305 OA
ATOM      3  C   UNL d   1     -52.380  25.452  33.538  0.00  0.00     0.100 A 
ATOM      4  C   UNL d   1     -51.763  26.618  33.399  0.00  0.00     0.029 A 
ATOM      5  C   UNL d   1     -52.492  26.266  33.446  0.00  0.00     0.027 A 
ENDROOT
BRANCH   1   6
ATOM      6  C   UNL d   1     -50.390  26.220  33.433  0.00  0.00     0.143 C 
ATOM      7  S   UNL d   1     -49.825  25.622  33.371  0.00  0.00    -0.057 SA
BRANCH   6   8
ATOM      8  N   UNL d   1     -50.149  27.005  33.466  0.00  0.00    -0.290 N 
ATOM      9  C   UNL d   1     -49.365  27.211  33.309  0.00  0.00     0.108 A 
ATOM     10  C   UNL d   1     -49.129  28.003  33.344  0.00  0.00     0.142 A 
ATOM     11  O   UNL d   1     -49.684  28.581  33.535  0.00  0.00    -0.300 OA
ATOM     12  C   UNL d   1     -50.467  28.377  33.691  0.00  0.00     0.142 A 
ATOM     13  C   UNL d   1     -50.694  27.589  33.655  0.00  0.00     0.108 A 
ENDBRANCH   6   8
ENDBRANCH   1   6
BRANCH   3  14
ATOM     14  C   UNL d   1     -52.963  24.887  33.607  0.00  0.00     0.023 A 
ATOM     15  C   UNL d   1     -53.721  25.046  33.321  0.00  0.00     0.003 A 
ATOM     16  C   UNL d   1     -54.311  24.486  33.387  0.00  0.00     0.007 A 
ATOM     17  C   UNL d   1     -54.157  23.753  33.740  0.00  0.00     0.035 A 
ATOM     18  C   UNL d   1     -53.397  23.591  34.027  0.00  0.00     0.007 A 
ATOM     19 BR   UNL d   1     -54.754  23.188  33.805  0.00  0.00    -0.049 Br
ATOM     20  C   UNL d   1     -52.810  24.149  33.962  0.00  0.00     0.003 A 
ENDBRANCH   3  14
TORSDOF 3
ENDMDL
MODEL 2
REMARK VINA RESULT:      53.3      1.617      2.334
REMARK  3 active torsions:
REMARK  status: ('A' for Active; 'I' for Inactive)
REMARK    1  A    between atoms: C_2  and  C_1 
REMARK    2  A    between atoms: N_5  and  C_2 
REMARK    3  A    between atoms: C_9  and  C_4 
ROOT
ATOM      1  C   UNL d   1     -49.888  27.485  33.661  0.00  0.00     0.126 A 
ATOM      2  O   UNL d   1     -50.604  27.079  33.695  0.00  0.00    -0.305 OA
ATOM      3  C   UNL d   1     -50.455  26.296  33.480  0.00  0.00     0.100 A 
ATOM      4  C   UNL d   1     -49.302  26.949  33.426  0.00  0.00     0.029 A 
ATOM      5  C   UNL d   1     -49.648  26.224  33.316  0.00  0.00     0.027 A 
ENDROOT
BRANCH   1   6
ATOM      6  C   UNL d   1     -49.703  28.266  33.814  0.00  0.00     0.143 C 
ATOM      7  S   UNL d   1     -50.086  28.868  33.400  0.00  0.00    -0.057 SA
BRANCH   6   8
ATOM      8  N   UNL d   1     -49.137  28.456  34.379  0.00  0.00    -0.290 N 
ATOM      9  C   UNL d   1     -48.726  29.171  34.337  0.00  0.00     0.108 A 
ATOM     10  C   UNL d   1     -48.157  29.357  34.908  0.00  0.00     0.142 A 
ATOM     11  O   UNL d   1     -48.007  28.822  35.517  0.00  0.00    -0.300 OA
ATOM     12  C   UNL d   1     -48.418  28.108  35.559  0.00  0.00     0.142 A 
ATOM     13  C   UNL d   1     -48.980  27.930  34.989  0.00  0.00     0.108 A 
ENDBRANCH   6   8
ENDBRANCH   1   6
BRANCH   3  14
ATOM     14  C   UNL d   1     -51.012  25.702  33.440  0.00  0.00     0.023 A 
ATOM     15  C   UNL d   1     -51.814  25.896  33.428  0.00  0.00     0.003 A 
ATOM     16  C   UNL d   1     -52.380  25.308  33.387  0.00  0.00     0.007 A 
ATOM     17  C   UNL d   1     -52.155  24.512  33.359  0.00  0.00     0.035 A 
ATOM     18  C   UNL d   1     -51.351  24.315  33.371  0.00  0.00     0.007 A 
ATOM     19 BR   UNL d   1     -52.726  23.919  33.318  0.00  0.00    -0.049 Br
ATOM     20  C   UNL d   1     -50.789  24.900  33.411  0.00  0.00     0.003 A 
ENDBRANCH   3  14
TORSDOF 3
ENDMDL
