MODEL 1
REMARK VINA RESULT:      49.6      0.000      0.000
REMARK  7 active torsions:
REMARK  status: ('A' for Active; 'I' for Inactive)
REMARK    1  A    between atoms: N_2  and  S_1 
REMARK    2  A    between atoms: C_6  and  S_1 
REMARK    3  A    between atoms: C_11  and  C_3 
REMARK    4  A    between atoms: C_4  and  C_5 
REMARK       I    between atoms: N_7  and  C_4 
REMARK       I    between atoms: C_5  and  N_10 
REMARK    5  A    between atoms: C_19  and  N_7 
REMARK    6  A    between atoms: N_10  and  C_11 
REMARK    7  A    between atoms: O_23  and  C_18 
ROOT
ATOM      1  N   UNL d   1      14.623  12.426  -1.491  0.00  0.00    -0.209 N 
ATOM      2  C   UNL d   1      14.551  13.127  -1.058  0.00  0.00     0.197 A 
ATOM      3  O   UNL d   1      14.913  13.210  -0.329  0.00  0.00    -0.287 OA
ATOM      4  C   UNL d   1      15.069  11.799  -1.178  0.00  0.00     0.096 A 
ATOM      5  C   UNL d   1      15.432  11.881  -0.447  0.00  0.00     0.047 A 
ATOM      6  C   UNL d   1      15.356  12.581  -0.023  0.00  0.00     0.126 A 
ENDROOT
BRANCH   2   7
ATOM      7  C   UNL d   1      14.103  13.757  -1.370  0.00  0.00     0.146 C 
BRANCH   7   8
ATOM      8  N   UNL d   1      14.466  14.326  -1.844  0.00  0.00    -0.199 NA
ATOM      9  C   UNL d   1      14.472  15.109  -1.610  0.00  0.00     0.337 C 
ATOM     10  O   UNL d   1      14.115  15.337  -0.898  0.00  0.00    -0.260 OA
BRANCH   9  11
ATOM     11  C   UNL d   1      14.836  15.678  -2.084  0.00  0.00     0.337 C 
ATOM     12  N   UNL d   1      14.462  15.949  -2.764  0.00  0.00    -0.204 NA
ATOM     13  O   UNL d   1      15.577  15.978  -1.874  0.00  0.00    -0.260 OA
BRANCH  12  14
ATOM     14  C   UNL d   1      14.827  16.520  -3.240  0.00  0.00     0.085 A 
ATOM     15  C   UNL d   1      14.873  16.299  -4.025  0.00  0.00     0.019 A 
ATOM     16  C   UNL d   1      15.246  16.918  -4.426  0.00  0.00     0.002 A 
ATOM     17  C   UNL d   1      15.425  17.511  -3.889  0.00  0.00     0.002 A 
ATOM     18  C   UNL d   1      15.159  17.259  -3.138  0.00  0.00     0.019 A 
ENDBRANCH  12  14
ENDBRANCH   9  11
ENDBRANCH   7   8
ENDBRANCH   2   7
BRANCH   1  19
ATOM     19  S   UNL d   1      14.254  12.353  -2.224  0.00  0.00     0.273 S 
ATOM     20  O   UNL d   1      14.970  12.546  -2.596  0.00  0.00    -0.200 OA
ATOM     21  O   UNL d   1      13.542  12.161  -1.851  0.00  0.00    -0.200 OA
BRANCH  19  22
ATOM     22  C   UNL d   1      13.893  12.283  -2.962  0.00  0.00     0.104 A 
ATOM     23  C   UNL d   1      13.163  12.640  -3.094  0.00  0.00     0.015 A 
ATOM     24  C   UNL d   1      12.799  12.571  -3.834  0.00  0.00     0.025 A 
ATOM     25  C   UNL d   1      13.162  12.147  -4.433  0.00  0.00     0.094 A 
ATOM     26  C   UNL d   1      13.897  11.783  -4.311  0.00  0.00     0.025 A 
ATOM     27  C   UNL d   1      14.264  11.852  -3.570  0.00  0.00     0.015 A 
BRANCH  25  28
ATOM     28  O   UNL d   1      12.796  12.078  -5.175  0.00  0.00    -0.328 OA
ATOM     29  C   UNL d   1      13.245  12.132  -5.865  0.00  0.00     0.181 C 
ENDBRANCH  25  28
ENDBRANCH  19  22
ENDBRANCH   1  19
TORSDOF 7
ENDMDL
MODEL 2
REMARK VINA RESULT:      50.5      1.222      1.555
REMARK  7 active torsions:
REMARK  status: ('A' for Active; 'I' for Inactive)
REMARK    1  A    between atoms: N_2  and  S_1 
REMARK    2  A    between atoms: C_6  and  S_1 
REMARK    3  A    between atoms: C_11  and  C_3 
REMARK    4  A    between atoms: C_4  and  C_5 
REMARK       I    between atoms: N_7  and  C_4 
REMARK       I    between atoms: C_5  and  N_10 
REMARK    5  A    between atoms: C_19  and  N_7 
REMARK    6  A    between atoms: N_10  and  C_11 
REMARK    7  A    between atoms: O_23  and  C_18 
ROOT
ATOM      1  N   UNL d   1      14.604  12.468  -1.489  0.00  0.00    -0.209 N 
ATOM      2  C   UNL d   1      14.688  13.197  -1.109  0.00  0.00     0.197 A 
ATOM      3  O   UNL d   1      15.058  13.253  -0.381  0.00  0.00    -0.287 OA
ATOM      4  C   UNL d   1      14.900  11.783  -1.125  0.00  0.00     0.096 A 
ATOM      5  C   UNL d   1      15.270  11.837  -0.395  0.00  0.00     0.047 A 
ATOM      6  C   UNL d   1      15.350  12.565  -0.023  0.00  0.00     0.126 A 
ENDROOT
BRANCH   2   7
ATOM      7  C   UNL d   1      14.392  13.886  -1.473  0.00  0.00     0.146 C 
BRANCH   7   8
ATOM      8  N   UNL d   1      14.741  14.617  -1.320  0.00  0.00    -0.199 NA
ATOM      9  C   UNL d   1      14.705  15.213  -1.879  0.00  0.00     0.337 C 
ATOM     10  O   UNL d   1      14.318  15.088  -2.600  0.00  0.00    -0.260 OA
BRANCH   9  11
ATOM     11  C   UNL d   1      15.055  15.944  -1.726  0.00  0.00     0.337 C 
ATOM     12  N   UNL d   1      14.993  16.283  -0.979  0.00  0.00    -0.204 NA
ATOM     13  O   UNL d   1      15.469  16.337  -2.323  0.00  0.00    -0.260 OA
BRANCH  12  14
ATOM     14  C   UNL d   1      15.344  17.017  -0.825  0.00  0.00     0.085 A 
ATOM     15  C   UNL d   1      14.882  17.499  -0.354  0.00  0.00     0.019 A 
ATOM     16  C   UNL d   1      15.302  18.204  -0.250  0.00  0.00     0.002 A 
ATOM     17  C   UNL d   1      16.013  18.151  -0.655  0.00  0.00     0.002 A 
ATOM     18  C   UNL d   1      16.040  17.399  -1.019  0.00  0.00     0.019 A 
ENDBRANCH  12  14
ENDBRANCH   9  11
ENDBRANCH   7   8
ENDBRANCH   2   7
BRANCH   1  19
ATOM     19  S   UNL d   1      14.230  12.425  -2.222  0.00  0.00     0.273 S 
ATOM     20  O   UNL d   1      14.947  12.191  -2.568  0.00  0.00    -0.200 OA
ATOM     21  O   UNL d   1      13.516  12.657  -1.876  0.00  0.00    -0.200 OA
BRANCH  19  22
ATOM     22  C   UNL d   1      13.863  12.379  -2.959  0.00  0.00     0.104 A 
ATOM     23  C   UNL d   1      14.102  12.882  -3.565  0.00  0.00     0.015 A 
ATOM     24  C   UNL d   1      13.735  12.838  -4.305  0.00  0.00     0.025 A 
ATOM     25  C   UNL d   1      13.136  12.295  -4.436  0.00  0.00     0.094 A 
ATOM     26  C   UNL d   1      12.887  11.784  -3.833  0.00  0.00     0.025 A 
ATOM     27  C   UNL d   1      13.254  11.826  -3.089  0.00  0.00     0.015 A 
BRANCH  25  28
ATOM     28  O   UNL d   1      12.769  12.252  -5.179  0.00  0.00    -0.328 OA
ATOM     29  C   UNL d   1      13.182  11.955  -5.828  0.00  0.00     0.181 C 
ENDBRANCH  25  28
ENDBRANCH  19  22
ENDBRANCH   1  19
TORSDOF 7
ENDMDL
