MODEL 1
REMARK VINA RESULT:      -6.2      0.000      0.000
REMARK  3 active torsions:
REMARK  status: ('A' for Active; 'I' for Inactive)
REMARK    1  A    between atoms: C_7  and  C_1 
REMARK    2  A    between atoms: N_9  and  C_7 
REMARK    3  A    between atoms: C_8  and  N_9 
ROOT
ATOM      1  C   UNL d   1     -41.320-122.410 -52.143  0.00  0.00     0.146 A 
ATOM      2  C   UNL d   1     -41.411-123.194 -51.891  0.00  0.00     0.304 A 
ATOM      3  C   UNL d   1     -41.216-121.807 -51.550  0.00  0.00     0.304 A 
ATOM      4  O   UNL d   1     -41.206-122.000 -50.771  0.00  0.00    -0.277 OA
ATOM      5  O   UNL d   1     -41.398-123.368 -51.082  0.00  0.00    -0.277 OA
ATOM      6  C   UNL d   1     -41.301-122.810 -50.524  0.00  0.00     0.203 A 
ATOM      7  O   UNL d   1     -41.123-121.009 -51.799  0.00  0.00    -0.259 OA
ATOM      8  O   UNL d   1     -41.519-123.817 -52.489  0.00  0.00    -0.259 OA
ATOM      9  C   UNL d   1     -41.347-123.361 -49.938  0.00  0.00     0.062 C 
ATOM     10  C   UNL d   1     -41.235-122.571 -49.744  0.00  0.00     0.062 C 
ENDROOT
BRANCH   1  11
ATOM     11  C   UNL d   1     -41.330-122.212 -52.944  0.00  0.00     0.129 C 
BRANCH  11  12
ATOM     12  N   UNL d   1     -42.021-121.954 -53.283  0.00  0.00    -0.057 NA
BRANCH  12  13
ATOM     13  C   UNL d   1     -42.091-121.944 -54.114  0.00  0.00     0.750 A 
ATOM     14  N   UNL d   1     -41.400-121.939 -54.599  0.00  0.00    -0.058 NA
ATOM     15  C   UNL d   1     -41.501-121.929 -55.425  0.00  0.00     0.120 A 
ATOM     16  C   UNL d   1     -42.231-121.924 -55.771  0.00  0.00     0.043 A 
ATOM     17  C   UNL d   1     -42.900-121.928 -55.288  0.00  0.00     0.120 A 
ATOM     18  N   UNL d   1     -42.831-121.938 -54.478  0.00  0.00    -0.058 NA
ENDBRANCH  12  13
ENDBRANCH  11  12
ENDBRANCH   1  11
TORSDOF 3
ENDMDL
MODEL 2
REMARK VINA RESULT:      -5.3      1.496      3.892
REMARK  3 active torsions:
REMARK  status: ('A' for Active; 'I' for Inactive)
REMARK    1  A    between atoms: C_7  and  C_1 
REMARK    2  A    between atoms: N_9  and  C_7 
REMARK    3  A    between atoms: C_8  and  N_9 
ROOT
ATOM      1  C   UNL d   1     -41.511-122.436 -53.298  0.00  0.00     0.146 A 
ATOM      2  C   UNL d   1     -41.431-123.016 -53.884  0.00  0.00     0.304 A 
ATOM      3  C   UNL d   1     -41.770-121.660 -53.534  0.00  0.00     0.304 A 
ATOM      4  O   UNL d   1     -41.931-121.502 -54.305  0.00  0.00    -0.277 OA
ATOM      5  O   UNL d   1     -41.603-122.830 -54.671  0.00  0.00    -0.277 OA
ATOM      6  C   UNL d   1     -41.845-122.107 -54.899  0.00  0.00     0.203 A 
ATOM      7  O   UNL d   1     -41.853-121.065 -52.945  0.00  0.00    -0.259 OA
ATOM      8  O   UNL d   1     -41.168-123.813 -53.652  0.00  0.00    -0.259 OA
ATOM      9  C   UNL d   1     -41.892-122.344 -55.667  0.00  0.00     0.062 C 
ATOM     10  C   UNL d   1     -42.084-121.571 -55.468  0.00  0.00     0.062 C 
ENDROOT
BRANCH   1  11
ATOM     11  C   UNL d   1     -41.346-122.598 -52.506  0.00  0.00     0.129 C 
BRANCH  11  12
ATOM     12  N   UNL d   1     -41.883-123.016 -52.064  0.00  0.00    -0.057 NA
BRANCH  12  13
ATOM     13  C   UNL d   1     -41.801-123.040 -51.234  0.00  0.00     0.750 A 
ATOM     14  N   UNL d   1     -41.181-123.490 -50.881  0.00  0.00    -0.058 NA
ATOM     15  C   UNL d   1     -41.123-123.496 -50.051  0.00  0.00     0.120 A 
ATOM     16  C   UNL d   1     -41.638-123.088 -49.580  0.00  0.00     0.043 A 
ATOM     17  C   UNL d   1     -42.241-122.651 -49.935  0.00  0.00     0.120 A 
ATOM     18  N   UNL d   1     -42.321-122.628 -50.744  0.00  0.00    -0.058 NA
ENDBRANCH  12  13
ENDBRANCH  11  12
ENDBRANCH   1  11
TORSDOF 3
ENDMDL
MODEL 3
REMARK VINA RESULT:      -4.4      1.266      1.853
REMARK  3 active torsions:
REMARK  status: ('A' for Active; 'I' for Inactive)
REMARK    1  A    between atoms: C_7  and  C_1 
REMARK    2  A    between atoms: N_9  and  C_7 
REMARK    3  A    between atoms: C_8  and  N_9 
ROOT
ATOM      1  C   UNL d   1     -42.003-122.654 -51.033  0.00  0.00     0.146 A 
ATOM      2  C   UNL d   1     -42.559-122.170 -50.653  0.00  0.00     0.304 A 
ATOM      3  C   UNL d   1     -41.689-123.318 -50.602  0.00  0.00     0.304 A 
ATOM      4  O   UNL d   1     -41.928-123.466 -49.850  0.00  0.00    -0.277 OA
ATOM      5  O   UNL d   1     -42.790-122.343 -49.878  0.00  0.00    -0.277 OA
ATOM      6  C   UNL d   1     -42.501-122.961 -49.471  0.00  0.00     0.203 A 
ATOM      7  O   UNL d   1     -41.124-123.813 -50.981  0.00  0.00    -0.259 OA
ATOM      8  O   UNL d   1     -42.886-121.488 -51.085  0.00  0.00    -0.259 OA
ATOM      9  C   UNL d   1     -42.950-122.773 -48.829  0.00  0.00     0.062 C 
ATOM     10  C   UNL d   1     -42.454-123.427 -48.800  0.00  0.00     0.062 C 
ENDROOT
BRANCH   1  11
ATOM     11  C   UNL d   1     -41.757-122.501 -51.805  0.00  0.00     0.129 C 
BRANCH  11  12
ATOM     12  N   UNL d   1     -42.138-122.863 -52.424  0.00  0.00    -0.057 NA
BRANCH  12  13
ATOM     13  C   UNL d   1     -41.849-122.760 -53.200  0.00  0.00     0.750 A 
ATOM     14  N   UNL d   1     -41.457-123.394 -53.595  0.00  0.00    -0.058 NA
ATOM     15  C   UNL d   1     -41.180-123.262 -54.369  0.00  0.00     0.120 A 
ATOM     16  C   UNL d   1     -41.274-122.554 -54.746  0.00  0.00     0.043 A 
ATOM     17  C   UNL d   1     -41.659-121.941 -54.351  0.00  0.00     0.120 A 
ATOM     18  N   UNL d   1     -41.940-122.042 -53.595  0.00  0.00    -0.058 NA
ENDBRANCH  12  13
ENDBRANCH  11  12
ENDBRANCH   1  11
TORSDOF 3
ENDMDL
