MODEL 1
REMARK VINA RESULT:       7.5      0.000      0.000
REMARK  3 active torsions:
REMARK  status: ('A' for Active; 'I' for Inactive)
REMARK    1  A    between atoms: S_6  and  C_2 
REMARK    2  A    between atoms: C_9  and  S_6 
REMARK    3  A    between atoms: C_7  and  C_9 
ROOT
ATOM      1  N   UNL d   1     -50.111  24.499  33.316  0.00  0.00    -0.243 NA
ATOM      2  C   UNL d   1     -51.438  24.447  33.323  0.00  0.00     0.046 A 
ATOM      3  C   UNL d   1     -51.211  25.240  33.343  0.00  0.00     0.025 A 
ATOM      4  C   UNL d   1     -50.762  23.992  33.306  0.00  0.00     0.105 A 
ATOM      5  C   UNL d   1     -50.386  25.273  33.339  0.00  0.00     0.082 A 
ATOM      6  C   UNL d   1     -51.648  25.935  33.366  0.00  0.00     0.002 A 
ATOM      7  C   UNL d   1     -49.998  26.008  33.357  0.00  0.00     0.019 A 
ATOM      8  C   UNL d   1     -51.264  26.684  33.384  0.00  0.00     0.000 A 
ATOM      9  C   UNL d   1     -50.445  26.712  33.380  0.00  0.00     0.002 A 
ENDROOT
BRANCH   2  10
ATOM     10  S   UNL d   1     -52.214  24.152  33.319  0.00  0.00    -0.101 SA
BRANCH  10  11
ATOM     11  C   UNL d   1     -52.417  23.505  33.797  0.00  0.00     0.160 C 
BRANCH  11  12
ATOM     12  C   UNL d   1     -53.209  23.328  33.954  0.00  0.00     0.197 C 
ATOM     13  O   UNL d   1     -53.735  23.205  33.319  0.00  0.00    -0.647 OA
ATOM     14  O   UNL d   1     -53.489  23.269  34.727  0.00  0.00    -0.647 OA
ENDBRANCH  11  12
ENDBRANCH  10  11
ENDBRANCH   2  10
TORSDOF 3
ENDMDL
