MODEL 1
REMARK VINA RESULT:      11.4      0.000      0.000
REMARK  6 active torsions:
REMARK  status: ('A' for Active; 'I' for Inactive)
REMARK       I    between atoms: N_3  and  C_1 
REMARK    1  A    between atoms: O_10  and  C_1 
REMARK    2  A    between atoms: N_2  and  C_4 
REMARK    3  A    between atoms: C_9  and  N_3 
REMARK    4  A    between atoms: C_17  and  O_10 
REMARK    5  A    between atoms: C_18  and  C_17 
REMARK    6  A    between atoms: C_19  and  C_18 
ROOT
ATOM      1  C   UNL d   1      45.693 -14.766  44.340  0.00  0.00     0.064 A 
ATOM      2  C   UNL d   1      46.179 -15.151  43.787  0.00  0.00     0.020 A 
ATOM      3  C   UNL d   1      45.291 -15.204  44.912  0.00  0.00     0.020 A 
ATOM      4  C   UNL d   1      45.861 -16.411  44.377  0.00  0.00     0.137 A 
ATOM      5  C   UNL d   1      45.373 -16.023  44.932  0.00  0.00     0.034 A 
ATOM      6  C   UNL d   1      46.262 -15.970  43.807  0.00  0.00     0.034 A 
ENDROOT
BRANCH   4   7
ATOM      7  N   UNL d   1      45.946 -17.226  44.393  0.00  0.00    -0.344 NA
ATOM      8  C   UNL d   1      46.028 -18.045  44.412  0.00  0.00     0.445 C 
ATOM      9  O   UNL d   1      45.582 -18.492  44.943  0.00  0.00    -0.220 OA
BRANCH   8  10
ATOM     10  O   UNL d   1      46.557 -18.420  43.900  0.00  0.00    -0.246 OA
BRANCH  10  11
ATOM     11  C   UNL d   1      46.336 -19.113  43.514  0.00  0.00     0.129 C 
BRANCH  11  12
ATOM     12  C   UNL d   1      46.646 -19.292  42.765  0.00  0.00     0.027 C 
BRANCH  12  13
ATOM     13  C   UNL d   1      46.184 -19.681  42.207  0.00  0.00     0.002 C 
ATOM     14  C   UNL d   1      46.533 -19.995  41.531  0.00  0.00     0.000 C 
ENDBRANCH  12  13
ENDBRANCH  11  12
ENDBRANCH  10  11
ENDBRANCH   8  10
ENDBRANCH   4   7
BRANCH   1  15
ATOM     15  N   UNL d   1      45.615 -13.943  44.314  0.00  0.00    -0.300 N 
ATOM     16  C   UNL d   1      45.237 -13.585  43.675  0.00  0.00     0.107 A 
ATOM     17  C   UNL d   1      45.161 -12.769  43.653  0.00  0.00     0.142 A 
ATOM     18  O   UNL d   1      45.462 -12.309  44.267  0.00  0.00    -0.300 OA
ATOM     19  C   UNL d   1      45.841 -12.667  44.907  0.00  0.00     0.142 A 
ATOM     20  C   UNL d   1      45.918 -13.489  44.930  0.00  0.00     0.107 A 
ENDBRANCH   1  15
TORSDOF 6
ENDMDL
