MODEL 1
REMARK VINA RESULT:     128.7      0.000      0.000
REMARK  9 active torsions:
REMARK  status: ('A' for Active; 'I' for Inactive)
REMARK    1  A    between atoms: C_10  and  N_1 
REMARK    2  A    between atoms: S_13  and  C_2 
REMARK    3  A    between atoms: C_6  and  N_11 
REMARK    4  A    between atoms: C_24  and  C_10 
REMARK       I    between atoms: N_11  and  C_15 
REMARK    5  A    between atoms: C_21  and  S_13 
REMARK    6  A    between atoms: C_15  and  C_21 
REMARK    7  A    between atoms: O_27  and  C_17 
REMARK    8  A    between atoms: O_28  and  C_18 
REMARK    9  A    between atoms: C_23  and  C_24 
ROOT
ATOM      1  N   UNL d   1     -54.734-100.772 -43.673  0.00  0.00    -0.253 N 
ATOM      2  C   UNL d   1     -54.729 -99.956 -43.705  0.00  0.00     0.182 A 
ATOM      3  C   UNL d   1     -54.752-101.165 -42.941  0.00  0.00     0.268 A 
ATOM      4  N   UNL d   1     -54.743 -99.513 -43.005  0.00  0.00    -0.222 NA
ATOM      5  C   UNL d   1     -54.765-100.716 -42.244  0.00  0.00     0.074 A 
ATOM      6  C   UNL d   1     -54.761 -99.900 -42.276  0.00  0.00     0.088 A 
ATOM      7  O   UNL d   1     -54.756-101.979 -42.909  0.00  0.00    -0.267 OA
ATOM      8  C   UNL d   1     -54.783-101.109 -41.507  0.00  0.00     0.006 A 
ATOM      9  C   UNL d   1     -54.774 -99.457 -41.571  0.00  0.00     0.019 A 
ATOM     10  C   UNL d   1     -54.797-100.660 -40.816  0.00  0.00     0.000 A 
ATOM     11  C   UNL d   1     -54.792 -99.845 -40.848  0.00  0.00     0.002 A 
ENDROOT
BRANCH   1  12
ATOM     12  C   UNL d   1     -54.720-101.222 -44.379  0.00  0.00     0.085 C 
BRANCH  12  13
ATOM     13  C   UNL d   1     -54.982-102.005 -44.379  0.00  0.00     0.019 C 
BRANCH  13  14
ATOM     14  C   UNL d   1     -55.629-102.225 -44.843  0.00  0.00     0.004 A 
ATOM     15  C   UNL d   1     -56.382-102.269 -44.508  0.00  0.00     0.026 A 
ATOM     16  C   UNL d   1     -57.025-102.485 -44.963  0.00  0.00     0.116 A 
ATOM     17  C   UNL d   1     -56.921-102.663 -45.770  0.00  0.00     0.116 A 
ATOM     18  C   UNL d   1     -56.159-102.616 -46.100  0.00  0.00     0.026 A 
ATOM     19  C   UNL d   1     -55.518-102.397 -45.634  0.00  0.00     0.002 A 
BRANCH  16  20
ATOM     20  O   UNL d   1     -57.775-102.529 -44.629  0.00  0.00    -0.326 OA
ATOM     21  C   UNL d   1     -57.870-102.813 -43.871  0.00  0.00     0.181 C 
ENDBRANCH  16  20
BRANCH  17  22
ATOM     22  O   UNL d   1     -57.555-102.880 -46.229  0.00  0.00    -0.326 OA
ATOM     23  C   UNL d   1     -57.628-102.611 -47.007  0.00  0.00     0.181 C 
ENDBRANCH  17  22
ENDBRANCH  13  14
ENDBRANCH  12  13
ENDBRANCH   1  12
BRANCH   2  24
ATOM     24  S   UNL d   1     -54.711 -99.560 -44.444  0.00  0.00    -0.044 SA
BRANCH  24  25
ATOM     25  C   UNL d   1     -55.386 -99.173 -44.730  0.00  0.00     0.101 C 
BRANCH  25  26
ATOM     26  C   UNL d   1     -56.042 -99.084 -44.241  0.00  0.00     0.287 C 
ATOM     27  N   UNL d   1     -56.791 -99.217 -44.530  0.00  0.00    -0.186 NA
ATOM     28  O   UNL d   1     -55.937 -98.858 -43.453  0.00  0.00    -0.265 OA
BRANCH  27  29
ATOM     29  C   UNL d   1     -57.446 -99.127 -44.041  0.00  0.00     0.194 A 
ATOM     30  N   UNL d   1     -57.442 -98.881 -43.249  0.00  0.00    -0.107 NA
ATOM     31  O   UNL d   1     -58.216 -98.870 -42.975  0.00  0.00    -0.210 OA
ATOM     32  C   UNL d   1     -58.713 -99.108 -43.589  0.00  0.00     0.128 A 
ATOM     33  C   UNL d   1     -58.239 -99.266 -44.245  0.00  0.00     0.068 A 
ATOM     34  C   UNL d   1     -59.528 -99.173 -43.550  0.00  0.00     0.029 C 
ENDBRANCH  27  29
ENDBRANCH  25  26
ENDBRANCH  24  25
ENDBRANCH   2  24
TORSDOF 9
ENDMDL
