MODEL 1
REMARK VINA RESULT:      10.3      0.000      0.000
REMARK  3 active torsions:
REMARK  status: ('A' for Active; 'I' for Inactive)
REMARK    1  A    between atoms: C_16  and  N_3 
REMARK    2  A    between atoms: C_10  and  C_5 
REMARK    3  A    between atoms: C_26  and  C_16 
ROOT
ATOM      1  C   UNL d   1     -41.421-122.172 -52.228  0.00  0.00     0.083 A 
ATOM      2  C   UNL d   1     -41.497-122.978 -52.079  0.00  0.00     0.161 A 
ATOM      3  N   UNL d   1     -41.394-122.357 -50.898  0.00  0.00    -0.268 N 
ATOM      4  C   UNL d   1     -41.480-123.098 -51.258  0.00  0.00     0.288 A 
ATOM      5  C   UNL d   1     -41.357-121.784 -51.499  0.00  0.00     0.072 A 
ATOM      6  C   UNL d   1     -41.419-121.888 -53.001  0.00  0.00     0.201 A 
ATOM      7  O   UNL d   1     -41.572-123.509 -52.715  0.00  0.00    -0.302 OA
ATOM      8  C   UNL d   1     -41.494-122.418 -53.630  0.00  0.00     0.063 A 
ATOM      9  C   UNL d   1     -41.570-123.224 -53.485  0.00  0.00     0.103 A 
ATOM     10  O   UNL d   1     -41.539-123.817 -50.871  0.00  0.00    -0.264 OA
ATOM     11  O   UNL d   1     -41.343-121.082 -53.151  0.00  0.00    -0.286 OA
ATOM     12  C   UNL d   1     -41.492-122.134 -54.408  0.00  0.00     0.017 A 
ATOM     13  C   UNL d   1     -41.644-123.752 -54.126  0.00  0.00     0.026 A 
ATOM     14  C   UNL d   1     -41.566-122.656 -55.038  0.00  0.00     0.058 A 
ATOM     15  C   UNL d   1     -41.642-123.468 -54.896  0.00  0.00     0.013 A 
ATOM     16 CL   UNL d   1     -41.564-122.376 -55.807  0.00  0.00    -0.082 Cl
ENDROOT
BRANCH   5  17
ATOM     17  C   UNL d   1     -41.281-120.977 -51.644  0.00  0.00     0.017 A 
ATOM     18  C   UNL d   1     -41.240-120.439 -51.017  0.00  0.00     0.008 A 
ATOM     19  C   UNL d   1     -41.164-119.634 -51.165  0.00  0.00     0.035 A 
ATOM     20 BR   UNL d   1     -41.123-119.105 -50.537  0.00  0.00    -0.049 Br
ATOM     21  C   UNL d   1     -41.128-119.354 -51.948  0.00  0.00     0.007 A 
ATOM     22  C   UNL d   1     -41.170-119.892 -52.576  0.00  0.00     0.001 A 
ATOM     23  C   UNL d   1     -41.246-120.705 -52.421  0.00  0.00     0.002 A 
ENDBRANCH   5  17
BRANCH   3  24
ATOM     24  C   UNL d   1     -41.352-122.212 -50.089  0.00  0.00     0.129 C 
BRANCH  24  25
ATOM     25  C   UNL d   1     -41.730-122.718 -49.562  0.00  0.00     0.253 C 
ATOM     26  O   UNL d   1     -41.567-122.673 -48.758  0.00  0.00    -0.281 OA
ENDBRANCH  24  25
ENDBRANCH   3  24
TORSDOF 3
ENDMDL
MODEL 2
REMARK VINA RESULT:      10.7      1.896      3.807
REMARK  3 active torsions:
REMARK  status: ('A' for Active; 'I' for Inactive)
REMARK    1  A    between atoms: C_16  and  N_3 
REMARK    2  A    between atoms: C_10  and  C_5 
REMARK    3  A    between atoms: C_26  and  C_16 
ROOT
ATOM      1  C   UNL d   1     -41.653-121.913 -52.455  0.00  0.00     0.083 A 
ATOM      2  C   UNL d   1     -41.631-121.579 -53.207  0.00  0.00     0.161 A 
ATOM      3  N   UNL d   1     -41.836-122.893 -53.354  0.00  0.00    -0.268 N 
ATOM      4  C   UNL d   1     -41.743-122.182 -53.767  0.00  0.00     0.288 A 
ATOM      5  C   UNL d   1     -41.780-122.727 -52.541  0.00  0.00     0.072 A 
ATOM      6  C   UNL d   1     -41.556-121.442 -51.786  0.00  0.00     0.201 A 
ATOM      7  O   UNL d   1     -41.510-120.761 -53.291  0.00  0.00    -0.302 OA
ATOM      8  C   UNL d   1     -41.436-120.630 -51.873  0.00  0.00     0.063 A 
ATOM      9  C   UNL d   1     -41.414-120.293 -52.623  0.00  0.00     0.103 A 
ATOM     10  O   UNL d   1     -41.760-122.091 -54.581  0.00  0.00    -0.264 OA
ATOM     11  O   UNL d   1     -41.578-121.775 -51.033  0.00  0.00    -0.286 OA
ATOM     12  C   UNL d   1     -41.339-120.155 -51.201  0.00  0.00     0.017 A 
ATOM     13  C   UNL d   1     -41.292-119.472 -52.702  0.00  0.00     0.026 A 
ATOM     14  C   UNL d   1     -41.219-119.346 -51.281  0.00  0.00     0.058 A 
ATOM     15  C   UNL d   1     -41.196-119.004 -52.034  0.00  0.00     0.013 A 
ATOM     16 CL   UNL d   1     -41.123-118.877 -50.617  0.00  0.00    -0.082 Cl
ENDROOT
BRANCH   5  17
ATOM     17  C   UNL d   1     -41.802-123.064 -51.791  0.00  0.00     0.017 A 
ATOM     18  C   UNL d   1     -42.493-123.034 -51.337  0.00  0.00     0.008 A 
ATOM     19  C   UNL d   1     -42.512-123.372 -50.588  0.00  0.00     0.035 A 
ATOM     20 BR   UNL d   1     -43.203-123.339 -50.142  0.00  0.00    -0.049 Br
ATOM     21  C   UNL d   1     -41.836-123.747 -50.281  0.00  0.00     0.007 A 
ATOM     22  C   UNL d   1     -41.144-123.778 -50.734  0.00  0.00     0.001 A 
ATOM     23  C   UNL d   1     -41.130-123.434 -51.491  0.00  0.00     0.002 A 
ENDBRANCH   5  17
BRANCH   3  24
ATOM     24  C   UNL d   1     -41.961-123.635 -53.687  0.00  0.00     0.129 C 
BRANCH  24  25
ATOM     25  C   UNL d   1     -41.774-123.766 -54.478  0.00  0.00     0.253 C 
ATOM     26  O   UNL d   1     -42.372-123.817 -55.040  0.00  0.00    -0.281 OA
ENDBRANCH  24  25
ENDBRANCH   3  24
TORSDOF 3
ENDMDL
