MODEL 1
REMARK VINA RESULT:      -7.7      0.000      0.000
REMARK  5 active torsions:
REMARK  status: ('A' for Active; 'I' for Inactive)
REMARK    1  A    between atoms: N_2  and  C_1 
REMARK    2  A    between atoms: N_3  and  C_1 
REMARK       I    between atoms: C_6  and  N_3 
REMARK    3  A    between atoms: C_12  and  C_6 
REMARK    4  A    between atoms: O_11  and  C_12 
REMARK    5  A    between atoms: C_13  and  O_11 
ROOT
ATOM      1  C   UNL d   1      51.854  33.728  52.539  0.00  0.00     0.209 C 
ATOM      2  S   UNL d   1      52.498  34.224  52.444  0.00  0.00    -0.038 SA
ENDROOT
BRANCH   1   3
ATOM      3  N   UNL d   1      51.124  34.052  52.758  0.00  0.00    -0.282 N 
ATOM      4  C   UNL d   1      50.497  34.225  52.257  0.00  0.00     0.066 A 
ATOM      5  C   UNL d   1      49.884  34.538  52.705  0.00  0.00     0.018 A 
ATOM      6  C   UNL d   1      50.410  34.134  51.440  0.00  0.00     0.018 A 
ATOM      7  C   UNL d   1      49.179  34.762  52.339  0.00  0.00     0.002 A 
ATOM      8  C   UNL d   1      50.130  34.559  53.484  0.00  0.00     0.021 A 
ATOM      9  C   UNL d   1      49.082  34.674  51.513  0.00  0.00     0.000 A 
ATOM     10  C   UNL d   1      49.696  34.361  51.065  0.00  0.00     0.002 A 
ATOM     11  C   UNL d   1      50.897  34.259  53.521  0.00  0.00     0.082 A 
ENDBRANCH   1   3
BRANCH   1  12
ATOM     12  N   UNL d   1      51.930  32.922  52.421  0.00  0.00    -0.178 NA
ATOM     13  C   UNL d   1      52.555  32.508  52.772  0.00  0.00     0.306 C 
ATOM     14  O   UNL d   1      52.628  31.696  52.650  0.00  0.00    -0.263 OA
BRANCH  13  15
ATOM     15  C   UNL d   1      53.096  32.904  53.236  0.00  0.00     0.185 C 
BRANCH  15  16
ATOM     16  O   UNL d   1      53.714  32.488  53.590  0.00  0.00    -0.300 OA
BRANCH  16  17
ATOM     17  C   UNL d   1      54.169  32.855  54.181  0.00  0.00     0.100 A 
ATOM     18  C   UNL d   1      53.932  32.807  54.962  0.00  0.00     0.025 A 
ATOM     19  C   UNL d   1      54.381  33.170  55.552  0.00  0.00     0.002 A 
ATOM     20  C   UNL d   1      55.069  33.582  55.351  0.00  0.00     0.000 A 
ATOM     21  C   UNL d   1      55.304  33.629  54.563  0.00  0.00     0.002 A 
ATOM     22  C   UNL d   1      54.855  33.266  53.973  0.00  0.00     0.025 A 
ENDBRANCH  16  17
ENDBRANCH  15  16
ENDBRANCH  13  15
ENDBRANCH   1  12
TORSDOF 5
ENDMDL
MODEL 2
REMARK VINA RESULT:      -7.3      2.419      3.610
REMARK  5 active torsions:
REMARK  status: ('A' for Active; 'I' for Inactive)
REMARK    1  A    between atoms: N_2  and  C_1 
REMARK    2  A    between atoms: N_3  and  C_1 
REMARK       I    between atoms: C_6  and  N_3 
REMARK    3  A    between atoms: C_12  and  C_6 
REMARK    4  A    between atoms: O_11  and  C_12 
REMARK    5  A    between atoms: C_13  and  O_11 
ROOT
ATOM      1  C   UNL d   1      53.719  32.615  53.461  0.00  0.00     0.209 C 
ATOM      2  S   UNL d   1      54.429  32.245  53.293  0.00  0.00    -0.038 SA
ENDROOT
BRANCH   1   3
ATOM      3  N   UNL d   1      53.685  33.159  54.085  0.00  0.00    -0.282 N 
ATOM      4  C   UNL d   1      53.412  33.932  54.043  0.00  0.00     0.066 A 
ATOM      5  C   UNL d   1      53.477  34.271  54.789  0.00  0.00     0.018 A 
ATOM      6  C   UNL d   1      53.111  34.372  53.412  0.00  0.00     0.018 A 
ATOM      7  C   UNL d   1      53.240  35.052  54.907  0.00  0.00     0.002 A 
ATOM      8  C   UNL d   1      53.789  33.708  55.292  0.00  0.00     0.021 A 
ATOM      9  C   UNL d   1      52.934  35.505  54.275  0.00  0.00     0.000 A 
ATOM     10  C   UNL d   1      52.869  35.166  53.529  0.00  0.00     0.002 A 
ATOM     11  C   UNL d   1      53.919  33.018  54.860  0.00  0.00     0.082 A 
ENDBRANCH   1   3
BRANCH   1  12
ATOM     12  N   UNL d   1      53.051  32.450  53.019  0.00  0.00    -0.178 NA
ATOM     13  C   UNL d   1      52.776  31.671  52.958  0.00  0.00     0.306 C 
ATOM     14  O   UNL d   1      52.102  31.509  52.512  0.00  0.00    -0.263 OA
BRANCH  13  15
ATOM     15  C   UNL d   1      53.171  31.068  53.339  0.00  0.00     0.185 C 
BRANCH  15  16
ATOM     16  O   UNL d   1      52.895  30.294  53.277  0.00  0.00    -0.300 OA
BRANCH  16  17
ATOM     17  C   UNL d   1      53.114  29.735  53.851  0.00  0.00     0.100 A 
ATOM     18  C   UNL d   1      53.727  29.215  53.697  0.00  0.00     0.025 A 
ATOM     19  C   UNL d   1      53.947  28.658  54.265  0.00  0.00     0.002 A 
ATOM     20  C   UNL d   1      53.547  28.626  54.989  0.00  0.00     0.000 A 
ATOM     21  C   UNL d   1      52.931  29.151  55.139  0.00  0.00     0.002 A 
ATOM     22  C   UNL d   1      52.710  29.708  54.572  0.00  0.00     0.025 A 
ENDBRANCH  16  17
ENDBRANCH  15  16
ENDBRANCH  13  15
ENDBRANCH   1  12
TORSDOF 5
ENDMDL
MODEL 3
REMARK VINA RESULT:      -7.0      1.854      2.730
REMARK  5 active torsions:
REMARK  status: ('A' for Active; 'I' for Inactive)
REMARK    1  A    between atoms: N_2  and  C_1 
REMARK    2  A    between atoms: N_3  and  C_1 
REMARK       I    between atoms: C_6  and  N_3 
REMARK    3  A    between atoms: C_12  and  C_6 
REMARK    4  A    between atoms: O_11  and  C_12 
REMARK    5  A    between atoms: C_13  and  O_11 
ROOT
ATOM      1  C   UNL d   1      53.273  33.577  53.919  0.00  0.00     0.209 C 
ATOM      2  S   UNL d   1      52.977  33.206  54.585  0.00  0.00    -0.038 SA
ENDROOT
BRANCH   1   3
ATOM      3  N   UNL d   1      52.765  34.039  53.455  0.00  0.00    -0.282 N 
ATOM      4  C   UNL d   1      51.968  33.903  53.321  0.00  0.00     0.066 A 
ATOM      5  C   UNL d   1      51.681  34.497  52.830  0.00  0.00     0.018 A 
ATOM      6  C   UNL d   1      51.463  33.306  53.589  0.00  0.00     0.018 A 
ATOM      7  C   UNL d   1      50.887  34.495  52.604  0.00  0.00     0.002 A 
ATOM      8  C   UNL d   1      52.301  35.000  52.660  0.00  0.00     0.021 A 
ATOM      9  C   UNL d   1      50.369  33.895  52.870  0.00  0.00     0.000 A 
ATOM     10  C   UNL d   1      50.656  33.302  53.361  0.00  0.00     0.002 A 
ATOM     11  C   UNL d   1      52.974  34.721  53.045  0.00  0.00     0.082 A 
ENDBRANCH   1   3
BRANCH   1  12
ATOM     12  N   UNL d   1      54.060  33.493  53.713  0.00  0.00    -0.178 NA
ATOM     13  C   UNL d   1      54.382  32.738  53.603  0.00  0.00     0.306 C 
ATOM     14  O   UNL d   1      55.176  32.659  53.395  0.00  0.00    -0.263 OA
BRANCH  13  15
ATOM     15  C   UNL d   1      53.914  32.078  53.701  0.00  0.00     0.185 C 
BRANCH  15  16
ATOM     16  O   UNL d   1      54.199  31.337  53.474  0.00  0.00    -0.300 OA
BRANCH  16  17
ATOM     17  C   UNL d   1      53.691  30.680  53.498  0.00  0.00     0.100 A 
ATOM     18  C   UNL d   1      53.685  30.197  54.158  0.00  0.00     0.025 A 
ATOM     19  C   UNL d   1      53.183  29.542  54.185  0.00  0.00     0.002 A 
ATOM     20  C   UNL d   1      52.686  29.377  53.544  0.00  0.00     0.000 A 
ATOM     21  C   UNL d   1      52.695  29.866  52.882  0.00  0.00     0.002 A 
ATOM     22  C   UNL d   1      53.197  30.520  52.855  0.00  0.00     0.025 A 
ENDBRANCH  16  17
ENDBRANCH  15  16
ENDBRANCH  13  15
ENDBRANCH   1  12
TORSDOF 5
ENDMDL
MODEL 4
REMARK VINA RESULT:      -6.7      1.308      2.161
REMARK  5 active torsions:
REMARK  status: ('A' for Active; 'I' for Inactive)
REMARK    1  A    between atoms: N_2  and  C_1 
REMARK    2  A    between atoms: N_3  and  C_1 
REMARK       I    between atoms: C_6  and  N_3 
REMARK    3  A    between atoms: C_12  and  C_6 
REMARK    4  A    between atoms: O_11  and  C_12 
REMARK    5  A    between atoms: C_13  and  O_11 
ROOT
ATOM      1  C   UNL d   1      50.764  34.216  52.923  0.00  0.00     0.209 C 
ATOM      2  S   UNL d   1      50.690  33.588  53.442  0.00  0.00    -0.038 SA
ENDROOT
BRANCH   1   3
ATOM      3  N   UNL d   1      50.159  34.360  52.375  0.00  0.00    -0.282 N 
ATOM      4  C   UNL d   1      49.489  34.818  52.497  0.00  0.00     0.066 A 
ATOM      5  C   UNL d   1      49.040  34.810  51.808  0.00  0.00     0.018 A 
ATOM      6  C   UNL d   1      49.231  35.244  53.156  0.00  0.00     0.018 A 
ATOM      7  C   UNL d   1      48.331  35.229  51.776  0.00  0.00     0.002 A 
ATOM      8  C   UNL d   1      49.432  34.348  51.260  0.00  0.00     0.021 A 
ATOM      9  C   UNL d   1      48.061  35.663  52.437  0.00  0.00     0.000 A 
ATOM     10  C   UNL d   1      48.510  35.671  53.126  0.00  0.00     0.002 A 
ATOM     11  C   UNL d   1      50.126  34.067  51.608  0.00  0.00     0.082 A 
ENDBRANCH   1   3
BRANCH   1  12
ATOM     12  N   UNL d   1      51.425  34.697  52.945  0.00  0.00    -0.178 NA
ATOM     13  C   UNL d   1      52.179  34.362  53.022  0.00  0.00     0.306 C 
ATOM     14  O   UNL d   1      52.843  34.850  53.043  0.00  0.00    -0.263 OA
BRANCH  13  15
ATOM     15  C   UNL d   1      52.262  33.553  53.076  0.00  0.00     0.185 C 
BRANCH  15  16
ATOM     16  O   UNL d   1      52.989  33.203  52.908  0.00  0.00    -0.300 OA
BRANCH  16  17
ATOM     17  C   UNL d   1      53.133  32.421  53.149  0.00  0.00     0.100 A 
ATOM     18  C   UNL d   1      53.599  32.279  53.806  0.00  0.00     0.025 A 
ATOM     19  C   UNL d   1      53.744  31.504  54.049  0.00  0.00     0.002 A 
ATOM     20  C   UNL d   1      53.417  30.872  53.626  0.00  0.00     0.000 A 
ATOM     21  C   UNL d   1      52.949  31.019  52.965  0.00  0.00     0.002 A 
ATOM     22  C   UNL d   1      52.804  31.794  52.722  0.00  0.00     0.025 A 
ENDBRANCH  16  17
ENDBRANCH  15  16
ENDBRANCH  13  15
ENDBRANCH   1  12
TORSDOF 5
ENDMDL
MODEL 5
REMARK VINA RESULT:      -6.7      1.603      4.803
REMARK  5 active torsions:
REMARK  status: ('A' for Active; 'I' for Inactive)
REMARK    1  A    between atoms: N_2  and  C_1 
REMARK    2  A    between atoms: N_3  and  C_1 
REMARK       I    between atoms: C_6  and  N_3 
REMARK    3  A    between atoms: C_12  and  C_6 
REMARK    4  A    between atoms: O_11  and  C_12 
REMARK    5  A    between atoms: C_13  and  O_11 
ROOT
ATOM      1  C   UNL d   1      51.813  33.832  53.284  0.00  0.00     0.209 C 
ATOM      2  S   UNL d   1      51.176  33.448  53.625  0.00  0.00    -0.038 SA
ENDROOT
BRANCH   1   3
ATOM      3  N   UNL d   1      52.428  34.102  53.769  0.00  0.00    -0.282 N 
ATOM      4  C   UNL d   1      53.063  33.661  54.043  0.00  0.00     0.066 A 
ATOM      5  C   UNL d   1      53.538  34.147  54.505  0.00  0.00     0.018 A 
ATOM      6  C   UNL d   1      53.268  32.869  53.928  0.00  0.00     0.018 A 
ATOM      7  C   UNL d   1      54.221  33.844  54.854  0.00  0.00     0.002 A 
ATOM      8  C   UNL d   1      53.197  34.890  54.517  0.00  0.00     0.021 A 
ATOM      9  C   UNL d   1      54.437  33.044  54.743  0.00  0.00     0.000 A 
ATOM     10  C   UNL d   1      53.962  32.557  54.281  0.00  0.00     0.002 A 
ATOM     11  C   UNL d   1      52.510  34.866  54.062  0.00  0.00     0.082 A 
ENDBRANCH   1   3
BRANCH   1  12
ATOM     12  N   UNL d   1      51.843  33.947  52.475  0.00  0.00    -0.178 NA
ATOM     13  C   UNL d   1      51.173  34.214  52.069  0.00  0.00     0.306 C 
ATOM     14  O   UNL d   1      51.207  34.329  51.253  0.00  0.00    -0.263 OA
BRANCH  13  15
ATOM     15  C   UNL d   1      50.482  34.362  52.476  0.00  0.00     0.185 C 
BRANCH  15  16
ATOM     16  O   UNL d   1      49.758  34.316  52.084  0.00  0.00    -0.300 OA
BRANCH  16  17
ATOM     17  C   UNL d   1      49.154  34.853  52.275  0.00  0.00     0.100 A 
ATOM     18  C   UNL d   1      48.588  35.042  51.715  0.00  0.00     0.025 A 
ATOM     19  C   UNL d   1      47.987  35.576  51.901  0.00  0.00     0.002 A 
ATOM     20  C   UNL d   1      47.958  35.919  52.653  0.00  0.00     0.000 A 
ATOM     21  C   UNL d   1      48.530  35.727  53.214  0.00  0.00     0.002 A 
ATOM     22  C   UNL d   1      49.131  35.193  53.028  0.00  0.00     0.025 A 
ENDBRANCH  16  17
ENDBRANCH  15  16
ENDBRANCH  13  15
ENDBRANCH   1  12
TORSDOF 5
ENDMDL
MODEL 6
REMARK VINA RESULT:      -6.4      1.912      4.334
REMARK  5 active torsions:
REMARK  status: ('A' for Active; 'I' for Inactive)
REMARK    1  A    between atoms: N_2  and  C_1 
REMARK    2  A    between atoms: N_3  and  C_1 
REMARK       I    between atoms: C_6  and  N_3 
REMARK    3  A    between atoms: C_12  and  C_6 
REMARK    4  A    between atoms: O_11  and  C_12 
REMARK    5  A    between atoms: C_13  and  O_11 
ROOT
ATOM      1  C   UNL d   1      53.947  32.482  54.087  0.00  0.00     0.209 C 
ATOM      2  S   UNL d   1      54.191  32.646  53.324  0.00  0.00    -0.038 SA
ENDROOT
BRANCH   1   3
ATOM      3  N   UNL d   1      53.740  31.705  54.287  0.00  0.00    -0.282 N 
ATOM      4  C   UNL d   1      53.459  31.128  53.776  0.00  0.00     0.066 A 
ATOM      5  C   UNL d   1      53.325  30.441  54.207  0.00  0.00     0.018 A 
ATOM      6  C   UNL d   1      53.307  31.145  52.963  0.00  0.00     0.018 A 
ATOM      7  C   UNL d   1      53.039  29.767  53.827  0.00  0.00     0.002 A 
ATOM      8  C   UNL d   1      53.523  30.592  54.984  0.00  0.00     0.021 A 
ATOM      9  C   UNL d   1      52.882  29.775  53.006  0.00  0.00     0.000 A 
ATOM     10  C   UNL d   1      53.016  30.462  52.575  0.00  0.00     0.002 A 
ATOM     11  C   UNL d   1      53.781  31.374  55.038  0.00  0.00     0.082 A 
ENDBRANCH   1   3
BRANCH   1  12
ATOM     12  N   UNL d   1      53.908  33.077  54.647  0.00  0.00    -0.178 NA
ATOM     13  C   UNL d   1      53.414  33.731  54.523  0.00  0.00     0.306 C 
ATOM     14  O   UNL d   1      53.377  34.328  55.089  0.00  0.00    -0.263 OA
BRANCH  13  15
ATOM     15  C   UNL d   1      52.967  33.781  53.843  0.00  0.00     0.185 C 
BRANCH  15  16
ATOM     16  O   UNL d   1      52.410  34.384  53.762  0.00  0.00    -0.300 OA
BRANCH  16  17
ATOM     17  C   UNL d   1      51.789  34.297  53.217  0.00  0.00     0.100 A 
ATOM     18  C   UNL d   1      51.920  34.457  52.426  0.00  0.00     0.025 A 
ATOM     19  C   UNL d   1      51.305  34.372  51.881  0.00  0.00     0.002 A 
ATOM     20  C   UNL d   1      50.559  34.124  52.138  0.00  0.00     0.000 A 
ATOM     21  C   UNL d   1      50.431  33.964  52.935  0.00  0.00     0.002 A 
ATOM     22  C   UNL d   1      51.046  34.049  53.480  0.00  0.00     0.025 A 
ENDBRANCH  16  17
ENDBRANCH  15  16
ENDBRANCH  13  15
ENDBRANCH   1  12
TORSDOF 5
ENDMDL
