MODEL 1
REMARK VINA RESULT:      22.0      0.000      0.000
REMARK  5 active torsions:
REMARK  status: ('A' for Active; 'I' for Inactive)
REMARK    1  A    between atoms: N_2  and  C_1 
REMARK    2  A    between atoms: N_11  and  C_6 
REMARK    3  A    between atoms: C_13  and  N_11 
REMARK    4  A    between atoms: O_20  and  C_14 
REMARK    5  A    between atoms: C_23  and  O_20 
ROOT
ATOM      1  C   UNL d   1      45.606 -15.079  44.813  0.00  0.00     0.752 A 
ATOM      2  N   UNL d   1      46.200 -15.655  44.849  0.00  0.00    -0.040 NA
ATOM      3  C   UNL d   1      46.002 -16.450  44.919  0.00  0.00     0.182 A 
ATOM      4  N   UNL d   1      44.812 -15.308  44.848  0.00  0.00    -0.059 NA
ATOM      5  C   UNL d   1      45.207 -16.679  44.955  0.00  0.00     0.059 A 
ATOM      6  C   UNL d   1      44.610 -16.107  44.919  0.00  0.00     0.103 A 
ATOM      7  C   UNL d   1      43.815 -16.336  44.954  0.00  0.00     0.021 C 
ENDROOT
BRANCH   3   8
ATOM      8  N   UNL d   1      46.593 -17.024  44.955  0.00  0.00    -0.226 NA
BRANCH   8   9
ATOM      9  C   UNL d   1      46.533 -17.720  44.506  0.00  0.00     0.083 A 
ATOM     10  C   UNL d   1      46.461 -17.660  43.680  0.00  0.00     0.021 A 
ATOM     11  C   UNL d   1      46.401 -18.360  43.234  0.00  0.00     0.026 A 
ATOM     12  C   UNL d   1      46.414 -19.096  43.605  0.00  0.00     0.100 A 
ATOM     13  C   UNL d   1      46.487 -19.142  44.429  0.00  0.00     0.026 A 
ATOM     14  C   UNL d   1      46.546 -18.453  44.881  0.00  0.00     0.021 A 
BRANCH  12  15
ATOM     15  O   UNL d   1      46.354 -19.788  43.155  0.00  0.00    -0.305 OA
BRANCH  15  16
ATOM     16  C   UNL d   1      46.186 -19.734  42.351  0.00  0.00     0.123 C 
ATOM     17  C   UNL d   1      46.546 -20.259  41.827  0.00  0.00     0.029 C 
ENDBRANCH  15  16
ENDBRANCH  12  15
ENDBRANCH   8   9
ENDBRANCH   3   8
BRANCH   1  18
ATOM     18  N   UNL d   1      45.775 -14.359  44.749  0.00  0.00    -0.058 N 
ATOM     19  N   UNL d   1      46.647 -13.396  44.836  0.00  0.00    -0.151 NA
ATOM     20  C   UNL d   1      46.113 -12.900  44.619  0.00  0.00     0.103 A 
ATOM     21  C   UNL d   1      46.281 -12.172  44.554  0.00  0.00     0.022 C 
ATOM     22  C   UNL d   1      45.424 -13.149  44.473  0.00  0.00     0.041 A 
ATOM     23  C   UNL d   1      45.247 -13.868  44.534  0.00  0.00     0.102 A 
ATOM     24  C   UNL d   1      44.547 -14.112  44.385  0.00  0.00     0.021 C 
ENDBRANCH   1  18
TORSDOF 5
ENDMDL
MODEL 2
REMARK VINA RESULT:      24.8      1.980      4.851
REMARK  5 active torsions:
REMARK  status: ('A' for Active; 'I' for Inactive)
REMARK    1  A    between atoms: N_2  and  C_1 
REMARK    2  A    between atoms: N_11  and  C_6 
REMARK    3  A    between atoms: C_13  and  N_11 
REMARK    4  A    between atoms: O_20  and  C_14 
REMARK    5  A    between atoms: C_23  and  O_20 
ROOT
ATOM      1  C   UNL d   1      45.739 -17.157  43.827  0.00  0.00     0.752 A 
ATOM      2  N   UNL d   1      46.238 -16.514  43.981  0.00  0.00    -0.040 NA
ATOM      3  C   UNL d   1      45.980 -15.893  44.455  0.00  0.00     0.182 A 
ATOM      4  N   UNL d   1      44.978 -17.171  44.153  0.00  0.00    -0.059 NA
ATOM      5  C   UNL d   1      45.219 -15.908  44.780  0.00  0.00     0.059 A 
ATOM      6  C   UNL d   1      44.716 -16.548  44.629  0.00  0.00     0.103 A 
ATOM      7  C   UNL d   1      43.955 -16.563  44.954  0.00  0.00     0.021 C 
ENDROOT
BRANCH   3   8
ATOM      8  N   UNL d   1      46.476 -15.254  44.608  0.00  0.00    -0.226 NA
BRANCH   8   9
ATOM      9  C   UNL d   1      46.251 -14.484  44.393  0.00  0.00     0.083 A 
ATOM     10  C   UNL d   1      46.366 -14.236  43.608  0.00  0.00     0.021 A 
ATOM     11  C   UNL d   1      46.139 -13.463  43.396  0.00  0.00     0.026 A 
ATOM     12  C   UNL d   1      45.807 -12.957  43.955  0.00  0.00     0.100 A 
ATOM     13  C   UNL d   1      45.697 -13.216  44.734  0.00  0.00     0.026 A 
ATOM     14  C   UNL d   1      45.919 -13.980  44.954  0.00  0.00     0.021 A 
BRANCH  12  15
ATOM     15  O   UNL d   1      45.584 -12.190  43.737  0.00  0.00    -0.305 OA
BRANCH  15  16
ATOM     16  C   UNL d   1      44.910 -12.080  43.277  0.00  0.00     0.123 C 
ATOM     17  C   UNL d   1      44.943 -12.241  42.470  0.00  0.00     0.029 C 
ENDBRANCH  15  16
ENDBRANCH  12  15
ENDBRANCH   8   9
ENDBRANCH   3   8
BRANCH   1  18
ATOM     18  N   UNL d   1      45.963 -17.722  43.401  0.00  0.00    -0.058 N 
ATOM     19  N   UNL d   1      46.089 -18.261  42.222  0.00  0.00    -0.151 NA
ATOM     20  C   UNL d   1      46.418 -18.868  42.541  0.00  0.00     0.103 A 
ATOM     21  C   UNL d   1      46.645 -19.440  42.112  0.00  0.00     0.022 C 
ATOM     22  C   UNL d   1      46.510 -18.884  43.282  0.00  0.00     0.041 A 
ATOM     23  C   UNL d   1      46.289 -18.323  43.716  0.00  0.00     0.102 A 
ATOM     24  C   UNL d   1      46.386 -18.346  44.466  0.00  0.00     0.021 C 
ENDBRANCH   1  18
TORSDOF 5
ENDMDL
