MODEL 1
REMARK VINA RESULT:      -1.1      0.000      0.000
REMARK  1 active torsions:
REMARK  status: ('A' for Active; 'I' for Inactive)
REMARK    1  A    between atoms: C_8  and  CA_5 
ROOT
ATOM      1  N   UNL d   1      46.630 -20.033  43.289  0.00  0.00    -0.224 NA
ATOM      2  C   UNL d   1      46.635 -19.740  42.525  0.00  0.00     0.162 A 
ATOM      3  N   UNL d   1      46.641 -20.255  41.889  0.00  0.00    -0.225 NA
ATOM      4  C   UNL d   1      46.633 -18.924  42.401  0.00  0.00     0.036 A 
ATOM      5  CA  UNL d   1      46.623 -19.525  43.935  0.00  0.00     0.125 A 
ATOM      6  C   UNL d   1      46.627 -18.407  43.042  0.00  0.00     0.005 A 
ATOM      7  C   UNL d   1      46.622 -18.710  43.811  0.00  0.00     0.023 A 
ATOM      8  C   UNL d   1      46.646 -19.953  41.120  0.00  0.00     0.101 A 
ATOM      9  C   UNL d   1      46.638 -18.620  41.641  0.00  0.00     0.005 A 
ATOM     10  C   UNL d   1      46.645 -19.138  40.996  0.00  0.00     0.021 A 
ENDROOT
BRANCH   5  11
ATOM     11  C   UNL d   1      46.618 -19.820  44.694  0.00  0.00     0.253 C 
ATOM     12  O   UNL d   1      45.979 -20.272  44.955  0.00  0.00    -0.281 OA
ENDBRANCH   5  11
TORSDOF 1
ENDMDL
MODEL 2
REMARK VINA RESULT:       0.4      7.782      7.944
REMARK  1 active torsions:
REMARK  status: ('A' for Active; 'I' for Inactive)
REMARK    1  A    between atoms: C_8  and  CA_5 
ROOT
ATOM      1  N   UNL d   1      44.202 -14.822  37.079  0.00  0.00    -0.224 NA
ATOM      2  C   UNL d   1      45.012 -14.811  36.964  0.00  0.00     0.162 A 
ATOM      3  N   UNL d   1      45.454 -14.172  37.221  0.00  0.00    -0.225 NA
ATOM      4  C   UNL d   1      45.379 -15.447  36.588  0.00  0.00     0.036 A 
ATOM      5  CA  UNL d   1      43.749 -15.459  36.826  0.00  0.00     0.125 A 
ATOM      6  C   UNL d   1      44.934 -16.090  36.330  0.00  0.00     0.005 A 
ATOM      7  C   UNL d   1      44.116 -16.095  36.450  0.00  0.00     0.023 A 
ATOM      8  C   UNL d   1      46.271 -14.166  37.101  0.00  0.00     0.101 A 
ATOM      9  C   UNL d   1      46.189 -15.447  36.467  0.00  0.00     0.005 A 
ATOM     10  C   UNL d   1      46.638 -14.802  36.725  0.00  0.00     0.021 A 
ENDROOT
BRANCH   5  11
ATOM     11  C   UNL d   1      42.944 -15.467  36.942  0.00  0.00     0.253 C 
ATOM     12  O   UNL d   1      42.443 -15.703  36.330  0.00  0.00    -0.281 OA
ENDBRANCH   5  11
TORSDOF 1
ENDMDL
MODEL 3
REMARK VINA RESULT:       0.5      5.773      6.561
REMARK  1 active torsions:
REMARK  status: ('A' for Active; 'I' for Inactive)
REMARK    1  A    between atoms: C_8  and  CA_5 
ROOT
ATOM      1  N   UNL d   1      44.779 -13.400  43.454  0.00  0.00    -0.224 NA
ATOM      2  C   UNL d   1      45.098 -13.966  43.951  0.00  0.00     0.162 A 
ATOM      3  N   UNL d   1      44.775 -14.717  43.975  0.00  0.00    -0.225 NA
ATOM      4  C   UNL d   1      45.744 -13.774  44.427  0.00  0.00     0.036 A 
ATOM      5  CA  UNL d   1      45.095 -12.642  43.422  0.00  0.00     0.125 A 
ATOM      6  C   UNL d   1      46.067 -13.017  44.402  0.00  0.00     0.005 A 
ATOM      7  C   UNL d   1      45.741 -12.450  43.897  0.00  0.00     0.023 A 
ATOM      8  C   UNL d   1      45.101 -15.285  44.479  0.00  0.00     0.101 A 
ATOM      9  C   UNL d   1      46.071 -14.333  44.928  0.00  0.00     0.005 A 
ATOM     10  C   UNL d   1      45.748 -15.093  44.955  0.00  0.00     0.021 A 
ENDROOT
BRANCH   5  11
ATOM     11  C   UNL d   1      44.776 -12.080  42.926  0.00  0.00     0.253 C 
ATOM     12  O   UNL d   1      44.963 -12.088  42.122  0.00  0.00    -0.281 OA
ENDBRANCH   5  11
TORSDOF 1
ENDMDL
MODEL 4
REMARK VINA RESULT:       0.5      5.461      6.108
REMARK  1 active torsions:
REMARK  status: ('A' for Active; 'I' for Inactive)
REMARK    1  A    between atoms: C_8  and  CA_5 
ROOT
ATOM      1  N   UNL d   1      44.811 -14.326  44.141  0.00  0.00    -0.224 NA
ATOM      2  C   UNL d   1      44.998 -13.580  43.864  0.00  0.00     0.162 A 
ATOM      3  N   UNL d   1      44.505 -13.207  43.327  0.00  0.00    -0.225 NA
ATOM      4  C   UNL d   1      45.685 -13.206  44.129  0.00  0.00     0.036 A 
ATOM      5  CA  UNL d   1      45.298 -14.710  44.681  0.00  0.00     0.125 A 
ATOM      6  C   UNL d   1      46.180 -13.582  44.669  0.00  0.00     0.005 A 
ATOM      7  C   UNL d   1      45.985 -14.337  44.945  0.00  0.00     0.023 A 
ATOM      8  C   UNL d   1      44.700 -12.453  43.051  0.00  0.00     0.101 A 
ATOM      9  C   UNL d   1      45.882 -12.459  43.857  0.00  0.00     0.005 A 
ATOM     10  C   UNL d   1      45.386 -12.080  43.315  0.00  0.00     0.021 A 
ENDROOT
BRANCH   5  11
ATOM     11  C   UNL d   1      45.110 -15.452  44.955  0.00  0.00     0.253 C 
ATOM     12  O   UNL d   1      45.677 -16.052  44.941  0.00  0.00    -0.281 OA
ENDBRANCH   5  11
TORSDOF 1
ENDMDL
MODEL 5
REMARK VINA RESULT:       1.4      1.528      2.626
REMARK  1 active torsions:
REMARK  status: ('A' for Active; 'I' for Inactive)
REMARK    1  A    between atoms: C_8  and  CA_5 
ROOT
ATOM      1  N   UNL d   1      46.619 -19.593  42.211  0.00  0.00    -0.224 NA
ATOM      2  C   UNL d   1      46.502 -19.612  43.021  0.00  0.00     0.162 A 
ATOM      3  N   UNL d   1      46.594 -20.314  43.430  0.00  0.00    -0.225 NA
ATOM      4  C   UNL d   1      46.292 -18.921  43.420  0.00  0.00     0.036 A 
ATOM      5  CA  UNL d   1      46.529 -18.893  41.790  0.00  0.00     0.125 A 
ATOM      6  C   UNL d   1      46.199 -18.215  43.006  0.00  0.00     0.005 A 
ATOM      7  C   UNL d   1      46.318 -18.202  42.188  0.00  0.00     0.023 A 
ATOM      8  C   UNL d   1      46.475 -20.328  44.248  0.00  0.00     0.101 A 
ATOM      9  C   UNL d   1      46.172 -18.929  44.230  0.00  0.00     0.005 A 
ATOM     10  C   UNL d   1      46.265 -19.637  44.647  0.00  0.00     0.021 A 
ENDROOT
BRANCH   5  11
ATOM     11  C   UNL d   1      46.645 -18.876  40.984  0.00  0.00     0.253 C 
ATOM     12  O   UNL d   1      46.617 -18.158  40.580  0.00  0.00    -0.281 OA
ENDBRANCH   5  11
TORSDOF 1
ENDMDL
