MODEL 1
REMARK VINA RESULT:      20.3      0.000      0.000
REMARK  5 active torsions:
REMARK  status: ('A' for Active; 'I' for Inactive)
REMARK    1  A    between atoms: C_2  and  N_1 
REMARK    2  A    between atoms: O_4  and  N_1 
REMARK    3  A    between atoms: C_8  and  C_2 
REMARK    4  A    between atoms: C_3  and  O_4 
REMARK    5  A    between atoms: C_5  and  C_3 
ROOT
ATOM      1  O   UNL d   1     -56.701 -99.414 -44.504  0.00  0.00    -0.168 OA
ENDROOT
BRANCH   1   2
ATOM      2  C   UNL d   1     -57.500 -99.048 -44.748  0.00  0.00     0.319 C 
ATOM      3  O   UNL d   1     -57.634 -98.765 -45.591  0.00  0.00    -0.257 OA
BRANCH   2   4
ATOM      4  C   UNL d   1     -58.110 -98.974 -44.190  0.00  0.00     0.065 A 
ATOM      5  C   UNL d   1     -57.938 -98.849 -43.397  0.00  0.00     0.006 A 
ATOM      6  C   UNL d   1     -58.538 -98.778 -42.861  0.00  0.00     0.007 A 
ATOM      7  C   UNL d   1     -59.331 -98.828 -43.084  0.00  0.00     0.035 A 
ATOM      8  C   UNL d   1     -59.504 -98.953 -43.879  0.00  0.00     0.007 A 
ATOM      9 BR   UNL d   1     -59.943 -98.755 -42.533  0.00  0.00    -0.049 Br
ATOM     10  C   UNL d   1     -58.900 -99.029 -44.447  0.00  0.00     0.006 A 
ENDBRANCH   2   4
ENDBRANCH   1   2
BRANCH   1  11
ATOM     11  N   UNL d   1     -56.018 -98.968 -44.494  0.00  0.00    -0.102 NA
BRANCH  11  12
ATOM     12  C   UNL d   1     -55.305 -99.283 -44.236  0.00  0.00     0.210 C 
ATOM     13  N   UNL d   1     -54.765 -98.792 -43.850  0.00  0.00    -0.125 N 
BRANCH  12  14
ATOM     14  C   UNL d   1     -55.116-100.071 -44.353  0.00  0.00     0.043 A 
ATOM     15  C   UNL d   1     -55.116-100.605 -43.736  0.00  0.00     0.024 A 
ATOM     16  C   UNL d   1     -54.926-101.395 -43.852  0.00  0.00     0.099 A 
ATOM     17  N   UNL d   1     -54.733-101.642 -44.617  0.00  0.00    -0.242 NA
ATOM     18  C   UNL d   1     -54.728-101.122 -45.249  0.00  0.00     0.099 A 
ATOM     19  C   UNL d   1     -54.921-100.332 -45.114  0.00  0.00     0.024 A 
ENDBRANCH  12  14
ENDBRANCH  11  12
ENDBRANCH   1  11
TORSDOF 5
ENDMDL
