MODEL 1
REMARK VINA RESULT:      -6.4      0.000      0.000
REMARK  3 active torsions:
REMARK  status: ('A' for Active; 'I' for Inactive)
REMARK    1  A    between atoms: C_8  and  C_1 
REMARK    2  A    between atoms: C_3  and  N_14 
REMARK       I    between atoms: N_13  and  C_8 
REMARK    3  A    between atoms: N_14  and  N_13 
ROOT
ATOM      1  C   UNL d   1      57.896   0.312  29.192  0.00  0.00     0.320 C 
ATOM      2  N   UNL d   1      57.520   0.364  29.917  0.00  0.00    -0.102 NA
ATOM      3  O   UNL d   1      57.769   0.682  28.455  0.00  0.00    -0.261 OA
ENDROOT
BRANCH   1   4
ATOM      4  C   UNL d   1      58.529  -0.210  29.178  0.00  0.00     0.162 A 
ATOM      5  C   UNL d   1      59.287   0.071  29.313  0.00  0.00     0.072 A 
ATOM      6  C   UNL d   1      59.928  -0.448  29.301  0.00  0.00     0.200 A 
ATOM      7  O   UNL d   1      60.705  -0.160  29.439  0.00  0.00    -0.286 OA
ATOM      8  C   UNL d   1      59.807  -1.255  29.153  0.00  0.00     0.062 A 
ATOM      9  C   UNL d   1      59.048  -1.532  29.019  0.00  0.00     0.103 A 
ATOM     10  C   UNL d   1      60.448  -1.774  29.141  0.00  0.00     0.005 A 
ATOM     11  O   UNL d   1      58.414  -1.009  29.032  0.00  0.00    -0.302 OA
ATOM     12  C   UNL d   1      58.921  -2.327  28.872  0.00  0.00     0.025 A 
ATOM     13  C   UNL d   1      59.557  -2.852  28.859  0.00  0.00     0.002 A 
ATOM     14  C   UNL d   1      60.322  -2.568  28.995  0.00  0.00     0.000 A 
ENDBRANCH   1   4
BRANCH   2  15
ATOM     15  N   UNL d   1      57.790  -0.087  30.546  0.00  0.00    -0.118 NA
BRANCH  15  16
ATOM     16  C   UNL d   1      57.381  -0.084  31.271  0.00  0.00     0.215 A 
ATOM     17  N   UNL d   1      56.899  -0.682  31.557  0.00  0.00    -0.219 NA
ATOM     18  C   UNL d   1      56.603  -0.460  32.289  0.00  0.00     0.090 A 
ATOM     19  C   UNL d   1      56.102  -0.829  32.825  0.00  0.00     0.018 A 
ATOM     20  C   UNL d   1      56.910   0.294  32.459  0.00  0.00     0.050 A 
ATOM     21  C   UNL d   1      55.903  -0.452  33.531  0.00  0.00     0.002 A 
ATOM     22  C   UNL d   1      55.798  -1.582  32.652  0.00  0.00     0.002 C 
ATOM     23  C   UNL d   1      56.208   0.294  33.698  0.00  0.00     0.001 A 
ATOM     24  C   UNL d   1      56.717   0.680  33.163  0.00  0.00     0.008 A 
ATOM     25  S   UNL d   1      57.388   0.521  31.830  0.00  0.00    -0.045 SA
ENDBRANCH  15  16
ENDBRANCH   2  15
TORSDOF 3
ENDMDL
