MODEL 1
REMARK VINA RESULT:      -3.4      0.000      0.000
REMARK  2 active torsions:
REMARK  status: ('A' for Active; 'I' for Inactive)
REMARK    1  A    between atoms: C_8  and  C_2 
REMARK    2  A    between atoms: C_9  and  C_4 
ROOT
ATOM      1  N   UNL d   1      58.488   0.173  30.616  0.00  0.00    -0.246 NA
ATOM      2  C   UNL d   1      58.646  -1.263  29.819  0.00  0.00     0.003 A 
ATOM      3  C   UNL d   1      59.178  -0.650  29.673  0.00  0.00     0.018 A 
ATOM      4  C   UNL d   1      57.956  -0.440  30.763  0.00  0.00     0.081 A 
ATOM      5  C   UNL d   1      58.035  -1.159  30.363  0.00  0.00     0.019 A 
ATOM      6  C   UNL d   1      59.099   0.069  30.072  0.00  0.00     0.081 A 
ATOM      7  C   UNL d   1      59.788  -0.754  29.129  0.00  0.00     0.002 A 
ATOM      8  C   UNL d   1      59.630   0.682  29.926  0.00  0.00     0.019 A 
ATOM      9  C   UNL d   1      60.321  -0.141  28.982  0.00  0.00     0.000 A 
ATOM     10  C   UNL d   1      60.242   0.578  29.381  0.00  0.00     0.002 A 
ATOM     11  C   UNL d   1      60.886  -0.265  28.465  0.00  0.00     0.000 C 
ENDROOT
BRANCH   2  12
ATOM     12  C   UNL d   1      58.725  -1.976  29.422  0.00  0.00     0.000 A 
ATOM     13  C   UNL d   1      59.360  -2.474  29.592  0.00  0.00     0.000 A 
ATOM     14  C   UNL d   1      59.439  -3.193  29.193  0.00  0.00     0.000 A 
ATOM     15  C   UNL d   1      58.882  -3.412  28.625  0.00  0.00     0.000 A 
ATOM     16  C   UNL d   1      58.248  -2.914  28.455  0.00  0.00     0.000 A 
ATOM     17  C   UNL d   1      58.169  -2.195  28.854  0.00  0.00     0.000 A 
ENDBRANCH   2  12
BRANCH   4  18
ATOM     18  C   UNL d   1      57.346  -0.336  31.307  0.00  0.00     0.021 A 
ATOM     19  C   UNL d   1      57.068   0.422  31.477  0.00  0.00     0.022 A 
ATOM     20  C   UNL d   1      56.458   0.526  32.021  0.00  0.00     0.099 A 
ATOM     21  N   UNL d   1      56.124  -0.128  32.396  0.00  0.00    -0.242 NA
ATOM     22  C   UNL d   1      56.423  -0.843  32.202  0.00  0.00     0.099 A 
ATOM     23  C   UNL d   1      57.012  -0.991  31.682  0.00  0.00     0.022 A 
ENDBRANCH   4  18
TORSDOF 2
ENDMDL
MODEL 2
REMARK VINA RESULT:      -3.1      1.537      2.291
REMARK  2 active torsions:
REMARK  status: ('A' for Active; 'I' for Inactive)
REMARK    1  A    between atoms: C_8  and  C_2 
REMARK    2  A    between atoms: C_9  and  C_4 
ROOT
ATOM      1  N   UNL d   1      57.997   0.275  32.550  0.00  0.00    -0.246 NA
ATOM      2  C   UNL d   1      58.095   0.090  30.913  0.00  0.00     0.003 A 
ATOM      3  C   UNL d   1      58.768   0.287  31.347  0.00  0.00     0.018 A 
ATOM      4  C   UNL d   1      57.323   0.078  32.116  0.00  0.00     0.081 A 
ATOM      5  C   UNL d   1      57.372  -0.015  31.297  0.00  0.00     0.019 A 
ATOM      6  C   UNL d   1      58.719   0.379  32.166  0.00  0.00     0.081 A 
ATOM      7  C   UNL d   1      59.490   0.391  30.963  0.00  0.00     0.002 A 
ATOM      8  C   UNL d   1      59.392   0.576  32.599  0.00  0.00     0.019 A 
ATOM      9  C   UNL d   1      60.164   0.588  31.396  0.00  0.00     0.000 A 
ATOM     10  C   UNL d   1      60.115   0.681  32.215  0.00  0.00     0.002 A 
ATOM     11  C   UNL d   1      60.831   0.681  31.010  0.00  0.00     0.000 C 
ENDROOT
BRANCH   2  12
ATOM     12  C   UNL d   1      58.144  -0.003  30.100  0.00  0.00     0.000 A 
ATOM     13  C   UNL d   1      58.332  -0.739  29.779  0.00  0.00     0.000 A 
ATOM     14  C   UNL d   1      58.381  -0.832  28.960  0.00  0.00     0.000 A 
ATOM     15  C   UNL d   1      58.242  -0.188  28.463  0.00  0.00     0.000 A 
ATOM     16  C   UNL d   1      58.054   0.548  28.784  0.00  0.00     0.000 A 
ATOM     17  C   UNL d   1      58.005   0.641  29.603  0.00  0.00     0.000 A 
ENDBRANCH   2  12
BRANCH   4  18
ATOM     18  C   UNL d   1      56.601  -0.027  32.500  0.00  0.00     0.021 A 
ATOM     19  C   UNL d   1      56.278  -0.783  32.575  0.00  0.00     0.022 A 
ATOM     20  C   UNL d   1      55.556  -0.887  32.959  0.00  0.00     0.099 A 
ATOM     21  N   UNL d   1      55.156  -0.236  33.269  0.00  0.00    -0.242 NA
ATOM     22  C   UNL d   1      55.504   0.477  33.174  0.00  0.00     0.099 A 
ATOM     23  C   UNL d   1      56.200   0.624  32.810  0.00  0.00     0.022 A 
ENDBRANCH   4  18
TORSDOF 2
ENDMDL
MODEL 3
REMARK VINA RESULT:      -2.3      1.426      3.770
REMARK  2 active torsions:
REMARK  status: ('A' for Active; 'I' for Inactive)
REMARK    1  A    between atoms: C_8  and  C_2 
REMARK    2  A    between atoms: C_9  and  C_4 
ROOT
ATOM      1  N   UNL d   1      58.249  -2.313  29.856  0.00  0.00    -0.246 NA
ATOM      2  C   UNL d   1      59.329  -1.114  29.512  0.00  0.00     0.003 A 
ATOM      3  C   UNL d   1      58.676  -0.956  29.990  0.00  0.00     0.018 A 
ATOM      4  C   UNL d   1      58.902  -2.472  29.378  0.00  0.00     0.081 A 
ATOM      5  C   UNL d   1      59.443  -1.872  29.206  0.00  0.00     0.019 A 
ATOM      6  C   UNL d   1      58.135  -1.556  30.162  0.00  0.00     0.081 A 
ATOM      7  C   UNL d   1      58.563  -0.199  30.296  0.00  0.00     0.002 A 
ATOM      8  C   UNL d   1      57.482  -1.397  30.639  0.00  0.00     0.019 A 
ATOM      9  C   UNL d   1      57.910  -0.040  30.774  0.00  0.00     0.000 A 
ATOM     10  C   UNL d   1      57.369  -0.640  30.946  0.00  0.00     0.002 A 
ATOM     11  C   UNL d   1      57.827   0.681  31.050  0.00  0.00     0.000 C 
ENDROOT
BRANCH   2  12
ATOM     12  C   UNL d   1      59.866  -0.519  29.342  0.00  0.00     0.000 A 
ATOM     13  C   UNL d   1      60.496  -0.372  29.854  0.00  0.00     0.000 A 
ATOM     14  C   UNL d   1      61.037   0.228  29.683  0.00  0.00     0.000 A 
ATOM     15  C   UNL d   1      60.947   0.680  28.998  0.00  0.00     0.000 A 
ATOM     16  C   UNL d   1      60.318   0.534  28.487  0.00  0.00     0.000 A 
ATOM     17  C   UNL d   1      59.777  -0.066  28.658  0.00  0.00     0.000 A 
ENDBRANCH   2  12
BRANCH   4  18
ATOM     18  C   UNL d   1      59.015  -3.229  29.071  0.00  0.00     0.021 A 
ATOM     19  C   UNL d   1      59.770  -3.563  29.064  0.00  0.00     0.022 A 
ATOM     20  C   UNL d   1      59.883  -4.320  28.758  0.00  0.00     0.099 A 
ATOM     21  N   UNL d   1      59.241  -4.744  28.458  0.00  0.00    -0.242 NA
ATOM     22  C   UNL d   1      58.530  -4.382  28.485  0.00  0.00     0.099 A 
ATOM     23  C   UNL d   1      58.374  -3.652  28.772  0.00  0.00     0.022 A 
ENDBRANCH   4  18
TORSDOF 2
ENDMDL
MODEL 4
REMARK VINA RESULT:      -2.1      1.735      4.485
REMARK  2 active torsions:
REMARK  status: ('A' for Active; 'I' for Inactive)
REMARK    1  A    between atoms: C_8  and  C_2 
REMARK    2  A    between atoms: C_9  and  C_4 
ROOT
ATOM      1  N   UNL d   1      58.357   0.289  31.809  0.00  0.00    -0.246 NA
ATOM      2  C   UNL d   1      56.856   0.108  32.469  0.00  0.00     0.003 A 
ATOM      3  C   UNL d   1      57.497   0.299  32.950  0.00  0.00     0.018 A 
ATOM      4  C   UNL d   1      57.716   0.098  31.326  0.00  0.00     0.081 A 
ATOM      5  C   UNL d   1      56.964   0.007  31.657  0.00  0.00     0.019 A 
ATOM      6  C   UNL d   1      58.249   0.389  32.620  0.00  0.00     0.081 A 
ATOM      7  C   UNL d   1      57.389   0.400  33.761  0.00  0.00     0.002 A 
ATOM      8  C   UNL d   1      58.890   0.580  33.101  0.00  0.00     0.019 A 
ATOM      9  C   UNL d   1      58.031   0.591  34.243  0.00  0.00     0.000 A 
ATOM     10  C   UNL d   1      58.782   0.681  33.913  0.00  0.00     0.002 A 
ATOM     11  C   UNL d   1      57.901   0.680  35.003  0.00  0.00     0.000 C 
ENDROOT
BRANCH   2  12
ATOM     12  C   UNL d   1      56.110   0.019  32.797  0.00  0.00     0.000 A 
ATOM     13  C   UNL d   1      55.634   0.680  32.925  0.00  0.00     0.000 A 
ATOM     14  C   UNL d   1      54.882   0.590  33.256  0.00  0.00     0.000 A 
ATOM     15  C   UNL d   1      54.608  -0.162  33.456  0.00  0.00     0.000 A 
ATOM     16  C   UNL d   1      55.084  -0.823  33.328  0.00  0.00     0.000 A 
ATOM     17  C   UNL d   1      55.835  -0.732  32.997  0.00  0.00     0.000 A 
ENDBRANCH   2  12
BRANCH   4  18
ATOM     18  C   UNL d   1      57.824  -0.003  30.515  0.00  0.00     0.021 A 
ATOM     19  C   UNL d   1      58.135  -0.710  30.225  0.00  0.00     0.022 A 
ATOM     20  C   UNL d   1      58.243  -0.811  29.414  0.00  0.00     0.099 A 
ATOM     21  N   UNL d   1      58.041  -0.204  28.892  0.00  0.00    -0.242 NA
ATOM     22  C   UNL d   1      57.744   0.462  29.216  0.00  0.00     0.099 A 
ATOM     23  C   UNL d   1      57.622   0.603  29.994  0.00  0.00     0.022 A 
ENDBRANCH   4  18
TORSDOF 2
ENDMDL
