MODEL 1
REMARK VINA RESULT:      49.6      0.000      0.000
REMARK  4 active torsions:
REMARK  status: ('A' for Active; 'I' for Inactive)
REMARK    1  A    between atoms: C_10  and  C_3 
REMARK       I    between atoms: N_11  and  C_10 
REMARK    2  A    between atoms: C_15  and  N_11 
REMARK    3  A    between atoms: C_17  and  C_15 
REMARK    4  A    between atoms: O_25  and  C_18 
ROOT
ATOM      1  C   UNL d   1     -57.026 -98.911 -44.187  0.00  0.00     0.071 A 
ATOM      2  C   UNL d   1     -57.062 -98.855 -45.031  0.00  0.00     0.142 A 
ATOM      3  C   UNL d   1     -56.232 -98.930 -43.962  0.00  0.00     0.086 A 
ATOM      4  C   UNL d   1     -57.717 -98.937 -43.750  0.00  0.00     0.198 A 
ATOM      5  O   UNL d   1     -56.291 -98.839 -45.325  0.00  0.00    -0.304 OA
ATOM      6  C   UNL d   1     -55.790 -98.885 -44.659  0.00  0.00     0.105 A 
ATOM      7  C   UNL d   1     -57.788 -98.827 -45.399  0.00  0.00     0.218 A 
ATOM      8  C   UNL d   1     -58.452 -98.909 -44.125  0.00  0.00     0.042 A 
ATOM      9  C   UNL d   1     -58.488 -98.853 -44.970  0.00  0.00     0.044 A 
ATOM     10  O   UNL d   1     -57.681 -98.992 -42.925  0.00  0.00    -0.286 OA
ATOM     11  O   UNL d   1     -57.823 -98.772 -46.223  0.00  0.00    -0.284 OA
ATOM     12  C   UNL d   1     -54.964 -98.887 -44.695  0.00  0.00     0.027 C 
ATOM     13  C   UNL d   1     -59.133 -98.935 -43.688  0.00  0.00     0.003 A 
ATOM     14  C   UNL d   1     -59.205 -98.825 -45.337  0.00  0.00     0.003 A 
ATOM     15  C   UNL d   1     -59.883 -98.906 -44.063  0.00  0.00     0.000 A 
ATOM     16  C   UNL d   1     -59.920 -98.850 -44.908  0.00  0.00     0.000 A 
ENDROOT
BRANCH   3  17
ATOM     17  C   UNL d   1     -55.919 -98.982 -43.193  0.00  0.00     0.281 C 
ATOM     18  N   UNL d   1     -55.158 -99.255 -43.089  0.00  0.00    -0.206 NA
ATOM     19  O   UNL d   1     -56.385 -98.757 -42.562  0.00  0.00    -0.265 OA
BRANCH  18  20
ATOM     20  C   UNL d   1     -54.715 -99.471 -43.718  0.00  0.00     0.102 C 
BRANCH  20  21
ATOM     21  C   UNL d   1     -54.741-100.254 -43.973  0.00  0.00     0.019 A 
ATOM     22  C   UNL d   1     -54.798-100.866 -43.427  0.00  0.00     0.004 A 
ATOM     23  C   UNL d   1     -54.825-101.646 -43.662  0.00  0.00     0.024 A 
ATOM     24  C   UNL d   1     -54.796-101.838 -44.447  0.00  0.00     0.094 A 
ATOM     25  C   UNL d   1     -54.738-101.223 -45.013  0.00  0.00     0.024 A 
ATOM     26  C   UNL d   1     -54.713-100.450 -44.758  0.00  0.00     0.004 A 
BRANCH  24  27
ATOM     27  O   UNL d   1     -54.825-102.645 -44.661  0.00  0.00    -0.328 OA
ATOM     28  C   UNL d   1     -54.741-102.848 -45.434  0.00  0.00     0.181 C 
ENDBRANCH  24  27
ENDBRANCH  20  21
ENDBRANCH  18  20
ENDBRANCH   3  17
TORSDOF 4
ENDMDL
