MODEL 1
REMARK VINA RESULT:      -6.1      0.000      0.000
REMARK  6 active torsions:
REMARK  status: ('A' for Active; 'I' for Inactive)
REMARK    1  A    between atoms: N_2  and  C_1 
REMARK       I    between atoms: C_4  and  N_2 
REMARK    2  A    between atoms: C_21  and  N_2 
REMARK    3  A    between atoms: C_6  and  C_4 
REMARK    4  A    between atoms: C_23  and  C_21 
REMARK    5  A    between atoms: C_25  and  C_23 
REMARK    6  A    between atoms: N_24  and  C_25 
ROOT
ATOM      1  N   UNL d   1     -47.910  13.586  22.950  0.00  0.00    -0.252 N 
ATOM      2  C   UNL d   1     -47.800  14.407  22.936  0.00  0.00     0.272 C 
ATOM      3  O   UNL d   1     -47.048  14.725  22.974  0.00  0.00    -0.266 OA
ENDROOT
BRANCH   1   4
ATOM      4  C   UNL d   1     -47.243  13.087  23.002  0.00  0.00     0.182 A 
ATOM      5  N   UNL d   1     -47.177  12.421  23.489  0.00  0.00    -0.222 NA
ATOM      6  C   UNL d   1     -46.428  12.087  23.371  0.00  0.00     0.092 A 
ATOM      7  C   UNL d   1     -46.068  11.436  23.698  0.00  0.00     0.046 A 
ATOM      8  C   UNL d   1     -46.035  12.548  22.812  0.00  0.00     0.052 A 
ATOM      9  C   UNL d   1     -45.301  11.225  23.474  0.00  0.00     0.121 A 
ATOM     10  O   UNL d   1     -44.806  10.618  23.698  0.00  0.00    -0.299 OA
ATOM     11  C   UNL d   1     -44.911  11.684  22.918  0.00  0.00     0.120 A 
ATOM     12  C   UNL d   1     -44.104  10.698  23.280  0.00  0.00     0.304 A 
ATOM     13  O   UNL d   1     -44.164  11.353  22.798  0.00  0.00    -0.300 OA
ATOM     14  C   UNL d   1     -45.273  12.347  22.583  0.00  0.00     0.034 A 
ATOM     15  S   UNL d   1     -46.533  13.167  22.580  0.00  0.00    -0.048 SA
ENDBRANCH   1   4
BRANCH   1  16
ATOM     16  C   UNL d   1     -48.670  13.264  22.912  0.00  0.00     0.086 C 
BRANCH  16  17
ATOM     17  C   UNL d   1     -48.873  12.761  22.283  0.00  0.00     0.038 C 
BRANCH  17  18
ATOM     18  C   UNL d   1     -49.502  12.232  22.368  0.00  0.00     0.082 C 
BRANCH  18  19
ATOM     19  N   UNL d   1     -50.076  12.176  21.779  0.00  0.00    -0.300 N 
ATOM     20  C   UNL d   1     -50.850  12.409  21.937  0.00  0.00     0.100 C 
ATOM     21  C   UNL d   1     -49.875  11.886  21.033  0.00  0.00     0.100 C 
ENDBRANCH  18  19
ENDBRANCH  17  18
ENDBRANCH  16  17
ENDBRANCH   1  16
BRANCH   2  22
ATOM     22  C   UNL d   1     -48.463  14.899  22.884  0.00  0.00     0.087 A 
ATOM     23  S   UNL d   1     -49.006  15.075  23.494  0.00  0.00    -0.071 SA
ATOM     24  C   UNL d   1     -49.575  15.590  23.181  0.00  0.00     0.087 A 
ATOM     25 CL   UNL d   1     -50.234  15.918  23.593  0.00  0.00    -0.075 Cl
ATOM     26  C   UNL d   1     -49.387  15.727  22.394  0.00  0.00     0.019 A 
ATOM     27  C   UNL d   1     -48.708  15.306  22.209  0.00  0.00     0.013 A 
ENDBRANCH   2  22
TORSDOF 6
ENDMDL
MODEL 2
REMARK VINA RESULT:      -6.0      1.587      2.642
REMARK  6 active torsions:
REMARK  status: ('A' for Active; 'I' for Inactive)
REMARK    1  A    between atoms: N_2  and  C_1 
REMARK       I    between atoms: C_4  and  N_2 
REMARK    2  A    between atoms: C_21  and  N_2 
REMARK    3  A    between atoms: C_6  and  C_4 
REMARK    4  A    between atoms: C_23  and  C_21 
REMARK    5  A    between atoms: C_25  and  C_23 
REMARK    6  A    between atoms: N_24  and  C_25 
ROOT
ATOM      1  N   UNL d   1     -47.918  12.564  22.704  0.00  0.00    -0.252 N 
ATOM      2  C   UNL d   1     -48.403  11.944  22.446  0.00  0.00     0.272 C 
ATOM      3  O   UNL d   1     -48.082  11.291  22.076  0.00  0.00    -0.266 OA
ENDROOT
BRANCH   1   4
ATOM      4  C   UNL d   1     -47.094  12.512  22.580  0.00  0.00     0.182 A 
ATOM      5  N   UNL d   1     -46.673  12.891  21.976  0.00  0.00    -0.222 NA
ATOM      6  C   UNL d   1     -45.872  12.692  22.055  0.00  0.00     0.092 A 
ATOM      7  C   UNL d   1     -45.217  12.902  21.622  0.00  0.00     0.046 A 
ATOM      8  C   UNL d   1     -45.802  12.192  22.706  0.00  0.00     0.052 A 
ATOM      9  C   UNL d   1     -44.470  12.617  21.828  0.00  0.00     0.121 A 
ATOM     10  O   UNL d   1     -43.729  12.725  21.510  0.00  0.00    -0.299 OA
ATOM     11  C   UNL d   1     -44.402  12.119  22.477  0.00  0.00     0.120 A 
ATOM     12  C   UNL d   1     -43.194  12.294  21.961  0.00  0.00     0.304 A 
ATOM     13  O   UNL d   1     -43.604  11.919  22.557  0.00  0.00    -0.300 OA
ATOM     14  C   UNL d   1     -45.064  11.903  22.920  0.00  0.00     0.034 A 
ATOM     15  S   UNL d   1     -46.554  12.077  23.035  0.00  0.00    -0.048 SA
ENDBRANCH   1   4
BRANCH   1  16
ATOM     16  C   UNL d   1     -48.242  13.224  23.078  0.00  0.00     0.086 C 
BRANCH  16  17
ATOM     17  C   UNL d   1     -48.202  13.968  22.710  0.00  0.00     0.038 C 
BRANCH  17  18
ATOM     18  C   UNL d   1     -48.311  14.653  23.158  0.00  0.00     0.082 C 
BRANCH  18  19
ATOM     19  N   UNL d   1     -48.691  15.306  22.828  0.00  0.00    -0.300 N 
ATOM     20  C   UNL d   1     -49.419  15.550  23.125  0.00  0.00     0.100 C 
ATOM     21  C   UNL d   1     -48.341  15.714  22.202  0.00  0.00     0.100 C 
ENDBRANCH  18  19
ENDBRANCH  17  18
ENDBRANCH  16  17
ENDBRANCH   1  16
BRANCH   2  22
ATOM     22  C   UNL d   1     -49.220  11.999  22.571  0.00  0.00     0.087 A 
ATOM     23  S   UNL d   1     -49.631  11.836  23.279  0.00  0.00    -0.071 SA
ATOM     24  C   UNL d   1     -50.437  11.968  23.138  0.00  0.00     0.087 A 
ATOM     25 CL   UNL d   1     -51.064  11.874  23.693  0.00  0.00    -0.075 Cl
ATOM     26  C   UNL d   1     -50.520  12.207  22.357  0.00  0.00     0.019 A 
ATOM     27  C   UNL d   1     -49.778  12.227  22.008  0.00  0.00     0.013 A 
ENDBRANCH   2  22
TORSDOF 6
ENDMDL
MODEL 3
REMARK VINA RESULT:      -5.9      1.536      2.592
REMARK  6 active torsions:
REMARK  status: ('A' for Active; 'I' for Inactive)
REMARK    1  A    between atoms: N_2  and  C_1 
REMARK       I    between atoms: C_4  and  N_2 
REMARK    2  A    between atoms: C_21  and  N_2 
REMARK    3  A    between atoms: C_6  and  C_4 
REMARK    4  A    between atoms: C_23  and  C_21 
REMARK    5  A    between atoms: C_25  and  C_23 
REMARK    6  A    between atoms: N_24  and  C_25 
ROOT
ATOM      1  N   UNL d   1     -47.952  12.311  23.017  0.00  0.00    -0.252 N 
ATOM      2  C   UNL d   1     -48.575  11.819  22.784  0.00  0.00     0.272 C 
ATOM      3  O   UNL d   1     -48.441  11.031  22.614  0.00  0.00    -0.266 OA
ENDROOT
BRANCH   1   4
ATOM      4  C   UNL d   1     -47.182  11.993  23.076  0.00  0.00     0.182 A 
ATOM      5  N   UNL d   1     -46.506  12.296  22.708  0.00  0.00    -0.222 NA
ATOM      6  C   UNL d   1     -45.862  11.815  22.912  0.00  0.00     0.092 A 
ATOM      7  C   UNL d   1     -45.075  11.851  22.712  0.00  0.00     0.046 A 
ATOM      8  C   UNL d   1     -46.144  11.218  23.405  0.00  0.00     0.052 A 
ATOM      9  C   UNL d   1     -44.545  11.288  23.001  0.00  0.00     0.121 A 
ATOM     10  O   UNL d   1     -43.744  11.180  22.902  0.00  0.00    -0.299 OA
ATOM     11  C   UNL d   1     -44.826  10.694  23.492  0.00  0.00     0.120 A 
ATOM     12  C   UNL d   1     -43.523  10.516  23.332  0.00  0.00     0.304 A 
ATOM     13  O   UNL d   1     -44.186  10.213  23.697  0.00  0.00    -0.300 OA
ATOM     14  C   UNL d   1     -45.625  10.654  23.698  0.00  0.00     0.034 A 
ATOM     15  S   UNL d   1     -46.959  11.323  23.511  0.00  0.00    -0.048 SA
ENDBRANCH   1   4
BRANCH   1  16
ATOM     16  C   UNL d   1     -48.087  13.108  23.189  0.00  0.00     0.086 C 
BRANCH  16  17
ATOM     17  C   UNL d   1     -47.707  13.696  22.743  0.00  0.00     0.038 C 
BRANCH  17  18
ATOM     18  C   UNL d   1     -47.582  14.443  23.073  0.00  0.00     0.082 C 
BRANCH  18  19
ATOM     19  N   UNL d   1     -47.608  15.115  22.596  0.00  0.00    -0.300 N 
ATOM     20  C   UNL d   1     -46.920  15.389  22.235  0.00  0.00     0.100 C 
ATOM     21  C   UNL d   1     -48.322  15.512  22.480  0.00  0.00     0.100 C 
ENDBRANCH  18  19
ENDBRANCH  17  18
ENDBRANCH  16  17
ENDBRANCH   1  16
BRANCH   2  22
ATOM     22  C   UNL d   1     -49.337  12.138  22.727  0.00  0.00     0.087 A 
ATOM     23  S   UNL d   1     -49.725  12.386  22.030  0.00  0.00    -0.071 SA
ATOM     24  C   UNL d   1     -50.475  12.665  22.247  0.00  0.00     0.087 A 
ATOM     25 CL   UNL d   1     -51.064  12.972  21.729  0.00  0.00    -0.075 Cl
ATOM     26  C   UNL d   1     -50.546  12.590  23.062  0.00  0.00     0.019 A 
ATOM     27  C   UNL d   1     -49.852  12.268  23.358  0.00  0.00     0.013 A 
ENDBRANCH   2  22
TORSDOF 6
ENDMDL
MODEL 4
REMARK VINA RESULT:      -5.9      1.062      1.410
REMARK  6 active torsions:
REMARK  status: ('A' for Active; 'I' for Inactive)
REMARK    1  A    between atoms: N_2  and  C_1 
REMARK       I    between atoms: C_4  and  N_2 
REMARK    2  A    between atoms: C_21  and  N_2 
REMARK    3  A    between atoms: C_6  and  C_4 
REMARK    4  A    between atoms: C_23  and  C_21 
REMARK    5  A    between atoms: C_25  and  C_23 
REMARK    6  A    between atoms: N_24  and  C_25 
ROOT
ATOM      1  N   UNL d   1     -48.143  13.970  22.973  0.00  0.00    -0.252 N 
ATOM      2  C   UNL d   1     -48.293  14.763  22.789  0.00  0.00     0.272 C 
ATOM      3  O   UNL d   1     -47.715  15.226  22.444  0.00  0.00    -0.266 OA
ENDROOT
BRANCH   1   4
ATOM      4  C   UNL d   1     -47.392  13.648  22.803  0.00  0.00     0.182 A 
ATOM      5  N   UNL d   1     -46.953  13.786  22.116  0.00  0.00    -0.222 NA
ATOM      6  C   UNL d   1     -46.244  13.361  22.172  0.00  0.00     0.092 A 
ATOM      7  C   UNL d   1     -45.612  13.293  21.664  0.00  0.00     0.046 A 
ATOM      8  C   UNL d   1     -46.247  12.963  22.893  0.00  0.00     0.052 A 
ATOM      9  C   UNL d   1     -44.964  12.822  21.864  0.00  0.00     0.121 A 
ATOM     10  O   UNL d   1     -44.267  12.648  21.481  0.00  0.00    -0.299 OA
ATOM     11  C   UNL d   1     -44.969  12.427  22.583  0.00  0.00     0.120 A 
ATOM     12  C   UNL d   1     -43.834  12.142  21.962  0.00  0.00     0.304 A 
ATOM     13  O   UNL d   1     -44.262  12.003  22.641  0.00  0.00    -0.300 OA
ATOM     14  C   UNL d   1     -45.608  12.493  23.102  0.00  0.00     0.034 A 
ATOM     15  S   UNL d   1     -46.954  13.136  23.288  0.00  0.00    -0.048 SA
ENDBRANCH   1   4
BRANCH   1  16
ATOM     16  C   UNL d   1     -48.728  13.502  23.322  0.00  0.00     0.086 C 
BRANCH  16  17
ATOM     17  C   UNL d   1     -48.992  12.817  22.934  0.00  0.00     0.038 C 
BRANCH  17  18
ATOM     18  C   UNL d   1     -49.441  12.259  23.347  0.00  0.00     0.082 C 
BRANCH  18  19
ATOM     19  N   UNL d   1     -50.057  11.863  22.970  0.00  0.00    -0.300 N 
ATOM     20  C   UNL d   1     -50.750  11.695  23.382  0.00  0.00     0.100 C 
ATOM     21  C   UNL d   1     -49.979  11.635  22.180  0.00  0.00     0.100 C 
ENDBRANCH  18  19
ENDBRANCH  17  18
ENDBRANCH  16  17
ENDBRANCH   1  16
BRANCH   2  22
ATOM     22  C   UNL d   1     -49.040  15.079  22.959  0.00  0.00     0.087 A 
ATOM     23  S   UNL d   1     -49.674  15.181  22.426  0.00  0.00    -0.071 SA
ATOM     24  C   UNL d   1     -50.304  15.516  22.848  0.00  0.00     0.087 A 
ATOM     25 CL   UNL d   1     -51.062  15.719  22.538  0.00  0.00    -0.075 Cl
ATOM     26  C   UNL d   1     -50.062  15.617  23.626  0.00  0.00     0.019 A 
ATOM     27  C   UNL d   1     -49.289  15.351  23.697  0.00  0.00     0.013 A 
ENDBRANCH   2  22
TORSDOF 6
ENDMDL
MODEL 5
REMARK VINA RESULT:      -4.7      6.988      8.795
REMARK  6 active torsions:
REMARK  status: ('A' for Active; 'I' for Inactive)
REMARK    1  A    between atoms: N_2  and  C_1 
REMARK       I    between atoms: C_4  and  N_2 
REMARK    2  A    between atoms: C_21  and  N_2 
REMARK    3  A    between atoms: C_6  and  C_4 
REMARK    4  A    between atoms: C_23  and  C_21 
REMARK    5  A    between atoms: C_25  and  C_23 
REMARK    6  A    between atoms: N_24  and  C_25 
ROOT
ATOM      1  N   UNL d   1     -39.991  14.527  20.635  0.00  0.00    -0.252 N 
ATOM      2  C   UNL d   1     -39.201  14.518  20.884  0.00  0.00     0.272 C 
ATOM      3  O   UNL d   1     -38.597  14.664  20.354  0.00  0.00    -0.266 OA
ENDROOT
BRANCH   1   4
ATOM      4  C   UNL d   1     -40.163  14.687  19.834  0.00  0.00     0.182 A 
ATOM      5  N   UNL d   1     -40.029  14.173  19.200  0.00  0.00    -0.222 NA
ATOM      6  C   UNL d   1     -40.278  14.549  18.505  0.00  0.00     0.092 A 
ATOM      7  C   UNL d   1     -40.277  14.307  17.728  0.00  0.00     0.046 A 
ATOM      8  C   UNL d   1     -40.565  15.293  18.712  0.00  0.00     0.052 A 
ATOM      9  C   UNL d   1     -40.564  14.805  17.135  0.00  0.00     0.121 A 
ATOM     10  O   UNL d   1     -40.634  14.721  16.328  0.00  0.00    -0.299 OA
ATOM     11  C   UNL d   1     -40.849  15.545  17.343  0.00  0.00     0.120 A 
ATOM     12  C   UNL d   1     -40.964  15.411  16.030  0.00  0.00     0.304 A 
ATOM     13  O   UNL d   1     -41.098  15.922  16.651  0.00  0.00    -0.300 OA
ATOM     14  C   UNL d   1     -40.852  15.795  18.130  0.00  0.00     0.034 A 
ATOM     15  S   UNL d   1     -40.496  15.385  19.533  0.00  0.00    -0.048 SA
ENDBRANCH   1   4
BRANCH   1  16
ATOM     16  C   UNL d   1     -40.602  14.379  21.171  0.00  0.00     0.086 C 
BRANCH  16  17
ATOM     17  C   UNL d   1     -41.228  13.878  20.954  0.00  0.00     0.038 C 
BRANCH  17  18
ATOM     18  C   UNL d   1     -41.886  13.808  21.448  0.00  0.00     0.082 C 
BRANCH  18  19
ATOM     19  N   UNL d   1     -42.406  13.175  21.355  0.00  0.00    -0.300 N 
ATOM     20  C   UNL d   1     -43.024  13.228  20.812  0.00  0.00     0.100 C 
ATOM     21  C   UNL d   1     -42.309  12.491  21.805  0.00  0.00     0.100 C 
ENDBRANCH  18  19
ENDBRANCH  17  18
ENDBRANCH  16  17
ENDBRANCH   1  16
BRANCH   2  22
ATOM     22  C   UNL d   1     -39.035  14.358  21.679  0.00  0.00     0.087 A 
ATOM     23  S   UNL d   1     -38.763  13.637  21.999  0.00  0.00    -0.071 SA
ATOM     24  C   UNL d   1     -38.675  13.742  22.817  0.00  0.00     0.087 A 
ATOM     25 CL   UNL d   1     -38.414  13.163  23.371  0.00  0.00    -0.075 Cl
ATOM     26  C   UNL d   1     -38.889  14.514  22.996  0.00  0.00     0.019 A 
ATOM     27  C   UNL d   1     -39.109  14.894  22.303  0.00  0.00     0.013 A 
ENDBRANCH   2  22
TORSDOF 6
ENDMDL
MODEL 6
REMARK VINA RESULT:      -3.7      8.086      9.811
REMARK  6 active torsions:
REMARK  status: ('A' for Active; 'I' for Inactive)
REMARK    1  A    between atoms: N_2  and  C_1 
REMARK       I    between atoms: C_4  and  N_2 
REMARK    2  A    between atoms: C_21  and  N_2 
REMARK    3  A    between atoms: C_6  and  C_4 
REMARK    4  A    between atoms: C_23  and  C_21 
REMARK    5  A    between atoms: C_25  and  C_23 
REMARK    6  A    between atoms: N_24  and  C_25 
ROOT
ATOM      1  N   UNL d   1     -39.916  14.633  19.062  0.00  0.00    -0.252 N 
ATOM      2  C   UNL d   1     -40.719  14.455  19.163  0.00  0.00     0.272 C 
ATOM      3  O   UNL d   1     -41.170  14.198  18.532  0.00  0.00    -0.266 OA
ENDROOT
BRANCH   1   4
ATOM      4  C   UNL d   1     -39.572  14.547  18.307  0.00  0.00     0.182 A 
ATOM      5  N   UNL d   1     -39.388  13.828  17.941  0.00  0.00    -0.222 NA
ATOM      6  C   UNL d   1     -39.057  13.993  17.199  0.00  0.00     0.092 A 
ATOM      7  C   UNL d   1     -38.778  13.507  16.610  0.00  0.00     0.046 A 
ATOM      8  C   UNL d   1     -39.039  14.812  17.110  0.00  0.00     0.052 A 
ATOM      9  C   UNL d   1     -38.471  13.827  15.913  0.00  0.00     0.121 A 
ATOM     10  O   UNL d   1     -38.158  13.491  15.241  0.00  0.00    -0.299 OA
ATOM     11  C   UNL d   1     -38.454  14.642  15.826  0.00  0.00     0.120 A 
ATOM     12  C   UNL d   1     -37.944  14.099  14.731  0.00  0.00     0.304 A 
ATOM     13  O   UNL d   1     -38.124  14.809  15.087  0.00  0.00    -0.300 OA
ATOM     14  C   UNL d   1     -38.736  15.140  16.422  0.00  0.00     0.034 A 
ATOM     15  S   UNL d   1     -39.356  15.160  17.792  0.00  0.00    -0.048 SA
ENDBRANCH   1   4
BRANCH   1  16
ATOM     16  C   UNL d   1     -39.461  14.893  19.700  0.00  0.00     0.086 C 
BRANCH  16  17
ATOM     17  C   UNL d   1     -38.799  14.452  19.941  0.00  0.00     0.038 C 
BRANCH  17  18
ATOM     18  C   UNL d   1     -38.338  14.717  20.573  0.00  0.00     0.082 C 
BRANCH  18  19
ATOM     19  N   UNL d   1     -38.154  14.206  21.193  0.00  0.00    -0.300 N 
ATOM     20  C   UNL d   1     -38.177  14.479  21.970  0.00  0.00     0.100 C 
ATOM     21  C   UNL d   1     -37.949  13.423  21.036  0.00  0.00     0.100 C 
ENDBRANCH  18  19
ENDBRANCH  17  18
ENDBRANCH  16  17
ENDBRANCH   1  16
BRANCH   2  22
ATOM     22  C   UNL d   1     -41.056  14.542  19.914  0.00  0.00     0.087 A 
ATOM     23  S   UNL d   1     -41.343  13.933  20.408  0.00  0.00    -0.071 SA
ATOM     24  C   UNL d   1     -41.628  14.286  21.102  0.00  0.00     0.087 A 
ATOM     25 CL   UNL d   1     -41.971  13.888  21.762  0.00  0.00    -0.075 Cl
ATOM     26  C   UNL d   1     -41.519  15.097  21.035  0.00  0.00     0.019 A 
ATOM     27  C   UNL d   1     -41.170  15.256  20.311  0.00  0.00     0.013 A 
ENDBRANCH   2  22
TORSDOF 6
ENDMDL
