MODEL 1
REMARK VINA RESULT:      80.1      0.000      0.000
REMARK  5 active torsions:
REMARK  status: ('A' for Active; 'I' for Inactive)
REMARK    1  A    between atoms: N_9  and  C_2 
REMARK    2  A    between atoms: N_8  and  C_3 
REMARK    3  A    between atoms: N_10  and  C_6 
REMARK    4  A    between atoms: C_7  and  C_11 
REMARK    5  A    between atoms: C_13  and  N_10 
ROOT
ATOM      1  N   UNL d   1     -49.216  28.058  36.308  0.00  0.00     0.133 NA
ATOM      2  C   UNL d   1     -49.783  27.453  36.299  0.00  0.00     0.765 A 
ATOM      3  C   UNL d   1     -48.773  28.218  35.630  0.00  0.00     0.765 A 
ATOM      4  N   UNL d   1     -49.903  27.010  35.611  0.00  0.00     0.134 NA
ATOM      5  N   UNL d   1     -48.893  27.775  34.942  0.00  0.00     0.134 NA
ATOM      6  C   UNL d   1     -49.457  27.173  34.931  0.00  0.00     0.780 A 
ENDROOT
BRANCH   6   7
ATOM      7  N   UNL d   1     -49.580  26.730  34.248  0.00  0.00    -0.058 NA
BRANCH   7   8
ATOM      8  C   UNL d   1     -50.338  26.656  33.934  0.00  0.00     0.100 A 
ATOM      9  C   UNL d   1     -50.666  25.899  33.833  0.00  0.00     0.024 A 
ATOM     10  C   UNL d   1     -51.427  25.823  33.517  0.00  0.00     0.073 A 
ATOM     11  C   UNL d   1     -51.854  26.500  33.306  0.00  0.00     0.004 A 
ATOM     12  C   UNL d   1     -51.519  27.247  33.410  0.00  0.00     0.002 A 
ATOM     13  C   UNL d   1     -50.766  27.328  33.722  0.00  0.00     0.020 A 
BRANCH  10  14
ATOM     14  C   UNL d   1     -51.754  25.081  33.416  0.00  0.00     0.419 C 
ATOM     15  F   UNL d   1     -51.263  24.430  33.307  0.00  0.00    -0.166 F 
ATOM     16  F   UNL d   1     -52.565  24.986  33.422  0.00  0.00    -0.166 F 
ATOM     17  F   UNL d   1     -50.939  24.959  33.378  0.00  0.00    -0.166 F 
ENDBRANCH  10  14
ENDBRANCH   7   8
ENDBRANCH   6   7
BRANCH   3  18
ATOM     18  N   UNL d   1     -48.206  28.823  35.639  0.00  0.00    -0.137 N 
ATOM     19  C   UNL d   1     -47.469  28.694  35.283  0.00  0.00     0.098 A 
ATOM     20  C   UNL d   1     -46.910  29.301  35.296  0.00  0.00     0.021 A 
ATOM     21  C   UNL d   1     -47.817  30.134  36.005  0.00  0.00     0.021 A 
ATOM     22  C   UNL d   1     -48.383  29.542  36.001  0.00  0.00     0.098 A 
ENDBRANCH   3  18
BRANCH   2  23
ATOM     23  N   UNL d   1     -50.230  27.290  36.979  0.00  0.00    -0.137 N 
ATOM     24  C   UNL d   1     -50.684  26.609  37.008  0.00  0.00     0.098 A 
ATOM     25  C   UNL d   1     -51.123  26.451  37.679  0.00  0.00     0.021 A 
ATOM     26  C   UNL d   1     -50.654  27.649  38.285  0.00  0.00     0.021 A 
ATOM     27  C   UNL d   1     -50.207  27.817  37.612  0.00  0.00     0.098 A 
ENDBRANCH   2  23
TORSDOF 5
ENDMDL
MODEL 2
REMARK VINA RESULT:      80.3      0.738      2.747
REMARK  5 active torsions:
REMARK  status: ('A' for Active; 'I' for Inactive)
REMARK    1  A    between atoms: N_9  and  C_2 
REMARK    2  A    between atoms: N_8  and  C_3 
REMARK    3  A    between atoms: N_10  and  C_6 
REMARK    4  A    between atoms: C_7  and  C_11 
REMARK    5  A    between atoms: C_13  and  N_10 
ROOT
ATOM      1  N   UNL d   1     -49.532  27.771  35.951  0.00  0.00     0.133 NA
ATOM      2  C   UNL d   1     -49.082  28.030  35.304  0.00  0.00     0.765 A 
ATOM      3  C   UNL d   1     -50.154  27.242  35.834  0.00  0.00     0.765 A 
ATOM      4  N   UNL d   1     -49.257  27.758  34.543  0.00  0.00     0.134 NA
ATOM      5  N   UNL d   1     -50.330  26.970  35.073  0.00  0.00     0.134 NA
ATOM      6  C   UNL d   1     -49.884  27.226  34.428  0.00  0.00     0.780 A 
ENDROOT
BRANCH   6   7
ATOM      7  N   UNL d   1     -50.055  26.958  33.669  0.00  0.00    -0.058 NA
BRANCH   7   8
ATOM      8  C   UNL d   1     -50.620  26.369  33.556  0.00  0.00     0.100 A 
ATOM      9  C   UNL d   1     -50.382  25.572  33.553  0.00  0.00     0.024 A 
ATOM     10  C   UNL d   1     -50.947  24.979  33.440  0.00  0.00     0.073 A 
ATOM     11  C   UNL d   1     -51.742  25.183  33.331  0.00  0.00     0.004 A 
ATOM     12  C   UNL d   1     -51.967  25.977  33.335  0.00  0.00     0.002 A 
ATOM     13  C   UNL d   1     -51.411  26.569  33.447  0.00  0.00     0.020 A 
BRANCH  10  14
ATOM     14  C   UNL d   1     -50.720  24.194  33.436  0.00  0.00     0.419 C 
ATOM     15  F   UNL d   1     -51.289  23.605  33.357  0.00  0.00    -0.166 F 
ATOM     16  F   UNL d   1     -49.932  23.994  33.510  0.00  0.00    -0.166 F 
ATOM     17  F   UNL d   1     -51.541  24.177  33.351  0.00  0.00    -0.166 F 
ENDBRANCH  10  14
ENDBRANCH   7   8
ENDBRANCH   6   7
BRANCH   3  18
ATOM     18  N   UNL d   1     -50.605  26.982  36.481  0.00  0.00    -0.137 N 
ATOM     19  C   UNL d   1     -51.105  26.328  36.391  0.00  0.00     0.098 A 
ATOM     20  C   UNL d   1     -51.550  26.076  37.038  0.00  0.00     0.021 A 
ATOM     21  C   UNL d   1     -50.996  27.114  37.834  0.00  0.00     0.021 A 
ATOM     22  C   UNL d   1     -50.547  27.378  37.201  0.00  0.00     0.098 A 
ENDBRANCH   3  18
BRANCH   2  23
ATOM     23  N   UNL d   1     -48.455  28.562  35.419  0.00  0.00    -0.137 N 
ATOM     24  C   UNL d   1     -48.070  28.877  34.768  0.00  0.00     0.098 A 
ATOM     25  C   UNL d   1     -47.454  29.400  34.884  0.00  0.00     0.021 A 
ATOM     26  C   UNL d   1     -47.609  29.293  36.294  0.00  0.00     0.021 A 
ATOM     27  C   UNL d   1     -48.233  28.763  36.187  0.00  0.00     0.098 A 
ENDBRANCH   2  23
TORSDOF 5
ENDMDL
MODEL 3
REMARK VINA RESULT:      82.4      0.668      2.706
REMARK  5 active torsions:
REMARK  status: ('A' for Active; 'I' for Inactive)
REMARK    1  A    between atoms: N_9  and  C_2 
REMARK    2  A    between atoms: N_8  and  C_3 
REMARK    3  A    between atoms: N_10  and  C_6 
REMARK    4  A    between atoms: C_7  and  C_11 
REMARK    5  A    between atoms: C_13  and  N_10 
ROOT
ATOM      1  N   UNL d   1     -48.996  28.687  36.300  0.00  0.00     0.133 NA
ATOM      2  C   UNL d   1     -48.562  28.867  35.616  0.00  0.00     0.765 A 
ATOM      3  C   UNL d   1     -49.500  28.033  36.308  0.00  0.00     0.765 A 
ATOM      4  N   UNL d   1     -48.634  28.390  34.944  0.00  0.00     0.134 NA
ATOM      5  N   UNL d   1     -49.572  27.556  35.637  0.00  0.00     0.134 NA
ATOM      6  C   UNL d   1     -49.140  27.733  34.955  0.00  0.00     0.780 A 
ENDROOT
BRANCH   6   7
ATOM      7  N   UNL d   1     -49.209  27.261  34.284  0.00  0.00    -0.058 NA
BRANCH   7   8
ATOM      8  C   UNL d   1     -49.952  27.095  33.970  0.00  0.00     0.100 A 
ATOM      9  C   UNL d   1     -50.223  26.309  33.959  0.00  0.00     0.024 A 
ATOM     10  C   UNL d   1     -50.969  26.140  33.643  0.00  0.00     0.073 A 
ATOM     11  C   UNL d   1     -51.437  26.753  33.342  0.00  0.00     0.004 A 
ATOM     12  C   UNL d   1     -51.158  27.529  33.357  0.00  0.00     0.002 A 
ATOM     13  C   UNL d   1     -50.420  27.702  33.668  0.00  0.00     0.020 A 
BRANCH  10  14
ATOM     14  C   UNL d   1     -51.242  25.369  33.630  0.00  0.00     0.419 C 
ATOM     15  F   UNL d   1     -50.755  24.769  33.347  0.00  0.00    -0.166 F 
ATOM     16  F   UNL d   1     -51.993  25.195  33.897  0.00  0.00    -0.166 F 
ATOM     17  F   UNL d   1     -50.476  25.328  33.325  0.00  0.00    -0.166 F 
ENDBRANCH  10  14
ENDBRANCH   7   8
ENDBRANCH   6   7
BRANCH   3  18
ATOM     18  N   UNL d   1     -49.934  27.854  36.992  0.00  0.00    -0.137 N 
ATOM     19  C   UNL d   1     -49.890  28.361  37.645  0.00  0.00     0.098 A 
ATOM     20  C   UNL d   1     -50.325  28.176  38.321  0.00  0.00     0.021 A 
ATOM     21  C   UNL d   1     -50.827  27.007  37.691  0.00  0.00     0.021 A 
ATOM     22  C   UNL d   1     -50.401  27.175  37.011  0.00  0.00     0.098 A 
ENDBRANCH   3  18
BRANCH   2  23
ATOM     23  N   UNL d   1     -48.056  29.524  35.605  0.00  0.00    -0.137 N 
ATOM     24  C   UNL d   1     -47.584  29.679  36.256  0.00  0.00     0.098 A 
ATOM     25  C   UNL d   1     -47.086  30.327  36.243  0.00  0.00     0.021 A 
ATOM     26  C   UNL d   1     -47.531  30.660  34.934  0.00  0.00     0.021 A 
ATOM     27  C   UNL d   1     -48.037  30.008  34.938  0.00  0.00     0.098 A 
ENDBRANCH   2  23
TORSDOF 5
ENDMDL
