MODEL 1
REMARK VINA RESULT:      45.1      0.000      0.000
REMARK  7 active torsions:
REMARK  status: ('A' for Active; 'I' for Inactive)
REMARK    1  A    between atoms: C_11  and  C_1 
REMARK    2  A    between atoms: C_12  and  C_3 
REMARK    3  A    between atoms: C_10  and  C_5 
REMARK    4  A    between atoms: O_21  and  C_11 
REMARK    5  A    between atoms: O_22  and  C_12 
REMARK    6  A    between atoms: O_23  and  C_14 
REMARK    7  A    between atoms: O_24  and  C_17 
ROOT
ATOM      1  C   UNL d   1      14.233  13.076  -1.938  0.00  0.00     0.075 A 
ATOM      2  C   UNL d   1      13.504  12.115  -3.056  0.00  0.00     0.121 A 
ATOM      3  C   UNL d   1      14.058  12.286  -1.763  0.00  0.00     0.099 A 
ATOM      4  C   UNL d   1      13.675  12.904  -3.239  0.00  0.00     0.058 A 
ATOM      5  C   UNL d   1      14.043  13.383  -2.672  0.00  0.00     0.014 A 
ATOM      6  S   UNL d   1      13.694  11.809  -2.322  0.00  0.00    -0.062 SA
ATOM      7  N   UNL d   1      13.144  11.782  -3.717  0.00  0.00    -0.195 NA
ATOM      8  C   UNL d   1      13.092  12.352  -4.303  0.00  0.00     0.311 A 
ATOM      9  S   UNL d   1      13.421  13.050  -4.009  0.00  0.00    -0.024 SA
ATOM     10  O   UNL d   1      12.770  12.255  -5.057  0.00  0.00    -0.258 OA
ENDROOT
BRANCH   5  11
ATOM     11  C   UNL d   1      14.213  14.168  -2.856  0.00  0.00     0.003 A 
ATOM     12  C   UNL d   1      14.248  14.728  -2.263  0.00  0.00     0.026 A 
ATOM     13  C   UNL d   1      14.419  15.514  -2.452  0.00  0.00     0.116 A 
ATOM     14  C   UNL d   1      14.554  15.729  -3.238  0.00  0.00     0.116 A 
ATOM     15  C   UNL d   1      14.517  15.157  -3.833  0.00  0.00     0.026 A 
ATOM     16  C   UNL d   1      14.348  14.380  -3.645  0.00  0.00     0.002 A 
BRANCH  13  17
ATOM     17  O   UNL d   1      14.455  16.081  -1.855  0.00  0.00    -0.326 OA
ATOM     18  C   UNL d   1      14.864  16.788  -1.983  0.00  0.00     0.181 C 
ENDBRANCH  13  17
BRANCH  14  19
ATOM     19  O   UNL d   1      14.725  16.515  -3.427  0.00  0.00    -0.326 OA
ATOM     20  C   UNL d   1      15.193  16.688  -4.083  0.00  0.00     0.181 C 
ENDBRANCH  14  19
ENDBRANCH   5  11
BRANCH   1  21
ATOM     21  C   UNL d   1      14.598  13.553  -1.376  0.00  0.00     0.296 C 
ATOM     22  O   UNL d   1      15.358  13.846  -1.512  0.00  0.00    -0.259 OA
BRANCH  21  23
ATOM     23  O   UNL d   1      14.206  13.738  -0.675  0.00  0.00    -0.296 OA
ATOM     24  C   UNL d   1      14.604  14.141  -0.080  0.00  0.00     0.185 C 
ENDBRANCH  21  23
ENDBRANCH   1  21
BRANCH   3  25
ATOM     25  C   UNL d   1      14.249  11.979  -1.029  0.00  0.00     0.302 C 
ATOM     26  O   UNL d   1      13.661  11.827  -0.472  0.00  0.00    -0.259 OA
BRANCH  25  27
ATOM     27  O   UNL d   1      15.036  11.818  -0.842  0.00  0.00    -0.295 OA
ATOM     28  C   UNL d   1      15.269  11.780  -0.050  0.00  0.00     0.185 C 
ENDBRANCH  25  27
ENDBRANCH   3  25
TORSDOF 7
ENDMDL
MODEL 2
REMARK VINA RESULT:      45.2      0.668      1.250
REMARK  7 active torsions:
REMARK  status: ('A' for Active; 'I' for Inactive)
REMARK    1  A    between atoms: C_11  and  C_1 
REMARK    2  A    between atoms: C_12  and  C_3 
REMARK    3  A    between atoms: C_10  and  C_5 
REMARK    4  A    between atoms: O_21  and  C_11 
REMARK    5  A    between atoms: O_22  and  C_12 
REMARK    6  A    between atoms: O_23  and  C_14 
REMARK    7  A    between atoms: O_24  and  C_17 
ROOT
ATOM      1  C   UNL d   1      14.337  13.238  -1.534  0.00  0.00     0.075 A 
ATOM      2  C   UNL d   1      13.747  12.233  -2.694  0.00  0.00     0.121 A 
ATOM      3  C   UNL d   1      14.183  12.442  -1.362  0.00  0.00     0.099 A 
ATOM      4  C   UNL d   1      13.898  13.026  -2.874  0.00  0.00     0.058 A 
ATOM      5  C   UNL d   1      14.195  13.528  -2.285  0.00  0.00     0.014 A 
ATOM      6  S   UNL d   1      13.888  11.943  -1.942  0.00  0.00    -0.062 SA
ATOM      7  N   UNL d   1      13.459  11.876  -3.378  0.00  0.00    -0.195 NA
ATOM      8  C   UNL d   1      13.431  12.437  -3.975  0.00  0.00     0.311 A 
ATOM      9  S   UNL d   1      13.703  13.152  -3.664  0.00  0.00    -0.024 SA
ATOM     10  O   UNL d   1      13.178  12.318  -4.752  0.00  0.00    -0.258 OA
ENDROOT
BRANCH   5  11
ATOM     11  C   UNL d   1      14.346  14.317  -2.465  0.00  0.00     0.003 A 
ATOM     12  C   UNL d   1      14.130  14.619  -3.192  0.00  0.00     0.026 A 
ATOM     13  C   UNL d   1      14.282  15.412  -3.368  0.00  0.00     0.116 A 
ATOM     14  C   UNL d   1      14.652  15.894  -2.809  0.00  0.00     0.116 A 
ATOM     15  C   UNL d   1      14.869  15.583  -2.076  0.00  0.00     0.026 A 
ATOM     16  C   UNL d   1      14.717  14.798  -1.903  0.00  0.00     0.002 A 
BRANCH  13  17
ATOM     17  O   UNL d   1      14.065  15.719  -4.102  0.00  0.00    -0.326 OA
ATOM     18  C   UNL d   1      14.635  15.817  -4.693  0.00  0.00     0.181 C 
ENDBRANCH  13  17
BRANCH  14  19
ATOM     19  O   UNL d   1      14.805  16.687  -2.985  0.00  0.00    -0.326 OA
ATOM     20  C   UNL d   1      14.576  17.277  -2.458  0.00  0.00     0.181 C 
ENDBRANCH  14  19
ENDBRANCH   5  11
BRANCH   1  21
ATOM     21  C   UNL d   1      14.632  13.736  -0.950  0.00  0.00     0.296 C 
ATOM     22  O   UNL d   1      14.117  14.200  -0.502  0.00  0.00    -0.259 OA
BRANCH  21  23
ATOM     23  O   UNL d   1      15.444  13.772  -0.810  0.00  0.00    -0.296 OA
ATOM     24  C   UNL d   1      15.720  13.930  -0.053  0.00  0.00     0.185 C 
ENDBRANCH  21  23
ENDBRANCH   1  21
BRANCH   3  25
ATOM     25  C   UNL d   1      14.324  12.152  -0.611  0.00  0.00     0.302 C 
ATOM     26  O   UNL d   1      15.053  11.816  -0.420  0.00  0.00    -0.259 OA
BRANCH  25  27
ATOM     27  O   UNL d   1      13.734  12.194  -0.035  0.00  0.00    -0.295 OA
ATOM     28  C   UNL d   1      13.018  11.797  -0.153  0.00  0.00     0.185 C 
ENDBRANCH  25  27
ENDBRANCH   3  25
TORSDOF 7
ENDMDL
