MODEL 1
REMARK VINA RESULT:      -8.6      0.000      0.000
REMARK  3 active torsions:
REMARK  status: ('A' for Active; 'I' for Inactive)
REMARK    1  A    between atoms: C_7  and  C_1 
REMARK    2  A    between atoms: C_10  and  C_7 
REMARK    3  A    between atoms: N_8  and  C_9 
ROOT
ATOM      1  C   UNL d   1     -47.785  12.047  22.989  0.00  0.00     0.129 A 
ATOM      2  C   UNL d   1     -48.286  12.662  22.768  0.00  0.00     0.024 A 
ATOM      3  C   UNL d   1     -47.005  12.206  23.187  0.00  0.00     0.050 A 
ATOM      4  C   UNL d   1     -46.716  12.980  23.166  0.00  0.00     0.121 A 
ATOM      5  C   UNL d   1     -47.213  13.600  22.946  0.00  0.00     0.119 A 
ATOM      6  C   UNL d   1     -48.006  13.439  22.745  0.00  0.00     0.028 A 
ATOM      7  O   UNL d   1     -45.974  13.302  23.331  0.00  0.00    -0.299 OA
ATOM      8  O   UNL d   1     -46.787  14.298  22.973  0.00  0.00    -0.300 OA
ATOM      9  C   UNL d   1     -46.018  14.117  23.212  0.00  0.00     0.304 A 
ENDROOT
BRANCH   2  10
ATOM     10  C   UNL d   1     -49.065  12.499  22.572  0.00  0.00     0.011 C 
BRANCH  10  11
ATOM     11  C   UNL d   1     -49.570  13.120  22.343  0.00  0.00     0.116 A 
ATOM     12  C   UNL d   1     -49.611  13.346  21.548  0.00  0.00     0.288 A 
ATOM     13  N   UNL d   1     -50.106  13.957  21.319  0.00  0.00    -0.152 NA
ATOM     14  O   UNL d   1     -49.148  12.950  20.983  0.00  0.00    -0.265 OA
ATOM     15  C   UNL d   1     -50.561  14.344  21.881  0.00  0.00     0.374 A 
ATOM     16  N   UNL d   1     -50.519  14.118  22.677  0.00  0.00    -0.152 NA
ATOM     17  O   UNL d   1     -51.064  14.964  21.656  0.00  0.00    -0.242 OA
ATOM     18  C   UNL d   1     -50.023  13.507  22.905  0.00  0.00     0.288 A 
ATOM     19  O   UNL d   1     -49.982  13.282  23.696  0.00  0.00    -0.265 OA
ENDBRANCH  10  11
ENDBRANCH   2  10
BRANCH   1  20
ATOM     20  N   UNL d   1     -48.066  11.278  23.011  0.00  0.00    -0.114 N 
ATOM     21  O   UNL d   1     -48.422  10.987  23.698  0.00  0.00    -0.532 OA
ATOM     22  O   UNL d   1     -47.996  10.795  22.352  0.00  0.00    -0.532 OA
ENDBRANCH   1  20
TORSDOF 3
ENDMDL
MODEL 2
REMARK VINA RESULT:      -8.2      1.312      3.333
REMARK  3 active torsions:
REMARK  status: ('A' for Active; 'I' for Inactive)
REMARK    1  A    between atoms: C_7  and  C_1 
REMARK    2  A    between atoms: C_10  and  C_7 
REMARK    3  A    between atoms: N_8  and  C_9 
ROOT
ATOM      1  C   UNL d   1     -49.983  13.512  22.069  0.00  0.00     0.129 A 
ATOM      2  C   UNL d   1     -49.225  13.455  22.385  0.00  0.00     0.024 A 
ATOM      3  C   UNL d   1     -50.438  14.178  22.213  0.00  0.00     0.050 A 
ATOM      4  C   UNL d   1     -50.141  14.796  22.675  0.00  0.00     0.121 A 
ATOM      5  C   UNL d   1     -49.383  14.745  22.995  0.00  0.00     0.119 A 
ATOM      6  C   UNL d   1     -48.921  14.068  22.848  0.00  0.00     0.028 A 
ATOM      7  O   UNL d   1     -50.464  15.519  22.910  0.00  0.00    -0.299 OA
ATOM      8  O   UNL d   1     -49.235  15.427  23.423  0.00  0.00    -0.300 OA
ATOM      9  C   UNL d   1     -49.903  15.909  23.373  0.00  0.00     0.304 A 
ENDROOT
BRANCH   2  10
ATOM     10  C   UNL d   1     -48.774  12.787  22.238  0.00  0.00     0.011 C 
BRANCH  10  11
ATOM     11  C   UNL d   1     -48.030  12.704  22.604  0.00  0.00     0.116 A 
ATOM     12  C   UNL d   1     -47.353  13.003  22.234  0.00  0.00     0.288 A 
ATOM     13  N   UNL d   1     -46.620  12.924  22.591  0.00  0.00    -0.152 NA
ATOM     14  O   UNL d   1     -47.420  13.383  21.498  0.00  0.00    -0.265 OA
ATOM     15  C   UNL d   1     -46.561  12.548  23.317  0.00  0.00     0.374 A 
ATOM     16  N   UNL d   1     -47.238  12.249  23.688  0.00  0.00    -0.152 NA
ATOM     17  O   UNL d   1     -45.821  12.465  23.685  0.00  0.00    -0.242 OA
ATOM     18  C   UNL d   1     -47.971  12.329  23.329  0.00  0.00     0.288 A 
ATOM     19  O   UNL d   1     -48.646  12.032  23.698  0.00  0.00    -0.265 OA
ENDBRANCH  10  11
ENDBRANCH   2  10
BRANCH   1  20
ATOM     20  N   UNL d   1     -50.281  12.902  21.610  0.00  0.00    -0.114 N 
ATOM     21  O   UNL d   1     -50.163  12.903  20.792  0.00  0.00    -0.532 OA
ATOM     22  O   UNL d   1     -50.698  12.289  21.961  0.00  0.00    -0.532 OA
ENDBRANCH   1  20
TORSDOF 3
ENDMDL
MODEL 3
REMARK VINA RESULT:      -8.0      1.123      2.316
REMARK  3 active torsions:
REMARK  status: ('A' for Active; 'I' for Inactive)
REMARK    1  A    between atoms: C_7  and  C_1 
REMARK    2  A    between atoms: C_10  and  C_7 
REMARK    3  A    between atoms: N_8  and  C_9 
ROOT
ATOM      1  C   UNL d   1     -46.689  13.162  22.958  0.00  0.00     0.129 A 
ATOM      2  C   UNL d   1     -47.491  13.191  22.774  0.00  0.00     0.024 A 
ATOM      3  C   UNL d   1     -46.365  12.475  23.268  0.00  0.00     0.050 A 
ATOM      4  C   UNL d   1     -46.839  11.810  23.398  0.00  0.00     0.121 A 
ATOM      5  C   UNL d   1     -47.642  11.834  23.216  0.00  0.00     0.119 A 
ATOM      6  C   UNL d   1     -47.971  12.531  22.901  0.00  0.00     0.028 A 
ATOM      7  O   UNL d   1     -46.672  11.058  23.697  0.00  0.00    -0.299 OA
ATOM      8  O   UNL d   1     -47.972  11.107  23.399  0.00  0.00    -0.300 OA
ATOM      9  C   UNL d   1     -47.373  10.624  23.698  0.00  0.00     0.304 A 
ENDROOT
BRANCH   2  10
ATOM     10  C   UNL d   1     -47.810  13.880  22.465  0.00  0.00     0.011 C 
BRANCH  10  11
ATOM     11  C   UNL d   1     -48.621  13.908  22.278  0.00  0.00     0.116 A 
ATOM     12  C   UNL d   1     -49.162  14.202  22.832  0.00  0.00     0.288 A 
ATOM     13  N   UNL d   1     -49.960  14.231  22.651  0.00  0.00    -0.152 NA
ATOM     14  O   UNL d   1     -48.891  14.465  23.571  0.00  0.00    -0.265 OA
ATOM     15  C   UNL d   1     -50.222  13.969  21.920  0.00  0.00     0.374 A 
ATOM     16  N   UNL d   1     -49.681  13.676  21.366  0.00  0.00    -0.152 NA
ATOM     17  O   UNL d   1     -51.030  13.996  21.731  0.00  0.00    -0.242 OA
ATOM     18  C   UNL d   1     -48.882  13.647  21.547  0.00  0.00     0.288 A 
ATOM     19  O   UNL d   1     -48.344  13.355  20.996  0.00  0.00    -0.265 OA
ENDBRANCH  10  11
ENDBRANCH   2  10
BRANCH   1  20
ATOM     20  N   UNL d   1     -46.216  13.818  22.831  0.00  0.00    -0.114 N 
ATOM     21  O   UNL d   1     -46.183  14.421  23.395  0.00  0.00    -0.532 OA
ATOM     22  O   UNL d   1     -45.773  13.879  22.143  0.00  0.00    -0.532 OA
ENDBRANCH   1  20
TORSDOF 3
ENDMDL
MODEL 4
REMARK VINA RESULT:      -7.6      1.326      3.621
REMARK  3 active torsions:
REMARK  status: ('A' for Active; 'I' for Inactive)
REMARK    1  A    between atoms: C_7  and  C_1 
REMARK    2  A    between atoms: C_10  and  C_7 
REMARK    3  A    between atoms: N_8  and  C_9 
ROOT
ATOM      1  C   UNL d   1     -50.188  13.734  22.301  0.00  0.00     0.129 A 
ATOM      2  C   UNL d   1     -49.401  13.505  22.373  0.00  0.00     0.024 A 
ATOM      3  C   UNL d   1     -50.781  13.268  22.623  0.00  0.00     0.050 A 
ATOM      4  C   UNL d   1     -50.594  12.568  23.022  0.00  0.00     0.121 A 
ATOM      5  C   UNL d   1     -49.808  12.334  23.097  0.00  0.00     0.119 A 
ATOM      6  C   UNL d   1     -49.206  12.807  22.770  0.00  0.00     0.028 A 
ATOM      7  O   UNL d   1     -51.062  11.999  23.395  0.00  0.00    -0.299 OA
ATOM      8  O   UNL d   1     -49.785  11.628  23.512  0.00  0.00    -0.300 OA
ATOM      9  C   UNL d   1     -50.561  11.418  23.698  0.00  0.00     0.304 A 
ENDROOT
BRANCH   2  10
ATOM     10  C   UNL d   1     -48.812  13.974  22.049  0.00  0.00     0.011 C 
BRANCH  10  11
ATOM     11  C   UNL d   1     -48.013  13.801  22.211  0.00  0.00     0.116 A 
ATOM     12  C   UNL d   1     -47.602  13.266  21.731  0.00  0.00     0.288 A 
ATOM     13  N   UNL d   1     -46.817  13.094  21.888  0.00  0.00    -0.152 NA
ATOM     14  O   UNL d   1     -47.989  12.906  21.091  0.00  0.00    -0.265 OA
ATOM     15  C   UNL d   1     -46.440  13.452  22.522  0.00  0.00     0.374 A 
ATOM     16  N   UNL d   1     -46.852  13.986  23.002  0.00  0.00    -0.152 NA
ATOM     17  O   UNL d   1     -45.645  13.281  22.686  0.00  0.00    -0.242 OA
ATOM     18  C   UNL d   1     -47.638  14.159  22.844  0.00  0.00     0.288 A 
ATOM     19  O   UNL d   1     -48.048  14.691  23.322  0.00  0.00    -0.265 OA
ENDBRANCH  10  11
ENDBRANCH   2  10
BRANCH   1  20
ATOM     20  N   UNL d   1     -50.379  14.427  21.907  0.00  0.00    -0.114 N 
ATOM     21  O   UNL d   1     -50.520  14.415  21.093  0.00  0.00    -0.532 OA
ATOM     22  O   UNL d   1     -50.429  15.134  22.319  0.00  0.00    -0.532 OA
ENDBRANCH   1  20
TORSDOF 3
ENDMDL
MODEL 5
REMARK VINA RESULT:      -6.7      1.432      3.871
REMARK  3 active torsions:
REMARK  status: ('A' for Active; 'I' for Inactive)
REMARK    1  A    between atoms: C_7  and  C_1 
REMARK    2  A    between atoms: C_10  and  C_7 
REMARK    3  A    between atoms: N_8  and  C_9 
ROOT
ATOM      1  C   UNL d   1     -48.891  14.405  22.468  0.00  0.00     0.129 A 
ATOM      2  C   UNL d   1     -48.241  13.901  22.489  0.00  0.00     0.024 A 
ATOM      3  C   UNL d   1     -49.533  14.226  21.990  0.00  0.00     0.050 A 
ATOM      4  C   UNL d   1     -49.534  13.540  21.528  0.00  0.00     0.121 A 
ATOM      5  C   UNL d   1     -48.886  13.032  21.545  0.00  0.00     0.119 A 
ATOM      6  C   UNL d   1     -48.233  13.213  22.030  0.00  0.00     0.028 A 
ATOM      7  O   UNL d   1     -50.088  13.222  21.006  0.00  0.00    -0.299 OA
ATOM      8  O   UNL d   1     -49.034  12.404  21.040  0.00  0.00    -0.300 OA
ATOM      9  C   UNL d   1     -49.779  12.520  20.704  0.00  0.00     0.304 A 
ENDROOT
BRANCH   2  10
ATOM     10  C   UNL d   1     -47.601  14.084  22.968  0.00  0.00     0.011 C 
BRANCH  10  11
ATOM     11  C   UNL d   1     -46.922  13.603  22.947  0.00  0.00     0.116 A 
ATOM     12  C   UNL d   1     -46.240  13.868  22.560  0.00  0.00     0.288 A 
ATOM     13  N   UNL d   1     -45.571  13.397  22.538  0.00  0.00    -0.152 NA
ATOM     14  O   UNL d   1     -46.239  14.614  22.194  0.00  0.00    -0.265 OA
ATOM     15  C   UNL d   1     -45.578  12.662  22.901  0.00  0.00     0.374 A 
ATOM     16  N   UNL d   1     -46.260  12.397  23.288  0.00  0.00    -0.152 NA
ATOM     17  O   UNL d   1     -44.902  12.181  22.882  0.00  0.00    -0.242 OA
ATOM     18  C   UNL d   1     -46.930  12.869  23.310  0.00  0.00     0.288 A 
ATOM     19  O   UNL d   1     -47.609  12.605  23.695  0.00  0.00    -0.265 OA
ENDBRANCH  10  11
ENDBRANCH   2  10
BRANCH   1  20
ATOM     20  N   UNL d   1     -48.895  15.086  22.924  0.00  0.00    -0.114 N 
ATOM     21  O   UNL d   1     -48.589  15.791  22.620  0.00  0.00    -0.532 OA
ATOM     22  O   UNL d   1     -49.204  15.070  23.683  0.00  0.00    -0.532 OA
ENDBRANCH   1  20
TORSDOF 3
ENDMDL
MODEL 6
REMARK VINA RESULT:      -6.1      8.398      9.751
REMARK  3 active torsions:
REMARK  status: ('A' for Active; 'I' for Inactive)
REMARK    1  A    between atoms: C_7  and  C_1 
REMARK    2  A    between atoms: C_10  and  C_7 
REMARK    3  A    between atoms: N_8  and  C_9 
ROOT
ATOM      1  C   UNL d   1     -40.221  14.685  20.816  0.00  0.00     0.129 A 
ATOM      2  C   UNL d   1     -39.932  14.592  20.051  0.00  0.00     0.024 A 
ATOM      3  C   UNL d   1     -39.814  14.361  21.450  0.00  0.00     0.050 A 
ATOM      4  C   UNL d   1     -39.113  13.941  21.327  0.00  0.00     0.121 A 
ATOM      5  C   UNL d   1     -38.818  13.844  20.564  0.00  0.00     0.119 A 
ATOM      6  C   UNL d   1     -39.232  14.173  19.920  0.00  0.00     0.028 A 
ATOM      7  O   UNL d   1     -38.594  13.561  21.845  0.00  0.00    -0.299 OA
ATOM      8  O   UNL d   1     -38.125  13.410  20.605  0.00  0.00    -0.300 OA
ATOM      9  C   UNL d   1     -37.984  13.233  21.399  0.00  0.00     0.304 A 
ENDROOT
BRANCH   2  10
ATOM     10  C   UNL d   1     -40.342  14.917  19.421  0.00  0.00     0.011 C 
BRANCH  10  11
ATOM     11  C   UNL d   1     -40.063  14.801  18.645  0.00  0.00     0.116 A 
ATOM     12  C   UNL d   1     -40.361  14.178  18.188  0.00  0.00     0.288 A 
ATOM     13  N   UNL d   1     -40.088  14.061  17.425  0.00  0.00    -0.152 NA
ATOM     14  O   UNL d   1     -40.938  13.673  18.507  0.00  0.00    -0.265 OA
ATOM     15  C   UNL d   1     -39.518  14.563  17.115  0.00  0.00     0.374 A 
ATOM     16  N   UNL d   1     -39.220  15.185  17.572  0.00  0.00    -0.152 NA
ATOM     17  O   UNL d   1     -39.238  14.449  16.342  0.00  0.00    -0.242 OA
ATOM     18  C   UNL d   1     -39.494  15.302  18.336  0.00  0.00     0.288 A 
ATOM     19  O   UNL d   1     -39.197  15.922  18.791  0.00  0.00    -0.265 OA
ENDBRANCH  10  11
ENDBRANCH   2  10
BRANCH   1  20
ATOM     20  N   UNL d   1     -40.916  15.101  20.943  0.00  0.00    -0.114 N 
ATOM     21  O   UNL d   1     -40.896  15.922  21.034  0.00  0.00    -0.532 OA
ATOM     22  O   UNL d   1     -41.632  14.704  20.979  0.00  0.00    -0.532 OA
ENDBRANCH   1  20
TORSDOF 3
ENDMDL
