MODEL 1
REMARK VINA RESULT:      -3.3      0.000      0.000
REMARK  5 active torsions:
REMARK  status: ('A' for Active; 'I' for Inactive)
REMARK       I    between atoms: C_3  and  N_1 
REMARK    1  A    between atoms: C_5  and  N_1 
REMARK    2  A    between atoms: C_2  and  C_3 
REMARK    3  A    between atoms: N_10  and  C_5 
REMARK    4  A    between atoms: C_13  and  N_10 
REMARK    5  A    between atoms: C_14  and  C_13 
ROOT
ATOM      1  C   UNL d   1      31.990  17.221 -23.882  0.00  0.00     0.224 C 
ATOM      2  S   UNL d   1      32.529  16.818 -24.363  0.00  0.00    -0.037 SA
ENDROOT
BRANCH   1   3
ATOM      3  N   UNL d   1      32.153  17.992 -23.642  0.00  0.00    -0.177 NA
ATOM      4  C   UNL d   1      32.781  18.135 -23.121  0.00  0.00     0.304 C 
ATOM      5  O   UNL d   1      33.235  17.517 -22.845  0.00  0.00    -0.263 OA
BRANCH   4   6
ATOM      6  C   UNL d   1      32.944  18.905 -22.881  0.00  0.00     0.158 A 
ATOM      7  O   UNL d   1      32.961  19.181 -22.106  0.00  0.00    -0.296 OA
ATOM      8  C   UNL d   1      33.143  19.972 -22.114  0.00  0.00     0.134 A 
ATOM      9 BR   UNL d   1      33.217  20.462 -21.462  0.00  0.00    -0.022 Br
ATOM     10  C   UNL d   1      33.241  20.199 -22.897  0.00  0.00     0.034 A 
ATOM     11  C   UNL d   1      33.116  19.533 -23.377  0.00  0.00     0.032 A 
ENDBRANCH   4   6
ENDBRANCH   1   3
BRANCH   1  12
ATOM     12  N   UNL d   1      31.298  16.848 -23.648  0.00  0.00    -0.216 NA
BRANCH  12  13
ATOM     13  C   UNL d   1      30.750  16.630 -24.209  0.00  0.00     0.101 C 
BRANCH  13  14
ATOM     14  C   UNL d   1      30.002  16.389 -23.972  0.00  0.00     0.019 A 
ATOM     15  C   UNL d   1      29.906  15.701 -23.528  0.00  0.00     0.002 A 
ATOM     16  C   UNL d   1      29.152  15.464 -23.293  0.00  0.00     0.000 A 
ATOM     17  C   UNL d   1      28.492  15.916 -23.504  0.00  0.00     0.000 A 
ATOM     18  C   UNL d   1      28.588  16.604 -23.948  0.00  0.00     0.000 A 
ATOM     19  C   UNL d   1      29.342  16.841 -24.183  0.00  0.00     0.002 A 
ENDBRANCH  13  14
ENDBRANCH  12  13
ENDBRANCH   1  12
TORSDOF 5
ENDMDL
MODEL 2
REMARK VINA RESULT:      -2.3      2.045      4.697
REMARK  5 active torsions:
REMARK  status: ('A' for Active; 'I' for Inactive)
REMARK       I    between atoms: C_3  and  N_1 
REMARK    1  A    between atoms: C_5  and  N_1 
REMARK    2  A    between atoms: C_2  and  C_3 
REMARK    3  A    between atoms: N_10  and  C_5 
REMARK    4  A    between atoms: C_13  and  N_10 
REMARK    5  A    between atoms: C_14  and  C_13 
ROOT
ATOM      1  C   UNL d   1      32.787  18.933 -23.688  0.00  0.00     0.224 C 
ATOM      2  S   UNL d   1      33.241  19.111 -24.356  0.00  0.00    -0.037 SA
ENDROOT
BRANCH   1   3
ATOM      3  N   UNL d   1      32.132  18.440 -23.758  0.00  0.00    -0.177 NA
ATOM      4  C   UNL d   1      32.185  17.749 -24.214  0.00  0.00     0.304 C 
ATOM      5  O   UNL d   1      32.882  17.559 -24.591  0.00  0.00    -0.263 OA
BRANCH   4   6
ATOM      6  C   UNL d   1      31.530  17.256 -24.284  0.00  0.00     0.158 A 
ATOM      7  O   UNL d   1      30.849  17.411 -24.719  0.00  0.00    -0.296 OA
ATOM      8  C   UNL d   1      30.340  16.782 -24.640  0.00  0.00     0.134 A 
ATOM      9 BR   UNL d   1      29.599  16.709 -24.981  0.00  0.00    -0.022 Br
ATOM     10  C   UNL d   1      30.701  16.228 -24.154  0.00  0.00     0.034 A 
ATOM     11  C   UNL d   1      31.445  16.523 -23.931  0.00  0.00     0.032 A 
ENDBRANCH   4   6
ENDBRANCH   1   3
BRANCH   1  12
ATOM     12  N   UNL d   1      32.995  19.251 -22.961  0.00  0.00    -0.216 NA
BRANCH  12  13
ATOM     13  C   UNL d   1      33.155  20.047 -22.901  0.00  0.00     0.101 C 
BRANCH  13  14
ATOM     14  C   UNL d   1      33.152  20.407 -22.164  0.00  0.00     0.019 A 
ATOM     15  C   UNL d   1      33.241  19.955 -21.479  0.00  0.00     0.002 A 
ATOM     16  C   UNL d   1      33.237  20.323 -20.741  0.00  0.00     0.000 A 
ATOM     17  C   UNL d   1      33.143  21.143 -20.687  0.00  0.00     0.000 A 
ATOM     18  C   UNL d   1      33.054  21.594 -21.372  0.00  0.00     0.000 A 
ATOM     19  C   UNL d   1      33.059  21.227 -22.110  0.00  0.00     0.002 A 
ENDBRANCH  13  14
ENDBRANCH  12  13
ENDBRANCH   1  12
TORSDOF 5
ENDMDL
MODEL 3
REMARK VINA RESULT:      -1.9      2.399      3.416
REMARK  5 active torsions:
REMARK  status: ('A' for Active; 'I' for Inactive)
REMARK       I    between atoms: C_3  and  N_1 
REMARK    1  A    between atoms: C_5  and  N_1 
REMARK    2  A    between atoms: C_2  and  C_3 
REMARK    3  A    between atoms: N_10  and  C_5 
REMARK    4  A    between atoms: C_13  and  N_10 
REMARK    5  A    between atoms: C_14  and  C_13 
ROOT
ATOM      1  C   UNL d   1      33.118  19.707 -22.248  0.00  0.00     0.224 C 
ATOM      2  S   UNL d   1      33.241  19.320 -21.528  0.00  0.00    -0.037 SA
ENDROOT
BRANCH   1   3
ATOM      3  N   UNL d   1      33.197  20.525 -22.292  0.00  0.00    -0.177 NA
ATOM      4  C   UNL d   1      32.712  21.009 -21.826  0.00  0.00     0.304 C 
ATOM      5  O   UNL d   1      32.158  20.678 -21.327  0.00  0.00    -0.263 OA
BRANCH   4   6
ATOM      6  C   UNL d   1      32.791  21.827 -21.869  0.00  0.00     0.158 A 
ATOM      7  O   UNL d   1      33.021  22.260 -22.530  0.00  0.00    -0.296 OA
ATOM      8  C   UNL d   1      33.029  23.049 -22.337  0.00  0.00     0.134 A 
ATOM      9 BR   UNL d   1      33.225  23.670 -22.832  0.00  0.00    -0.022 Br
ATOM     10  C   UNL d   1      32.802  23.115 -21.550  0.00  0.00     0.034 A 
ATOM     11  C   UNL d   1      32.653  22.353 -21.257  0.00  0.00     0.032 A 
ENDBRANCH   4   6
ENDBRANCH   1   3
BRANCH   1  12
ATOM     12  N   UNL d   1      32.917  19.271 -22.914  0.00  0.00    -0.216 NA
BRANCH  12  13
ATOM     13  C   UNL d   1      32.809  18.467 -22.850  0.00  0.00     0.101 C 
BRANCH  13  14
ATOM     14  C   UNL d   1      32.628  18.027 -23.519  0.00  0.00     0.019 A 
ATOM     15  C   UNL d   1      33.218  17.832 -24.062  0.00  0.00     0.002 A 
ATOM     16  C   UNL d   1      33.030  17.390 -24.732  0.00  0.00     0.000 A 
ATOM     17  C   UNL d   1      32.251  17.143 -24.861  0.00  0.00     0.000 A 
ATOM     18  C   UNL d   1      31.662  17.339 -24.318  0.00  0.00     0.000 A 
ATOM     19  C   UNL d   1      31.850  17.780 -23.647  0.00  0.00     0.002 A 
ENDBRANCH  13  14
ENDBRANCH  12  13
ENDBRANCH   1  12
TORSDOF 5
ENDMDL
MODEL 4
REMARK VINA RESULT:      -1.2      2.444      4.681
REMARK  5 active torsions:
REMARK  status: ('A' for Active; 'I' for Inactive)
REMARK       I    between atoms: C_3  and  N_1 
REMARK    1  A    between atoms: C_5  and  N_1 
REMARK    2  A    between atoms: C_2  and  C_3 
REMARK    3  A    between atoms: N_10  and  C_5 
REMARK    4  A    between atoms: C_13  and  N_10 
REMARK    5  A    between atoms: C_14  and  C_13 
ROOT
ATOM      1  C   UNL d   1      31.158  16.166 -23.809  0.00  0.00     0.224 C 
ATOM      2  S   UNL d   1      31.608  15.472 -23.776  0.00  0.00    -0.037 SA
ENDROOT
BRANCH   1   3
ATOM      3  N   UNL d   1      30.355  16.125 -23.986  0.00  0.00    -0.177 NA
ATOM      4  C   UNL d   1      29.824  15.839 -23.417  0.00  0.00     0.304 C 
ATOM      5  O   UNL d   1      30.095  15.599 -22.687  0.00  0.00    -0.263 OA
BRANCH   4   6
ATOM      6  C   UNL d   1      29.022  15.797 -23.594  0.00  0.00     0.158 A 
ATOM      7  O   UNL d   1      28.406  16.089 -23.132  0.00  0.00    -0.296 OA
ATOM      8  C   UNL d   1      27.702  15.934 -23.506  0.00  0.00     0.134 A 
ATOM      9 BR   UNL d   1      26.954  16.129 -23.238  0.00  0.00    -0.022 Br
ATOM     10  C   UNL d   1      27.873  15.543 -24.208  0.00  0.00     0.034 A 
ATOM     11  C   UNL d   1      28.697  15.458 -24.264  0.00  0.00     0.032 A 
ENDBRANCH   4   6
ENDBRANCH   1   3
BRANCH   1  12
ATOM     12  N   UNL d   1      31.518  16.889 -23.665  0.00  0.00    -0.216 NA
BRANCH  12  13
ATOM     13  C   UNL d   1      31.907  17.272 -24.269  0.00  0.00     0.101 C 
BRANCH  13  14
ATOM     14  C   UNL d   1      32.340  17.949 -24.107  0.00  0.00     0.019 A 
ATOM     15  C   UNL d   1      32.568  18.124 -23.334  0.00  0.00     0.002 A 
ATOM     16  C   UNL d   1      33.004  18.807 -23.177  0.00  0.00     0.000 A 
ATOM     17  C   UNL d   1      33.212  19.316 -23.795  0.00  0.00     0.000 A 
ATOM     18  C   UNL d   1      32.984  19.141 -24.568  0.00  0.00     0.000 A 
ATOM     19  C   UNL d   1      32.548  18.459 -24.725  0.00  0.00     0.002 A 
ENDBRANCH  13  14
ENDBRANCH  12  13
ENDBRANCH   1  12
TORSDOF 5
ENDMDL
MODEL 5
REMARK VINA RESULT:      -0.8      3.022      5.497
REMARK  5 active torsions:
REMARK  status: ('A' for Active; 'I' for Inactive)
REMARK       I    between atoms: C_3  and  N_1 
REMARK    1  A    between atoms: C_5  and  N_1 
REMARK    2  A    between atoms: C_2  and  C_3 
REMARK    3  A    between atoms: N_10  and  C_5 
REMARK    4  A    between atoms: C_13  and  N_10 
REMARK    5  A    between atoms: C_14  and  C_13 
ROOT
ATOM      1  C   UNL d   1      33.063  20.620 -22.199  0.00  0.00     0.224 C 
ATOM      2  S   UNL d   1      32.953  21.044 -22.900  0.00  0.00    -0.037 SA
ENDROOT
BRANCH   1   3
ATOM      3  N   UNL d   1      33.055  19.797 -22.214  0.00  0.00    -0.177 NA
ATOM      4  C   UNL d   1      33.139  19.399 -22.936  0.00  0.00     0.304 C 
ATOM      5  O   UNL d   1      33.227  19.819 -23.629  0.00  0.00    -0.263 OA
BRANCH   4   6
ATOM      6  C   UNL d   1      33.131  18.576 -22.951  0.00  0.00     0.158 A 
ATOM      7  O   UNL d   1      33.013  18.103 -23.614  0.00  0.00    -0.296 OA
ATOM      8  C   UNL d   1      33.048  17.323 -23.387  0.00  0.00     0.134 A 
ATOM      9 BR   UNL d   1      32.960  16.670 -23.873  0.00  0.00    -0.022 Br
ATOM     10  C   UNL d   1      33.189  17.304 -22.579  0.00  0.00     0.034 A 
ATOM     11  C   UNL d   1      33.241  18.086 -22.305  0.00  0.00     0.032 A 
ENDBRANCH   4   6
ENDBRANCH   1   3
BRANCH   1  12
ATOM     12  N   UNL d   1      33.178  21.024 -21.494  0.00  0.00    -0.216 NA
BRANCH  12  13
ATOM     13  C   UNL d   1      32.547  21.391 -21.133  0.00  0.00     0.101 C 
BRANCH  13  14
ATOM     14  C   UNL d   1      32.684  21.975 -20.573  0.00  0.00     0.019 A 
ATOM     15  C   UNL d   1      32.410  22.743 -20.695  0.00  0.00     0.002 A 
ATOM     16  C   UNL d   1      32.551  23.325 -20.128  0.00  0.00     0.000 A 
ATOM     17  C   UNL d   1      32.967  23.138 -19.437  0.00  0.00     0.000 A 
ATOM     18  C   UNL d   1      33.241  22.370 -19.315  0.00  0.00     0.000 A 
ATOM     19  C   UNL d   1      33.100  21.788 -19.883  0.00  0.00     0.002 A 
ENDBRANCH  13  14
ENDBRANCH  12  13
ENDBRANCH   1  12
TORSDOF 5
ENDMDL
MODEL 6
REMARK VINA RESULT:      -0.4      5.566      6.810
REMARK  5 active torsions:
REMARK  status: ('A' for Active; 'I' for Inactive)
REMARK       I    between atoms: C_3  and  N_1 
REMARK    1  A    between atoms: C_5  and  N_1 
REMARK    2  A    between atoms: C_2  and  C_3 
REMARK    3  A    between atoms: N_10  and  C_5 
REMARK    4  A    between atoms: C_13  and  N_10 
REMARK    5  A    between atoms: C_14  and  C_13 
ROOT
ATOM      1  C   UNL d   1      32.828  21.817 -20.854  0.00  0.00     0.224 C 
ATOM      2  S   UNL d   1      32.520  21.061 -20.721  0.00  0.00    -0.037 SA
ENDROOT
BRANCH   1   3
ATOM      3  N   UNL d   1      33.005  22.058 -21.621  0.00  0.00    -0.177 NA
ATOM      4  C   UNL d   1      32.500  22.586 -22.012  0.00  0.00     0.304 C 
ATOM      5  O   UNL d   1      31.831  22.866 -21.641  0.00  0.00    -0.263 OA
BRANCH   4   6
ATOM      6  C   UNL d   1      32.677  22.826 -22.779  0.00  0.00     0.158 A 
ATOM      7  O   UNL d   1      32.892  22.337 -23.405  0.00  0.00    -0.296 OA
ATOM      8  C   UNL d   1      33.018  22.796 -24.063  0.00  0.00     0.134 A 
ATOM      9 BR   UNL d   1      33.241  22.532 -24.806  0.00  0.00    -0.022 Br
ATOM     10  C   UNL d   1      32.883  23.578 -23.853  0.00  0.00     0.034 A 
ATOM     11  C   UNL d   1      32.670  23.598 -23.051  0.00  0.00     0.032 A 
ENDBRANCH   4   6
ENDBRANCH   1   3
BRANCH   1  12
ATOM     12  N   UNL d   1      32.953  22.321 -20.218  0.00  0.00    -0.216 NA
BRANCH  12  13
ATOM     13  C   UNL d   1      33.186  22.013 -19.502  0.00  0.00     0.101 C 
BRANCH  13  14
ATOM     14  C   UNL d   1      33.101  22.463 -18.820  0.00  0.00     0.019 A 
ATOM     15  C   UNL d   1      32.879  23.256 -18.869  0.00  0.00     0.002 A 
ATOM     16  C   UNL d   1      32.795  23.702 -18.180  0.00  0.00     0.000 A 
ATOM     17  C   UNL d   1      32.933  23.355 -17.443  0.00  0.00     0.000 A 
ATOM     18  C   UNL d   1      33.156  22.563 -17.394  0.00  0.00     0.000 A 
ATOM     19  C   UNL d   1      33.240  22.116 -18.083  0.00  0.00     0.002 A 
ENDBRANCH  13  14
ENDBRANCH  12  13
ENDBRANCH   1  12
TORSDOF 5
ENDMDL
