MODEL 1
REMARK VINA RESULT:      -5.8      0.000      0.000
REMARK  5 active torsions:
REMARK  status: ('A' for Active; 'I' for Inactive)
REMARK    1  A    between atoms: O_4  and  C_1 
REMARK    2  A    between atoms: C_11  and  C_2 
REMARK    3  A    between atoms: C_5  and  O_4 
REMARK    4  A    between atoms: C_7  and  C_5 
REMARK    5  A    between atoms: N_10  and  C_11 
ROOT
ATOM      1  C   UNL d   1     -48.895  13.099  23.262  0.00  0.00     0.122 A 
ATOM      2  C   UNL d   1     -48.092  12.995  23.072  0.00  0.00     0.043 A 
ATOM      3  C   UNL d   1     -49.380  12.436  23.389  0.00  0.00     0.105 A 
ATOM      4  C   UNL d   1     -49.053  11.669  23.324  0.00  0.00     0.030 A 
ATOM      5  C   UNL d   1     -48.247  11.579  23.133  0.00  0.00     0.059 A 
ATOM      6  C   UNL d   1     -47.780  12.265  23.010  0.00  0.00     0.015 A 
ATOM      7  N   UNL d   1     -50.159  12.534  23.574  0.00  0.00    -0.242 NA
ATOM      8 CL   UNL d   1     -47.929  10.834  23.070  0.00  0.00    -0.082 Cl
ATOM      9  C   UNL d   1     -49.511  11.013  23.445  0.00  0.00     0.004 A 
ATOM     10  C   UNL d   1     -50.631  11.860  23.698  0.00  0.00     0.099 A 
ATOM     11  C   UNL d   1     -50.319  11.129  23.636  0.00  0.00     0.021 A 
ENDROOT
BRANCH   1  12
ATOM     12  O   UNL d   1     -49.215  13.848  23.325  0.00  0.00    -0.271 OA
BRANCH  12  13
ATOM     13  C   UNL d   1     -49.613  14.194  22.705  0.00  0.00     0.306 C 
ATOM     14  O   UNL d   1     -49.522  13.858  21.948  0.00  0.00    -0.258 OA
BRANCH  13  15
ATOM     15  C   UNL d   1     -50.083  14.845  22.827  0.00  0.00     0.093 A 
ATOM     16  S   UNL d   1     -50.049  15.325  23.462  0.00  0.00    -0.081 SA
ATOM     17  C   UNL d   1     -50.624  15.921  23.366  0.00  0.00     0.036 A 
ATOM     18  C   UNL d   1     -51.001  15.791  22.663  0.00  0.00     0.008 A 
ATOM     19  C   UNL d   1     -50.646  15.092  22.318  0.00  0.00     0.012 A 
ENDBRANCH  13  15
ENDBRANCH  12  13
ENDBRANCH   1  12
BRANCH   2  20
ATOM     20  C   UNL d   1     -47.591  13.661  22.941  0.00  0.00     0.082 C 
BRANCH  20  21
ATOM     21  N   UNL d   1     -46.800  13.535  22.674  0.00  0.00    -0.300 N 
ATOM     22  C   UNL d   1     -46.681  13.369  21.870  0.00  0.00     0.100 A 
ATOM     23  C   UNL d   1     -45.914  13.246  21.602  0.00  0.00     0.100 A 
ATOM     24  N   UNL d   1     -45.274  13.287  22.134  0.00  0.00    -0.299 N 
ATOM     25  C   UNL d   1     -45.428  13.451  22.910  0.00  0.00     0.100 A 
ATOM     26  C   UNL d   1     -44.493  13.165  21.879  0.00  0.00     0.100 C 
ATOM     27  C   UNL d   1     -46.176  13.576  23.193  0.00  0.00     0.100 A 
ENDBRANCH  20  21
ENDBRANCH   2  20
TORSDOF 5
ENDMDL
MODEL 2
REMARK VINA RESULT:      -5.6      9.363     10.687
REMARK  5 active torsions:
REMARK  status: ('A' for Active; 'I' for Inactive)
REMARK    1  A    between atoms: O_4  and  C_1 
REMARK    2  A    between atoms: C_11  and  C_2 
REMARK    3  A    between atoms: C_5  and  O_4 
REMARK    4  A    between atoms: C_7  and  C_5 
REMARK    5  A    between atoms: N_10  and  C_11 
ROOT
ATOM      1  C   UNL d   1     -39.622  14.520  18.684  0.00  0.00     0.122 A 
ATOM      2  C   UNL d   1     -39.351  14.587  19.468  0.00  0.00     0.043 A 
ATOM      3  C   UNL d   1     -40.305  14.928  18.445  0.00  0.00     0.105 A 
ATOM      4  C   UNL d   1     -40.715  15.403  19.000  0.00  0.00     0.030 A 
ATOM      5  C   UNL d   1     -40.433  15.461  19.782  0.00  0.00     0.059 A 
ATOM      6  C   UNL d   1     -39.741  15.039  19.996  0.00  0.00     0.015 A 
ATOM      7  N   UNL d   1     -40.570  14.866  17.687  0.00  0.00    -0.242 NA
ATOM      8 CL   UNL d   1     -40.831  15.922  20.319  0.00  0.00    -0.082 Cl
ATOM      9  C   UNL d   1     -41.382  15.807  18.784  0.00  0.00     0.004 A 
ATOM     10  C   UNL d   1     -41.256  15.281  17.464  0.00  0.00     0.099 A 
ATOM     11  C   UNL d   1     -41.646  15.733  17.992  0.00  0.00     0.021 A 
ENDROOT
BRANCH   1  12
ATOM     12  O   UNL d   1     -39.222  14.057  18.143  0.00  0.00    -0.271 OA
BRANCH  12  13
ATOM     13  C   UNL d   1     -38.640  14.367  17.665  0.00  0.00     0.306 C 
ATOM     14  O   UNL d   1     -38.338  15.119  17.859  0.00  0.00    -0.258 OA
BRANCH  13  15
ATOM     15  C   UNL d   1     -38.367  13.952  17.023  0.00  0.00     0.093 A 
ATOM     16  S   UNL d   1     -38.218  13.170  17.010  0.00  0.00    -0.081 SA
ATOM     17  C   UNL d   1     -37.949  12.972  16.246  0.00  0.00     0.036 A 
ATOM     18  C   UNL d   1     -37.940  13.647  15.804  0.00  0.00     0.008 A 
ATOM     19  C   UNL d   1     -38.212  14.280  16.312  0.00  0.00     0.012 A 
ENDBRANCH  13  15
ENDBRANCH  12  13
ENDBRANCH   1  12
BRANCH   2  20
ATOM     20  C   UNL d   1     -38.658  14.177  19.721  0.00  0.00     0.082 C 
BRANCH  20  21
ATOM     21  N   UNL d   1     -38.526  14.061  20.547  0.00  0.00    -0.300 N 
ATOM     22  C   UNL d   1     -38.820  13.368  20.895  0.00  0.00     0.100 A 
ATOM     23  C   UNL d   1     -38.696  13.247  21.698  0.00  0.00     0.100 A 
ATOM     24  N   UNL d   1     -38.282  13.814  22.147  0.00  0.00    -0.299 N 
ATOM     25  C   UNL d   1     -38.010  14.478  21.773  0.00  0.00     0.100 A 
ATOM     26  C   UNL d   1     -38.148  13.708  22.960  0.00  0.00     0.100 C 
ATOM     27  C   UNL d   1     -38.123  14.614  20.984  0.00  0.00     0.100 A 
ENDBRANCH  20  21
ENDBRANCH   2  20
TORSDOF 5
ENDMDL
MODEL 3
REMARK VINA RESULT:      -5.5      1.456      2.867
REMARK  5 active torsions:
REMARK  status: ('A' for Active; 'I' for Inactive)
REMARK    1  A    between atoms: O_4  and  C_1 
REMARK    2  A    between atoms: C_11  and  C_2 
REMARK    3  A    between atoms: C_5  and  O_4 
REMARK    4  A    between atoms: C_7  and  C_5 
REMARK    5  A    between atoms: N_10  and  C_11 
ROOT
ATOM      1  C   UNL d   1     -48.742  13.751  22.937  0.00  0.00     0.122 A 
ATOM      2  C   UNL d   1     -48.032  13.716  22.504  0.00  0.00     0.043 A 
ATOM      3  C   UNL d   1     -49.119  14.481  23.058  0.00  0.00     0.105 A 
ATOM      4  C   UNL d   1     -48.779  15.177  22.740  0.00  0.00     0.030 A 
ATOM      5  C   UNL d   1     -48.068  15.129  22.308  0.00  0.00     0.059 A 
ATOM      6  C   UNL d   1     -47.708  14.379  22.202  0.00  0.00     0.015 A 
ATOM      7  N   UNL d   1     -49.807  14.517  23.477  0.00  0.00    -0.242 NA
ATOM      8 CL   UNL d   1     -47.738  15.804  22.000  0.00  0.00    -0.082 Cl
ATOM      9  C   UNL d   1     -49.133  15.896  22.848  0.00  0.00     0.004 A 
ATOM     10  C   UNL d   1     -50.172  15.257  23.588  0.00  0.00     0.099 A 
ATOM     11  C   UNL d   1     -49.848  15.919  23.286  0.00  0.00     0.021 A 
ENDROOT
BRANCH   1  12
ATOM     12  O   UNL d   1     -49.074  13.071  23.247  0.00  0.00    -0.271 OA
BRANCH  12  13
ATOM     13  C   UNL d   1     -49.549  12.587  22.797  0.00  0.00     0.306 C 
ATOM     14  O   UNL d   1     -49.529  12.682  21.970  0.00  0.00    -0.258 OA
BRANCH  13  15
ATOM     15  C   UNL d   1     -50.024  12.030  23.149  0.00  0.00     0.093 A 
ATOM     16  S   UNL d   1     -50.786  12.138  23.351  0.00  0.00    -0.081 SA
ATOM     17  C   UNL d   1     -51.064  11.431  23.695  0.00  0.00     0.036 A 
ATOM     18  C   UNL d   1     -50.456  10.900  23.695  0.00  0.00     0.008 A 
ATOM     19  C   UNL d   1     -49.784  11.294  23.339  0.00  0.00     0.012 A 
ENDBRANCH  13  15
ENDBRANCH  12  13
ENDBRANCH   1  12
BRANCH   2  20
ATOM     20  C   UNL d   1     -47.641  12.980  22.376  0.00  0.00     0.082 C 
BRANCH  20  21
ATOM     21  N   UNL d   1     -46.798  12.964  22.333  0.00  0.00    -0.300 N 
ATOM     22  C   UNL d   1     -46.370  12.969  23.044  0.00  0.00     0.100 A 
ATOM     23  C   UNL d   1     -45.550  12.953  23.011  0.00  0.00     0.100 A 
ATOM     24  N   UNL d   1     -45.162  12.932  22.274  0.00  0.00    -0.299 N 
ATOM     25  C   UNL d   1     -45.611  12.927  21.602  0.00  0.00     0.100 A 
ATOM     26  C   UNL d   1     -44.333  12.915  22.223  0.00  0.00     0.100 C 
ATOM     27  C   UNL d   1     -46.420  12.943  21.614  0.00  0.00     0.100 A 
ENDBRANCH  20  21
ENDBRANCH   2  20
TORSDOF 5
ENDMDL
MODEL 4
REMARK VINA RESULT:      -4.7      0.943      1.238
REMARK  5 active torsions:
REMARK  status: ('A' for Active; 'I' for Inactive)
REMARK    1  A    between atoms: O_4  and  C_1 
REMARK    2  A    between atoms: C_11  and  C_2 
REMARK    3  A    between atoms: C_5  and  O_4 
REMARK    4  A    between atoms: C_7  and  C_5 
REMARK    5  A    between atoms: N_10  and  C_11 
ROOT
ATOM      1  C   UNL d   1     -47.918  12.892  22.754  0.00  0.00     0.122 A 
ATOM      2  C   UNL d   1     -47.106  12.767  22.888  0.00  0.00     0.043 A 
ATOM      3  C   UNL d   1     -48.465  12.292  22.930  0.00  0.00     0.105 A 
ATOM      4  C   UNL d   1     -48.191  11.565  23.243  0.00  0.00     0.030 A 
ATOM      5  C   UNL d   1     -47.376  11.453  23.373  0.00  0.00     0.059 A 
ATOM      6  C   UNL d   1     -46.846  12.075  23.185  0.00  0.00     0.015 A 
ATOM      7  N   UNL d   1     -49.252  12.410  22.801  0.00  0.00    -0.242 NA
ATOM      8 CL   UNL d   1     -47.110  10.748  23.676  0.00  0.00    -0.082 Cl
ATOM      9  C   UNL d   1     -48.710  10.971  23.421  0.00  0.00     0.004 A 
ATOM     10  C   UNL d   1     -49.786  11.799  22.984  0.00  0.00     0.099 A 
ATOM     11  C   UNL d   1     -49.525  11.107  23.282  0.00  0.00     0.021 A 
ENDROOT
BRANCH   1  12
ATOM     12  O   UNL d   1     -48.185  13.601  22.448  0.00  0.00    -0.271 OA
BRANCH  12  13
ATOM     13  C   UNL d   1     -48.330  14.243  22.929  0.00  0.00     0.306 C 
ATOM     14  O   UNL d   1     -47.966  14.259  23.678  0.00  0.00    -0.258 OA
BRANCH  13  15
ATOM     15  C   UNL d   1     -48.815  14.845  22.680  0.00  0.00     0.093 A 
ATOM     16  S   UNL d   1     -49.451  15.117  23.075  0.00  0.00    -0.081 SA
ATOM     17  C   UNL d   1     -49.788  15.733  22.627  0.00  0.00     0.036 A 
ATOM     18  C   UNL d   1     -49.344  15.825  21.958  0.00  0.00     0.008 A 
ATOM     19  C   UNL d   1     -48.715  15.246  21.998  0.00  0.00     0.012 A 
ENDBRANCH  13  15
ENDBRANCH  12  13
ENDBRANCH   1  12
BRANCH   2  20
ATOM     20  C   UNL d   1     -46.543  13.369  22.712  0.00  0.00     0.082 C 
BRANCH  20  21
ATOM     21  N   UNL d   1     -45.792  13.151  22.393  0.00  0.00    -0.300 N 
ATOM     22  C   UNL d   1     -45.671  13.248  21.578  0.00  0.00     0.100 A 
ATOM     23  C   UNL d   1     -44.944  13.038  21.260  0.00  0.00     0.100 A 
ATOM     24  N   UNL d   1     -44.344  12.734  21.752  0.00  0.00    -0.299 N 
ATOM     25  C   UNL d   1     -44.498  12.654  22.542  0.00  0.00     0.100 A 
ATOM     26  C   UNL d   1     -43.602  12.517  21.447  0.00  0.00     0.100 C 
ATOM     27  C   UNL d   1     -45.207  12.855  22.874  0.00  0.00     0.100 A 
ENDBRANCH  20  21
ENDBRANCH   2  20
TORSDOF 5
ENDMDL
MODEL 5
REMARK VINA RESULT:      -3.7      6.637      9.779
REMARK  5 active torsions:
REMARK  status: ('A' for Active; 'I' for Inactive)
REMARK    1  A    between atoms: O_4  and  C_1 
REMARK    2  A    between atoms: C_11  and  C_2 
REMARK    3  A    between atoms: C_5  and  O_4 
REMARK    4  A    between atoms: C_7  and  C_5 
REMARK    5  A    between atoms: N_10  and  C_11 
ROOT
ATOM      1  C   UNL d   1     -39.595  14.471  20.146  0.00  0.00     0.122 A 
ATOM      2  C   UNL d   1     -40.426  14.516  20.149  0.00  0.00     0.043 A 
ATOM      3  C   UNL d   1     -39.186  14.386  19.427  0.00  0.00     0.105 A 
ATOM      4  C   UNL d   1     -39.618  14.347  18.712  0.00  0.00     0.030 A 
ATOM      5  C   UNL d   1     -40.450  14.394  18.728  0.00  0.00     0.059 A 
ATOM      6  C   UNL d   1     -40.837  14.479  19.468  0.00  0.00     0.015 A 
ATOM      7  N   UNL d   1     -38.382  14.342  19.421  0.00  0.00    -0.242 NA
ATOM      8 CL   UNL d   1     -40.870  14.356  18.034  0.00  0.00    -0.082 Cl
ATOM      9  C   UNL d   1     -39.237  14.265  18.003  0.00  0.00     0.004 A 
ATOM     10  C   UNL d   1     -37.989  14.257  18.693  0.00  0.00     0.099 A 
ATOM     11  C   UNL d   1     -38.400  14.220  18.011  0.00  0.00     0.021 A 
ENDROOT
BRANCH   1  12
ATOM     12  O   UNL d   1     -39.173  14.508  20.845  0.00  0.00    -0.271 OA
BRANCH  12  13
ATOM     13  C   UNL d   1     -38.980  15.222  21.187  0.00  0.00     0.306 C 
ATOM     14  O   UNL d   1     -39.212  15.918  20.792  0.00  0.00    -0.258 OA
BRANCH  13  15
ATOM     15  C   UNL d   1     -38.574  15.248  21.889  0.00  0.00     0.093 A 
ATOM     16  S   UNL d   1     -38.348  14.613  22.314  0.00  0.00    -0.081 SA
ATOM     17  C   UNL d   1     -37.949  14.885  22.993  0.00  0.00     0.036 A 
ATOM     18  C   UNL d   1     -37.940  15.693  22.967  0.00  0.00     0.008 A 
ATOM     19  C   UNL d   1     -38.346  15.922  22.250  0.00  0.00     0.012 A 
ENDBRANCH  13  15
ENDBRANCH  12  13
ENDBRANCH   1  12
BRANCH   2  20
ATOM     20  C   UNL d   1     -40.850  14.602  20.873  0.00  0.00     0.082 C 
BRANCH  20  21
ATOM     21  N   UNL d   1     -41.529  14.120  21.013  0.00  0.00    -0.300 N 
ATOM     22  C   UNL d   1     -42.276  14.481  20.986  0.00  0.00     0.100 A 
ATOM     23  C   UNL d   1     -42.941  14.019  21.121  0.00  0.00     0.100 A 
ATOM     24  N   UNL d   1     -42.860  13.206  21.281  0.00  0.00    -0.299 N 
ATOM     25  C   UNL d   1     -42.117  12.889  21.299  0.00  0.00     0.100 A 
ATOM     26  C   UNL d   1     -43.523  12.725  21.420  0.00  0.00     0.100 C 
ATOM     27  C   UNL d   1     -41.449  13.327  21.169  0.00  0.00     0.100 A 
ENDBRANCH  20  21
ENDBRANCH   2  20
TORSDOF 5
ENDMDL
