MODEL 1
REMARK VINA RESULT:      73.1      0.000      0.000
REMARK  5 active torsions:
REMARK  status: ('A' for Active; 'I' for Inactive)
REMARK    1  A    between atoms: C_5  and  C_1 
REMARK       I    between atoms: N_7  and  C_5 
REMARK    2  A    between atoms: C_10  and  N_7 
REMARK    3  A    between atoms: S_15  and  C_14 
REMARK    4  A    between atoms: C_20  and  S_15 
REMARK    5  A    between atoms: C_16  and  C_20 
ROOT
ATOM      1  N   UNL d   1     -47.955  33.422  33.928  0.00  0.00    -0.191 NA
ATOM      2  C   UNL d   1     -48.028  32.590  33.919  0.00  0.00     0.102 C 
ATOM      3  C   UNL d   1     -48.101  31.769  33.918  0.00  0.00     0.085 C 
ENDROOT
BRANCH   3   4
ATOM      4  C   UNL d   1     -48.136  31.354  34.625  0.00  0.00     0.046 C 
BRANCH   4   5
ATOM      5  S   UNL d   1     -48.105  30.524  34.621  0.00  0.00    -0.084 SA
BRANCH   5   6
ATOM      6  C   UNL d   1     -47.591  30.128  35.138  0.00  0.00     0.047 A 
ATOM      7  C   UNL d   1     -47.713  29.333  35.304  0.00  0.00     0.091 A 
ATOM      8  C   UNL d   1     -47.206  28.931  35.819  0.00  0.00     0.020 A 
ATOM      9  C   UNL d   1     -46.575  29.328  36.167  0.00  0.00     0.002 A 
ATOM     10  C   UNL d   1     -46.450  30.132  36.000  0.00  0.00     0.001 A 
ATOM     11  C   UNL d   1     -46.960  30.525  35.486  0.00  0.00     0.008 A 
BRANCH   7  12
ATOM     12  N   UNL d   1     -48.346  28.932  34.956  0.00  0.00    -0.206 NA
ATOM     13  C   UNL d   1     -48.292  28.126  34.824  0.00  0.00     0.302 C 
ATOM     14  O   UNL d   1     -47.613  27.711  35.034  0.00  0.00    -0.263 OA
BRANCH  13  15
ATOM     15  C   UNL d   1     -48.929  27.718  34.473  0.00  0.00     0.161 A 
ATOM     16  C   UNL d   1     -49.609  28.117  34.256  0.00  0.00     0.072 A 
ATOM     17  C   UNL d   1     -50.235  27.703  33.908  0.00  0.00     0.200 A 
ATOM     18  O   UNL d   1     -50.927  28.102  33.687  0.00  0.00    -0.286 OA
ATOM     19  C   UNL d   1     -50.170  26.895  33.782  0.00  0.00     0.062 A 
ATOM     20  C   UNL d   1     -49.490  26.491  33.997  0.00  0.00     0.103 A 
ATOM     21  C   UNL d   1     -50.797  26.476  33.433  0.00  0.00     0.005 A 
ATOM     22  O   UNL d   1     -48.863  26.910  34.346  0.00  0.00    -0.302 OA
ATOM     23  C   UNL d   1     -49.417  25.677  33.873  0.00  0.00     0.025 A 
ATOM     24  C   UNL d   1     -50.043  25.266  33.526  0.00  0.00     0.002 A 
ATOM     25  C   UNL d   1     -50.731  25.667  33.307  0.00  0.00     0.000 A 
ENDBRANCH  13  15
ENDBRANCH   7  12
ENDBRANCH   5   6
ENDBRANCH   4   5
ENDBRANCH   3   4
TORSDOF 5
ENDMDL
MODEL 2
REMARK VINA RESULT:      76.0      4.420      6.652
REMARK  5 active torsions:
REMARK  status: ('A' for Active; 'I' for Inactive)
REMARK    1  A    between atoms: C_5  and  C_1 
REMARK       I    between atoms: N_7  and  C_5 
REMARK    2  A    between atoms: C_10  and  N_7 
REMARK    3  A    between atoms: S_15  and  C_14 
REMARK    4  A    between atoms: C_20  and  S_15 
REMARK    5  A    between atoms: C_16  and  C_20 
ROOT
ATOM      1  N   UNL d   1     -49.332  26.206  33.499  0.00  0.00    -0.191 NA
ATOM      2  C   UNL d   1     -50.154  26.101  33.401  0.00  0.00     0.102 C 
ATOM      3  C   UNL d   1     -50.966  25.989  33.306  0.00  0.00     0.085 C 
ENDROOT
BRANCH   3   4
ATOM      4  C   UNL d   1     -51.297  25.244  33.403  0.00  0.00     0.046 C 
BRANCH   4   5
ATOM      5  S   UNL d   1     -51.742  25.074  34.084  0.00  0.00    -0.084 SA
BRANCH   5   6
ATOM      6  C   UNL d   1     -52.361  24.524  34.045  0.00  0.00     0.047 A 
ATOM      7  C   UNL d   1     -52.821  24.379  34.710  0.00  0.00     0.091 A 
ATOM      8  C   UNL d   1     -53.440  23.832  34.680  0.00  0.00     0.020 A 
ATOM      9  C   UNL d   1     -53.599  23.430  33.980  0.00  0.00     0.002 A 
ATOM     10  C   UNL d   1     -53.135  23.575  33.306  0.00  0.00     0.001 A 
ATOM     11  C   UNL d   1     -52.520  24.121  33.345  0.00  0.00     0.008 A 
BRANCH   7  12
ATOM     12  N   UNL d   1     -52.664  24.781  35.414  0.00  0.00    -0.206 NA
ATOM     13  C   UNL d   1     -52.895  24.455  36.128  0.00  0.00     0.302 C 
ATOM     14  O   UNL d   1     -53.283  23.730  36.151  0.00  0.00    -0.263 OA
BRANCH  13  15
ATOM     15  C   UNL d   1     -52.738  24.859  36.840  0.00  0.00     0.161 A 
ATOM     16  C   UNL d   1     -53.121  24.648  37.531  0.00  0.00     0.072 A 
ATOM     17  C   UNL d   1     -52.958  25.055  38.233  0.00  0.00     0.200 A 
ATOM     18  O   UNL d   1     -53.343  24.846  38.936  0.00  0.00    -0.286 OA
ATOM     19  C   UNL d   1     -52.413  25.668  38.231  0.00  0.00     0.062 A 
ATOM     20  C   UNL d   1     -52.026  25.884  37.542  0.00  0.00     0.103 A 
ATOM     21  C   UNL d   1     -52.247  26.079  38.934  0.00  0.00     0.005 A 
ATOM     22  O   UNL d   1     -52.193  25.473  36.839  0.00  0.00    -0.302 OA
ATOM     23  C   UNL d   1     -51.476  26.500  37.533  0.00  0.00     0.025 A 
ATOM     24  C   UNL d   1     -51.315  26.905  38.234  0.00  0.00     0.002 A 
ATOM     25  C   UNL d   1     -51.701  26.693  38.932  0.00  0.00     0.000 A 
ENDBRANCH  13  15
ENDBRANCH   7  12
ENDBRANCH   5   6
ENDBRANCH   4   5
ENDBRANCH   3   4
TORSDOF 5
ENDMDL
