MODEL 1
REMARK VINA RESULT:      53.0      0.000      0.000
REMARK  2 active torsions:
REMARK  status: ('A' for Active; 'I' for Inactive)
REMARK    1  A    between atoms: N_7  and  C_1 
REMARK       I    between atoms: C_8  and  N_7 
REMARK    2  A    between atoms: C_10  and  C_8 
ROOT
ATOM      1  C   UNL d   1     -51.247  24.901  33.312  0.00  0.00     0.159 A 
ATOM      2  N   UNL d   1     -52.401  24.041  33.313  0.00  0.00    -0.257 N 
ATOM      3  C   UNL d   1     -52.893  24.711  33.315  0.00  0.00     0.150 A 
ATOM      4  C   UNL d   1     -51.578  24.148  33.311  0.00  0.00     0.285 A 
ATOM      5  N   UNL d   1     -52.569  25.481  33.315  0.00  0.00    -0.226 NA
ATOM      6  C   UNL d   1     -51.746  25.575  33.314  0.00  0.00     0.105 A 
ATOM      7  C   UNL d   1     -53.707  24.627  33.316  0.00  0.00     0.035 A 
ATOM      8  C   UNL d   1     -52.721  23.297  33.312  0.00  0.00     0.085 A 
ATOM      9  O   UNL d   1     -51.087  23.477  33.309  0.00  0.00    -0.265 OA
ATOM     10  C   UNL d   1     -53.544  23.202  33.313  0.00  0.00     0.019 A 
ATOM     11  C   UNL d   1     -54.038  23.851  33.315  0.00  0.00     0.004 A 
ATOM     12  C   UNL d   1     -51.417  26.321  33.314  0.00  0.00     0.022 C 
ATOM     13  C   UNL d   1     -54.207  25.274  33.318  0.00  0.00     0.003 C 
ENDROOT
BRANCH   1  14
ATOM     14  N   UNL d   1     -50.424  24.997  33.311  0.00  0.00    -0.202 NA
ATOM     15  C   UNL d   1     -50.098  25.728  33.525  0.00  0.00     0.279 C 
ATOM     16  O   UNL d   1     -49.510  25.191  33.336  0.00  0.00    -0.265 OA
BRANCH  15  17
ATOM     17  C   UNL d   1     -49.900  26.498  33.755  0.00  0.00     0.060 A 
ATOM     18  C   UNL d   1     -49.443  26.611  34.428  0.00  0.00     0.031 A 
ATOM     19  C   UNL d   1     -49.245  27.381  34.658  0.00  0.00     0.119 A 
ATOM     20  O   UNL d   1     -48.802  27.670  35.296  0.00  0.00    -0.300 OA
ATOM     21  C   UNL d   1     -49.501  28.027  34.219  0.00  0.00     0.119 A 
ATOM     22  C   UNL d   1     -48.786  28.500  35.249  0.00  0.00     0.304 A 
ATOM     23  O   UNL d   1     -49.228  28.716  34.568  0.00  0.00    -0.300 OA
ATOM     24  C   UNL d   1     -49.964  27.905  33.538  0.00  0.00     0.026 A 
ATOM     25  C   UNL d   1     -50.163  27.139  33.306  0.00  0.00     0.007 A 
ENDBRANCH  15  17
ENDBRANCH   1  14
TORSDOF 2
ENDMDL
MODEL 2
REMARK VINA RESULT:      55.8      1.010      1.593
REMARK  2 active torsions:
REMARK  status: ('A' for Active; 'I' for Inactive)
REMARK    1  A    between atoms: N_7  and  C_1 
REMARK       I    between atoms: C_8  and  N_7 
REMARK    2  A    between atoms: C_10  and  C_8 
ROOT
ATOM      1  C   UNL d   1     -50.626  26.139  33.307  0.00  0.00     0.159 A 
ATOM      2  N   UNL d   1     -51.257  24.844  33.307  0.00  0.00    -0.257 N 
ATOM      3  C   UNL d   1     -52.001  25.214  33.307  0.00  0.00     0.150 A 
ATOM      4  C   UNL d   1     -50.575  25.317  33.306  0.00  0.00     0.285 A 
ATOM      5  N   UNL d   1     -52.067  26.047  33.307  0.00  0.00    -0.226 NA
ATOM      6  C   UNL d   1     -51.379  26.508  33.307  0.00  0.00     0.105 A 
ATOM      7  C   UNL d   1     -52.687  24.765  33.307  0.00  0.00     0.035 A 
ATOM      8  C   UNL d   1     -51.200  24.036  33.306  0.00  0.00     0.085 A 
ATOM      9  O   UNL d   1     -49.831  24.946  33.306  0.00  0.00    -0.265 OA
ATOM     10  C   UNL d   1     -51.888  23.574  33.307  0.00  0.00     0.019 A 
ATOM     11  C   UNL d   1     -52.624  23.925  33.307  0.00  0.00     0.004 A 
ATOM     12  C   UNL d   1     -51.429  27.321  33.307  0.00  0.00     0.022 C 
ATOM     13  C   UNL d   1     -53.427  25.111  33.308  0.00  0.00     0.003 C 
ENDROOT
BRANCH   1  14
ATOM     14  N   UNL d   1     -49.939  26.601  33.306  0.00  0.00    -0.202 NA
ATOM     15  C   UNL d   1     -49.690  26.960  34.011  0.00  0.00     0.279 C 
ATOM     16  O   UNL d   1     -49.179  27.137  33.396  0.00  0.00    -0.265 OA
BRANCH  15  17
ATOM     17  C   UNL d   1     -49.548  27.261  34.768  0.00  0.00     0.060 A 
ATOM     18  C   UNL d   1     -49.022  27.885  34.861  0.00  0.00     0.031 A 
ATOM     19  C   UNL d   1     -48.881  28.185  35.620  0.00  0.00     0.119 A 
ATOM     20  O   UNL d   1     -48.393  28.798  35.888  0.00  0.00    -0.300 OA
ATOM     21  C   UNL d   1     -49.261  27.865  36.273  0.00  0.00     0.119 A 
ATOM     22  C   UNL d   1     -48.473  28.855  36.714  0.00  0.00     0.304 A 
ATOM     23  O   UNL d   1     -49.022  28.263  36.947  0.00  0.00    -0.300 OA
ATOM     24  C   UNL d   1     -49.793  27.232  36.172  0.00  0.00     0.026 A 
ATOM     25  C   UNL d   1     -49.936  26.930  35.418  0.00  0.00     0.007 A 
ENDBRANCH  15  17
ENDBRANCH   1  14
TORSDOF 2
ENDMDL
