MODEL 1
REMARK VINA RESULT:       7.7      0.000      0.000
REMARK  6 active torsions:
REMARK  status: ('A' for Active; 'I' for Inactive)
REMARK    1  A    between atoms: C_13  and  C_3 
REMARK    2  A    between atoms: S_12  and  C_4 
REMARK    3  A    between atoms: C_8  and  C_6 
REMARK    4  A    between atoms: O_17  and  C_8 
REMARK    5  A    between atoms: C_10  and  C_16 
REMARK    6  A    between atoms: C_16  and  S_12 
ROOT
ATOM      1  O   UNL d   1      46.249 -17.819  43.692  0.00  0.00    -0.263 OA
ATOM      2  N   UNL d   1      46.270 -18.908  44.462  0.00  0.00    -0.120 NA
ATOM      3  C   UNL d   1      46.318 -18.647  43.690  0.00  0.00     0.205 A 
ATOM      4  C   UNL d   1      46.159 -17.582  44.479  0.00  0.00     0.236 A 
ATOM      5  N   UNL d   1      46.172 -18.251  44.953  0.00  0.00    -0.114 NA
ENDROOT
BRANCH   4   6
ATOM      6  S   UNL d   1      46.069 -16.799  44.755  0.00  0.00    -0.039 SA
BRANCH   6   7
ATOM      7  C   UNL d   1      46.314 -16.164  44.287  0.00  0.00     0.064 C 
BRANCH   7   8
ATOM      8  C   UNL d   1      45.964 -15.425  44.386  0.00  0.00     0.107 A 
ATOM      9  O   UNL d   1      46.187 -14.668  44.140  0.00  0.00    -0.301 OA
ATOM     10  C   UNL d   1      45.606 -14.131  44.407  0.00  0.00     0.163 A 
ATOM     11  C   UNL d   1      45.037 -14.565  44.812  0.00  0.00     0.032 A 
ATOM     12  C   UNL d   1      45.248 -15.353  44.803  0.00  0.00     0.027 A 
BRANCH  10  13
ATOM     13  C   UNL d   1      45.602 -13.311  44.287  0.00  0.00     0.319 C 
ATOM     14  O   UNL d   1      46.124 -12.831  44.717  0.00  0.00    -0.257 OA
BRANCH  13  15
ATOM     15  O   UNL d   1      45.085 -12.968  43.743  0.00  0.00    -0.294 OA
ATOM     16  C   UNL d   1      45.255 -12.231  43.405  0.00  0.00     0.185 C 
ENDBRANCH  13  15
ENDBRANCH  10  13
ENDBRANCH   7   8
ENDBRANCH   6   7
ENDBRANCH   4   6
BRANCH   3  17
ATOM     17  C   UNL d   1      46.416 -19.078  42.991  0.00  0.00     0.046 A 
ATOM     18  C   UNL d   1      46.492 -18.681  42.277  0.00  0.00     0.024 A 
ATOM     19  C   UNL d   1      46.590 -19.103  41.576  0.00  0.00     0.099 A 
ATOM     20  N   UNL d   1      46.613 -19.928  41.585  0.00  0.00    -0.242 NA
ATOM     21  C   UNL d   1      46.536 -20.329  42.308  0.00  0.00     0.099 A 
ATOM     22  C   UNL d   1      46.438 -19.903  43.004  0.00  0.00     0.024 A 
ENDBRANCH   3  17
TORSDOF 6
ENDMDL
MODEL 2
REMARK VINA RESULT:       8.6      1.840      5.302
REMARK  6 active torsions:
REMARK  status: ('A' for Active; 'I' for Inactive)
REMARK    1  A    between atoms: C_13  and  C_3 
REMARK    2  A    between atoms: S_12  and  C_4 
REMARK    3  A    between atoms: C_8  and  C_6 
REMARK    4  A    between atoms: O_17  and  C_8 
REMARK    5  A    between atoms: C_10  and  C_16 
REMARK    6  A    between atoms: C_16  and  S_12 
ROOT
ATOM      1  O   UNL d   1      46.034 -15.096  44.712  0.00  0.00    -0.263 OA
ATOM      2  N   UNL d   1      44.717 -14.970  44.542  0.00  0.00    -0.120 NA
ATOM      3  C   UNL d   1      45.421 -14.557  44.555  0.00  0.00     0.205 A 
ATOM      4  C   UNL d   1      45.690 -15.843  44.793  0.00  0.00     0.236 A 
ATOM      5  N   UNL d   1      44.881 -15.766  44.689  0.00  0.00    -0.114 NA
ENDROOT
BRANCH   4   6
ATOM      6  S   UNL d   1      46.089 -16.558  44.954  0.00  0.00    -0.039 SA
BRANCH   6   7
ATOM      7  C   UNL d   1      45.692 -17.279  44.880  0.00  0.00     0.064 C 
BRANCH   7   8
ATOM      8  C   UNL d   1      45.999 -17.865  44.389  0.00  0.00     0.107 A 
ATOM      9  O   UNL d   1      45.990 -17.964  43.569  0.00  0.00    -0.301 OA
ATOM     10  C   UNL d   1      46.395 -18.671  43.391  0.00  0.00     0.163 A 
ATOM     11  C   UNL d   1      46.647 -18.996  44.103  0.00  0.00     0.032 A 
ATOM     12  C   UNL d   1      46.410 -18.511  44.715  0.00  0.00     0.027 A 
BRANCH  10  13
ATOM     13  C   UNL d   1      46.521 -18.989  42.636  0.00  0.00     0.319 C 
ATOM     14  O   UNL d   1      46.645 -18.482  41.992  0.00  0.00    -0.257 OA
BRANCH  13  15
ATOM     15  O   UNL d   1      46.525 -19.806  42.519  0.00  0.00    -0.294 OA
ATOM     16  C   UNL d   1      46.351 -20.127  41.775  0.00  0.00     0.185 C 
ENDBRANCH  13  15
ENDBRANCH  10  13
ENDBRANCH   7   8
ENDBRANCH   6   7
ENDBRANCH   4   6
BRANCH   3  17
ATOM     17  C   UNL d   1      45.563 -13.750  44.441  0.00  0.00     0.046 A 
ATOM     18  C   UNL d   1      45.205 -13.360  43.813  0.00  0.00     0.024 A 
ATOM     19  C   UNL d   1      45.342 -12.557  43.693  0.00  0.00     0.099 A 
ATOM     20  N   UNL d   1      45.839 -12.136  44.201  0.00  0.00    -0.242 NA
ATOM     21  C   UNL d   1      46.200 -12.531  44.835  0.00  0.00     0.099 A 
ATOM     22  C   UNL d   1      46.061 -13.333  44.951  0.00  0.00     0.024 A 
ENDBRANCH   3  17
TORSDOF 6
ENDMDL
