MODEL 1
REMARK VINA RESULT:      60.7      0.000      0.000
REMARK  7 active torsions:
REMARK  status: ('A' for Active; 'I' for Inactive)
REMARK    1  A    between atoms: C_8  and  C_2 
REMARK    2  A    between atoms: C_12  and  N_3 
REMARK    3  A    between atoms: C_6  and  C_4 
REMARK       I    between atoms: C_7  and  N_13 
REMARK    4  A    between atoms: C_9  and  C_7 
REMARK    5  A    between atoms: N_13  and  C_8 
REMARK    6  A    between atoms: C_11  and  C_9 
REMARK    7  A    between atoms: C_10  and  C_11 
ROOT
ATOM      1  N   UNL d   1     -59.362 -99.068 -44.953  0.00  0.00    -0.165 NA
ATOM      2  C   UNL d   1     -57.958 -98.868 -45.016  0.00  0.00     0.071 A 
ATOM      3  N   UNL d   1     -58.719 -99.003 -46.217  0.00  0.00    -0.228 N 
ATOM      4  C   UNL d   1     -58.638 -98.956 -44.579  0.00  0.00     0.105 A 
ATOM      5  C   UNL d   1     -57.995 -98.891 -45.844  0.00  0.00     0.105 A 
ENDROOT
BRANCH   2   6
ATOM      6  C   UNL d   1     -57.235 -98.755 -44.642  0.00  0.00     0.168 C 
BRANCH   6   7
ATOM      7  N   UNL d   1     -56.549 -99.124 -44.937  0.00  0.00    -0.362 NA
ATOM      8  C   UNL d   1     -55.857 -99.498 -45.230  0.00  0.00     0.329 C 
ATOM      9  O   UNL d   1     -55.482 -99.206 -45.917  0.00  0.00    -0.251 OA
BRANCH   8  10
ATOM     10  C   UNL d   1     -55.540-100.167 -44.833  0.00  0.00     0.082 C 
BRANCH  10  11
ATOM     11  C   UNL d   1     -55.019-100.688 -45.240  0.00  0.00     0.076 C 
BRANCH  11  12
ATOM     12  C   UNL d   1     -55.088-101.512 -45.137  0.00  0.00     0.211 C 
ATOM     13  O   UNL d   1     -55.187-101.998 -45.810  0.00  0.00    -0.644 OA
ATOM     14  O   UNL d   1     -55.056-101.834 -44.374  0.00  0.00    -0.644 OA
ENDBRANCH  11  12
ENDBRANCH  10  11
ENDBRANCH   8  10
ENDBRANCH   6   7
ENDBRANCH   2   6
BRANCH   4  15
ATOM     15  C   UNL d   1     -58.610 -98.934 -43.750  0.00  0.00     0.020 A 
ATOM     16  C   UNL d   1     -59.298 -98.905 -43.324  0.00  0.00     0.008 A 
ATOM     17  C   UNL d   1     -59.268 -98.883 -42.504  0.00  0.00     0.035 A 
ATOM     18 BR   UNL d   1     -59.957 -98.853 -42.067  0.00  0.00    -0.049 Br
ATOM     19  C   UNL d   1     -58.527 -98.892 -42.123  0.00  0.00     0.007 A 
ATOM     20  C   UNL d   1     -57.833 -98.921 -42.556  0.00  0.00     0.001 A 
ATOM     21  C   UNL d   1     -57.874 -98.943 -43.370  0.00  0.00     0.002 A 
ENDBRANCH   4  15
BRANCH   3  22
ATOM     22  C   UNL d   1     -58.969 -99.056 -46.994  0.00  0.00     0.083 A 
ATOM     23  C   UNL d   1     -59.699 -99.394 -47.155  0.00  0.00     0.019 A 
ATOM     24  C   UNL d   1     -59.952 -99.448 -47.941  0.00  0.00     0.002 A 
ATOM     25  C   UNL d   1     -59.474 -99.164 -48.551  0.00  0.00     0.000 A 
ATOM     26  C   UNL d   1     -58.742 -98.826 -48.377  0.00  0.00     0.002 A 
ATOM     27  C   UNL d   1     -58.494 -98.774 -47.598  0.00  0.00     0.019 A 
ENDBRANCH   3  22
TORSDOF 7
ENDMDL
