MODEL 1
REMARK VINA RESULT:      66.6      0.000      0.000
REMARK  10 active torsions:
REMARK  status: ('A' for Active; 'I' for Inactive)
REMARK    1  A    between atoms: C_8  and  S_1 
REMARK    2  A    between atoms: N_18  and  S_1 
REMARK    3  A    between atoms: S_2  and  C_9 
REMARK    4  A    between atoms: N_19  and  S_2 
REMARK    5  A    between atoms: C_23  and  N_18 
REMARK    6  A    between atoms: C_24  and  N_19 
REMARK    7  A    between atoms: C_27  and  C_23 
REMARK    8  A    between atoms: C_28  and  C_24 
REMARK    9  A    between atoms: O_25  and  C_27 
REMARK   10  A    between atoms: O_26  and  C_28 
ROOT
ATOM      1  C   UNL d   1     -49.892  27.298  34.973  0.00  0.00     0.040 A 
ATOM      2  C   UNL d   1     -50.662  26.299  34.497  0.00  0.00     0.040 A 
ATOM      3  C   UNL d   1     -50.637  26.921  35.058  0.00  0.00     0.196 A 
ATOM      4  C   UNL d   1     -49.936  26.326  34.100  0.00  0.00     0.003 A 
ATOM      5  C   UNL d   1     -49.470  26.943  34.399  0.00  0.00     0.003 A 
ATOM      6  C   UNL d   1     -48.816  28.215  35.195  0.00  0.00     0.105 A 
ATOM      7  C   UNL d   1     -51.080  25.192  33.716  0.00  0.00     0.105 A 
ATOM      8  C   UNL d   1     -49.572  27.944  35.385  0.00  0.00     0.016 A 
ATOM      9  C   UNL d   1     -51.236  25.741  34.315  0.00  0.00     0.016 A 
ATOM     10  C   UNL d   1     -49.796  25.759  33.494  0.00  0.00     0.001 A 
ATOM     11  C   UNL d   1     -48.717  27.214  34.211  0.00  0.00     0.001 A 
ATOM     12  O   UNL d   1     -51.239  27.118  35.591  0.00  0.00    -0.287 OA
ATOM     13  C   UNL d   1     -50.369  25.197  33.308  0.00  0.00     0.013 A 
ATOM     14  C   UNL d   1     -48.402  27.849  34.615  0.00  0.00     0.013 A 
ENDROOT
BRANCH   6  15
ATOM     15  S   UNL d   1     -48.493  28.873  35.616  0.00  0.00     0.285 S 
ATOM     16  O   UNL d   1     -48.286  29.241  34.881  0.00  0.00    -0.198 OA
ATOM     17  O   UNL d   1     -48.704  28.495  36.311  0.00  0.00    -0.198 OA
BRANCH  15  18
ATOM     18  N   UNL d   1     -48.182  29.507  36.024  0.00  0.00    -0.155 NA
BRANCH  18  19
ATOM     19  C   UNL d   1     -47.637  30.031  35.668  0.00  0.00     0.138 C 
BRANCH  19  20
ATOM     20  C   UNL d   1     -47.228  30.593  36.113  0.00  0.00     0.138 C 
BRANCH  20  21
ATOM     21  O   UNL d   1     -46.720  31.107  35.759  0.00  0.00    -0.325 OA
ATOM     22  C   UNL d   1     -46.991  31.670  35.235  0.00  0.00     0.182 C 
ENDBRANCH  20  21
ENDBRANCH  19  20
ENDBRANCH  18  19
ENDBRANCH  15  18
ENDBRANCH   6  15
BRANCH   7  23
ATOM     23  S   UNL d   1     -51.652  24.606  33.508  0.00  0.00     0.285 S 
ATOM     24  O   UNL d   1     -51.085  24.001  33.670  0.00  0.00    -0.198 OA
ATOM     25  O   UNL d   1     -52.200  25.225  33.353  0.00  0.00    -0.198 OA
BRANCH  23  26
ATOM     26  N   UNL d   1     -52.209  24.049  33.306  0.00  0.00    -0.155 NA
BRANCH  26  27
ATOM     27  C   UNL d   1     -52.913  23.987  33.731  0.00  0.00     0.138 C 
BRANCH  27  28
ATOM     28  C   UNL d   1     -53.223  23.265  33.901  0.00  0.00     0.138 C 
BRANCH  28  29
ATOM     29  O   UNL d   1     -54.046  23.192  34.050  0.00  0.00    -0.325 OA
ATOM     30  C   UNL d   1     -54.583  23.706  33.734  0.00  0.00     0.182 C 
ENDBRANCH  28  29
ENDBRANCH  27  28
ENDBRANCH  26  27
ENDBRANCH  23  26
ENDBRANCH   7  23
TORSDOF 10
ENDMDL
MODEL 2
REMARK VINA RESULT:      67.7      1.396      6.517
REMARK  10 active torsions:
REMARK  status: ('A' for Active; 'I' for Inactive)
REMARK    1  A    between atoms: C_8  and  S_1 
REMARK    2  A    between atoms: N_18  and  S_1 
REMARK    3  A    between atoms: S_2  and  C_9 
REMARK    4  A    between atoms: N_19  and  S_2 
REMARK    5  A    between atoms: C_23  and  N_18 
REMARK    6  A    between atoms: C_24  and  N_19 
REMARK    7  A    between atoms: C_27  and  C_23 
REMARK    8  A    between atoms: C_28  and  C_24 
REMARK    9  A    between atoms: O_25  and  C_27 
REMARK   10  A    between atoms: O_26  and  C_28 
ROOT
ATOM      1  C   UNL d   1     -49.915  27.820  33.988  0.00  0.00     0.040 A 
ATOM      2  C   UNL d   1     -49.234  28.941  34.297  0.00  0.00     0.040 A 
ATOM      3  C   UNL d   1     -49.886  28.649  33.859  0.00  0.00     0.196 A 
ATOM      4  C   UNL d   1     -48.900  28.281  34.669  0.00  0.00     0.003 A 
ATOM      5  C   UNL d   1     -49.325  27.597  34.474  0.00  0.00     0.003 A 
ATOM      6  C   UNL d   1     -50.357  26.462  33.903  0.00  0.00     0.105 A 
ATOM      7  C   UNL d   1     -48.261  29.795  34.875  0.00  0.00     0.105 A 
ATOM      8  C   UNL d   1     -50.446  27.254  33.691  0.00  0.00     0.016 A 
ATOM      9  C   UNL d   1     -48.926  29.696  34.392  0.00  0.00     0.016 A 
ATOM     10  C   UNL d   1     -48.225  28.403  35.156  0.00  0.00     0.001 A 
ATOM     11  C   UNL d   1     -49.238  26.808  34.683  0.00  0.00     0.001 A 
ATOM     12  O   UNL d   1     -50.398  29.101  33.391  0.00  0.00    -0.287 OA
ATOM     13  C   UNL d   1     -47.911  29.159  35.255  0.00  0.00     0.013 A 
ATOM     14  C   UNL d   1     -49.759  26.251  34.392  0.00  0.00     0.013 A 
ENDROOT
BRANCH   6  15
ATOM     15  S   UNL d   1     -50.898  25.887  33.600  0.00  0.00     0.285 S 
ATOM     16  O   UNL d   1     -51.547  26.342  33.897  0.00  0.00    -0.198 OA
ATOM     17  O   UNL d   1     -50.251  25.467  33.323  0.00  0.00    -0.198 OA
BRANCH  15  18
ATOM     18  N   UNL d   1     -51.417  25.331  33.306  0.00  0.00    -0.155 NA
BRANCH  18  19
ATOM     19  C   UNL d   1     -51.460  24.560  33.626  0.00  0.00     0.138 C 
BRANCH  19  20
ATOM     20  C   UNL d   1     -52.158  24.269  33.954  0.00  0.00     0.138 C 
BRANCH  20  21
ATOM     21  O   UNL d   1     -52.696  23.879  33.498  0.00  0.00    -0.325 OA
ATOM     22  C   UNL d   1     -53.042  23.188  33.758  0.00  0.00     0.182 C 
ENDBRANCH  20  21
ENDBRANCH  19  20
ENDBRANCH  18  19
ENDBRANCH  15  18
ENDBRANCH   6  15
BRANCH   7  23
ATOM     23  S   UNL d   1     -47.923  30.561  34.991  0.00  0.00     0.285 S 
ATOM     24  O   UNL d   1     -48.562  30.904  34.558  0.00  0.00    -0.198 OA
ATOM     25  O   UNL d   1     -47.296  30.197  35.419  0.00  0.00    -0.198 OA
BRANCH  23  26
ATOM     26  N   UNL d   1     -47.590  31.293  35.107  0.00  0.00    -0.155 NA
BRANCH  26  27
ATOM     27  C   UNL d   1     -46.937  31.532  34.664  0.00  0.00     0.138 C 
BRANCH  27  28
ATOM     28  C   UNL d   1     -47.031  32.016  34.029  0.00  0.00     0.138 C 
BRANCH  28  29
ATOM     29  O   UNL d   1     -47.257  32.815  34.146  0.00  0.00    -0.325 OA
ATOM     30  C   UNL d   1     -47.660  33.231  33.583  0.00  0.00     0.182 C 
ENDBRANCH  28  29
ENDBRANCH  27  28
ENDBRANCH  26  27
ENDBRANCH  23  26
ENDBRANCH   7  23
TORSDOF 10
ENDMDL
MODEL 3
REMARK VINA RESULT:      69.0      1.195      1.493
REMARK  10 active torsions:
REMARK  status: ('A' for Active; 'I' for Inactive)
REMARK    1  A    between atoms: C_8  and  S_1 
REMARK    2  A    between atoms: N_18  and  S_1 
REMARK    3  A    between atoms: S_2  and  C_9 
REMARK    4  A    between atoms: N_19  and  S_2 
REMARK    5  A    between atoms: C_23  and  N_18 
REMARK    6  A    between atoms: C_24  and  N_19 
REMARK    7  A    between atoms: C_27  and  C_23 
REMARK    8  A    between atoms: C_28  and  C_24 
REMARK    9  A    between atoms: O_25  and  C_27 
REMARK   10  A    between atoms: O_26  and  C_28 
ROOT
ATOM      1  C   UNL d   1     -49.256  28.458  34.371  0.00  0.00     0.040 A 
ATOM      2  C   UNL d   1     -50.054  27.426  34.031  0.00  0.00     0.040 A 
ATOM      3  C   UNL d   1     -50.006  28.263  34.049  0.00  0.00     0.196 A 
ATOM      4  C   UNL d   1     -49.335  27.155  34.341  0.00  0.00     0.003 A 
ATOM      5  C   UNL d   1     -48.852  27.795  34.547  0.00  0.00     0.003 A 
ATOM      6  C   UNL d   1     -48.160  29.249  34.840  0.00  0.00     0.105 A 
ATOM      7  C   UNL d   1     -50.508  26.097  33.840  0.00  0.00     0.105 A 
ATOM      8  C   UNL d   1     -48.917  29.203  34.515  0.00  0.00     0.016 A 
ATOM      9  C   UNL d   1     -50.641  26.911  33.780  0.00  0.00     0.016 A 
ATOM     10  C   UNL d   1     -49.219  26.323  34.394  0.00  0.00     0.001 A 
ATOM     11  C   UNL d   1     -48.099  27.844  34.871  0.00  0.00     0.001 A 
ATOM     12  O   UNL d   1     -50.594  28.788  33.795  0.00  0.00    -0.287 OA
ATOM     13  C   UNL d   1     -49.806  25.801  34.143  0.00  0.00     0.013 A 
ATOM     14  C   UNL d   1     -47.765  28.574  35.013  0.00  0.00     0.013 A 
ENDROOT
BRANCH   6  15
ATOM     15  S   UNL d   1     -47.816  30.008  34.986  0.00  0.00     0.285 S 
ATOM     16  O   UNL d   1     -48.574  30.307  35.217  0.00  0.00    -0.198 OA
ATOM     17  O   UNL d   1     -47.095  29.692  34.758  0.00  0.00    -0.198 OA
BRANCH  15  18
ATOM     18  N   UNL d   1     -47.482  30.738  35.126  0.00  0.00    -0.155 NA
BRANCH  18  19
ATOM     19  C   UNL d   1     -47.886  31.446  34.943  0.00  0.00     0.138 C 
BRANCH  19  20
ATOM     20  C   UNL d   1     -47.547  32.184  35.090  0.00  0.00     0.138 C 
BRANCH  20  21
ATOM     21  O   UNL d   1     -47.288  32.646  34.484  0.00  0.00    -0.325 OA
ATOM     22  C   UNL d   1     -47.488  32.475  33.712  0.00  0.00     0.182 C 
ENDBRANCH  20  21
ENDBRANCH  19  20
ENDBRANCH  18  19
ENDBRANCH  15  18
ENDBRANCH   6  15
BRANCH   7  23
ATOM     23  S   UNL d   1     -51.095  25.544  33.589  0.00  0.00     0.285 S 
ATOM     24  O   UNL d   1     -50.495  24.956  33.499  0.00  0.00    -0.198 OA
ATOM     25  O   UNL d   1     -51.675  26.145  33.686  0.00  0.00    -0.198 OA
BRANCH  23  26
ATOM     26  N   UNL d   1     -51.666  25.018  33.349  0.00  0.00    -0.155 NA
BRANCH  26  27
ATOM     27  C   UNL d   1     -52.464  25.173  33.487  0.00  0.00     0.138 C 
BRANCH  27  28
ATOM     28  C   UNL d   1     -52.951  24.593  33.757  0.00  0.00     0.138 C 
BRANCH  28  29
ATOM     29  O   UNL d   1     -52.975  23.853  33.360  0.00  0.00    -0.325 OA
ATOM     30  C   UNL d   1     -53.577  23.327  33.475  0.00  0.00     0.182 C 
ENDBRANCH  28  29
ENDBRANCH  27  28
ENDBRANCH  26  27
ENDBRANCH  23  26
ENDBRANCH   7  23
TORSDOF 10
ENDMDL
