MODEL 1
REMARK VINA RESULT:       0.5      0.000      0.000
REMARK  3 active torsions:
REMARK  status: ('A' for Active; 'I' for Inactive)
REMARK    1  A    between atoms: C_4  and  C_1 
REMARK    2  A    between atoms: C_9  and  N_2 
REMARK    3  A    between atoms: C_8  and  N_3 
ROOT
ATOM      1  C   UNL d   1      58.811  -0.022  30.507  0.00  0.00     0.139 A 
ATOM      2  N   UNL d   1      58.464   0.230  31.211  0.00  0.00    -0.290 N 
ATOM      3  N   UNL d   1      59.587   0.258  30.482  0.00  0.00    -0.290 N 
ATOM      4  C   UNL d   1      59.017   0.662  31.620  0.00  0.00     0.101 A 
ATOM      5  C   UNL d   1      59.704   0.681  31.179  0.00  0.00     0.101 A 
ENDROOT
BRANCH   2   6
ATOM      6  C   UNL d   1      57.699   0.115  31.532  0.00  0.00     0.066 A 
ATOM      7  C   UNL d   1      57.527  -0.541  31.985  0.00  0.00     0.018 A 
ATOM      8  C   UNL d   1      56.781  -0.648  32.295  0.00  0.00     0.002 A 
ATOM      9  C   UNL d   1      56.193  -0.087  32.149  0.00  0.00     0.000 A 
ATOM     10  C   UNL d   1      56.364   0.571  31.695  0.00  0.00     0.002 A 
ATOM     11  C   UNL d   1      57.116   0.680  31.382  0.00  0.00     0.018 A 
ENDBRANCH   2   6
BRANCH   1  12
ATOM     12  C   UNL d   1      58.420  -0.480  29.936  0.00  0.00     0.063 A 
ATOM     13  S   UNL d   1      58.540  -1.301  30.130  0.00  0.00    -0.083 SA
ATOM     14  C   UNL d   1      58.145  -1.745  29.554  0.00  0.00     0.035 A 
ATOM     15  C   UNL d   1      57.791  -1.238  29.020  0.00  0.00     0.008 A 
ATOM     16  C   UNL d   1      57.956  -0.448  29.249  0.00  0.00     0.010 A 
ENDBRANCH   1  12
BRANCH   3  17
ATOM     17  C   UNL d   1      60.069   0.092  29.842  0.00  0.00     0.066 A 
ATOM     18  C   UNL d   1      60.001   0.517  29.141  0.00  0.00     0.018 A 
ATOM     19  C   UNL d   1      60.499   0.334  28.504  0.00  0.00     0.002 A 
ATOM     20  C   UNL d   1      61.052  -0.258  28.561  0.00  0.00     0.000 A 
ATOM     21  C   UNL d   1      61.133  -0.698  29.264  0.00  0.00     0.002 A 
ATOM     22  C   UNL d   1      60.641  -0.521  29.904  0.00  0.00     0.018 A 
ENDBRANCH   3  17
TORSDOF 3
ENDMDL
MODEL 2
REMARK VINA RESULT:       2.6      2.110      3.088
REMARK  3 active torsions:
REMARK  status: ('A' for Active; 'I' for Inactive)
REMARK    1  A    between atoms: C_4  and  C_1 
REMARK    2  A    between atoms: C_9  and  N_2 
REMARK    3  A    between atoms: C_8  and  N_3 
ROOT
ATOM      1  C   UNL d   1      59.797  -2.046  29.279  0.00  0.00     0.139 A 
ATOM      2  N   UNL d   1      59.778  -1.234  29.422  0.00  0.00    -0.290 N 
ATOM      3  N   UNL d   1      60.569  -2.315  29.393  0.00  0.00    -0.290 N 
ATOM      4  C   UNL d   1      60.530  -1.000  29.622  0.00  0.00     0.101 A 
ATOM      5  C   UNL d   1      61.015  -1.656  29.606  0.00  0.00     0.101 A 
ENDROOT
BRANCH   2   6
ATOM      6  C   UNL d   1      59.157  -0.674  29.392  0.00  0.00     0.066 A 
ATOM      7  C   UNL d   1      58.705  -0.512  30.051  0.00  0.00     0.018 A 
ATOM      8  C   UNL d   1      58.101   0.034  30.017  0.00  0.00     0.002 A 
ATOM      9  C   UNL d   1      57.945   0.428  29.309  0.00  0.00     0.000 A 
ATOM     10  C   UNL d   1      58.398   0.267  28.648  0.00  0.00     0.002 A 
ATOM     11  C   UNL d   1      59.006  -0.283  28.680  0.00  0.00     0.018 A 
ENDBRANCH   2   6
BRANCH   1  12
ATOM     12  C   UNL d   1      59.133  -2.493  29.060  0.00  0.00     0.063 A 
ATOM     13  S   UNL d   1      58.573  -2.467  29.702  0.00  0.00    -0.083 SA
ATOM     14  C   UNL d   1      57.918  -2.915  29.470  0.00  0.00     0.035 A 
ATOM     15  C   UNL d   1      58.049  -3.212  28.720  0.00  0.00     0.008 A 
ATOM     16  C   UNL d   1      58.802  -2.955  28.456  0.00  0.00     0.010 A 
ENDBRANCH   1  12
BRANCH   3  17
ATOM     17  C   UNL d   1      60.754  -3.105  29.290  0.00  0.00     0.066 A 
ATOM     18  C   UNL d   1      60.775  -3.439  28.538  0.00  0.00     0.018 A 
ATOM     19  C   UNL d   1      60.965  -4.241  28.455  0.00  0.00     0.002 A 
ATOM     20  C   UNL d   1      61.130  -4.703  29.102  0.00  0.00     0.000 A 
ATOM     21  C   UNL d   1      61.113  -4.380  29.871  0.00  0.00     0.002 A 
ATOM     22  C   UNL d   1      60.924  -3.581  29.962  0.00  0.00     0.018 A 
ENDBRANCH   3  17
TORSDOF 3
ENDMDL
