MODEL 1
REMARK VINA RESULT:      -7.2      0.000      0.000
REMARK  6 active torsions:
REMARK  status: ('A' for Active; 'I' for Inactive)
REMARK    1  A    between atoms: N_2  and  S_1 
REMARK    2  A    between atoms: N_3  and  S_1 
REMARK    3  A    between atoms: C_9  and  N_3 
REMARK    4  A    between atoms: C_4  and  C_7 
REMARK    5  A    between atoms: O_12  and  C_4 
REMARK    6  A    between atoms: C_17  and  O_12 
ROOT
ATOM      1  C   UNL d   1     -46.288  12.104  23.213  0.00  0.00     0.064 A 
ATOM      2  C   UNL d   1     -47.099  13.512  22.893  0.00  0.00     0.095 A 
ATOM      3  C   UNL d   1     -46.039  12.591  22.584  0.00  0.00     0.007 A 
ATOM      4  C   UNL d   1     -46.939  12.312  23.694  0.00  0.00     0.007 A 
ATOM      5  C   UNL d   1     -47.344  13.028  23.529  0.00  0.00     0.020 A 
ATOM      6  C   UNL d   1     -46.447  13.294  22.422  0.00  0.00     0.020 A 
ENDROOT
BRANCH   2   7
ATOM      7  N   UNL d   1     -47.506  14.232  22.738  0.00  0.00    -0.144 NA
BRANCH   7   8
ATOM      8  S   UNL d   1     -48.294  14.219  22.496  0.00  0.00     0.351 S 
ATOM      9  O   UNL d   1     -48.464  14.398  23.281  0.00  0.00    -0.180 OA
ATOM     10  O   UNL d   1     -48.124  14.041  21.710  0.00  0.00    -0.180 OA
BRANCH   8  11
ATOM     11  N   UNL d   1     -49.098  14.222  22.321  0.00  0.00    -0.215 N 
ATOM     12  C   UNL d   1     -49.330  13.721  21.702  0.00  0.00     0.093 C 
ATOM     13  C   UNL d   1     -50.090  13.581  21.417  0.00  0.00     0.020 C 
ATOM     14  C   UNL d   1     -50.785  13.985  21.601  0.00  0.00     0.002 C 
ATOM     15  C   UNL d   1     -50.894  14.623  22.110  0.00  0.00     0.002 C 
ATOM     16  C   UNL d   1     -50.330  15.014  22.561  0.00  0.00     0.020 C 
ATOM     17  C   UNL d   1     -49.515  14.867  22.619  0.00  0.00     0.093 C 
ENDBRANCH   8  11
ENDBRANCH   7   8
ENDBRANCH   2   7
BRANCH   1  18
ATOM     18  C   UNL d   1     -45.884  11.394  23.355  0.00  0.00     0.300 C 
ATOM     19  O   UNL d   1     -46.316  10.706  23.505  0.00  0.00    -0.259 OA
BRANCH  18  20
ATOM     20  O   UNL d   1     -45.062  11.379  23.346  0.00  0.00    -0.271 OA
BRANCH  20  21
ATOM     21  C   UNL d   1     -44.652  10.683  23.518  0.00  0.00     0.126 C 
ATOM     22  C   UNL d   1     -43.846  10.624  23.365  0.00  0.00     0.029 C 
ENDBRANCH  20  21
ENDBRANCH  18  20
ENDBRANCH   1  18
TORSDOF 6
ENDMDL
MODEL 2
REMARK VINA RESULT:      -6.0      8.194      9.733
REMARK  6 active torsions:
REMARK  status: ('A' for Active; 'I' for Inactive)
REMARK    1  A    between atoms: N_2  and  S_1 
REMARK    2  A    between atoms: N_3  and  S_1 
REMARK    3  A    between atoms: C_9  and  N_3 
REMARK    4  A    between atoms: C_4  and  C_7 
REMARK    5  A    between atoms: O_12  and  C_4 
REMARK    6  A    between atoms: C_17  and  O_12 
ROOT
ATOM      1  C   UNL d   1     -40.186  15.201  20.620  0.00  0.00     0.064 A 
ATOM      2  C   UNL d   1     -40.436  14.770  19.041  0.00  0.00     0.095 A 
ATOM      3  C   UNL d   1     -40.015  15.743  20.011  0.00  0.00     0.007 A 
ATOM      4  C   UNL d   1     -40.488  14.440  20.453  0.00  0.00     0.007 A 
ATOM      5  C   UNL d   1     -40.615  14.228  19.651  0.00  0.00     0.020 A 
ATOM      6  C   UNL d   1     -40.137  15.526  19.221  0.00  0.00     0.020 A 
ENDROOT
BRANCH   2   7
ATOM      7  N   UNL d   1     -40.572  14.553  18.239  0.00  0.00    -0.144 NA
BRANCH   7   8
ATOM      8  S   UNL d   1     -39.951  14.282  17.771  0.00  0.00     0.351 S 
ATOM      9  O   UNL d   1     -39.923  15.054  17.486  0.00  0.00    -0.180 OA
ATOM     10  O   UNL d   1     -39.978  13.510  18.056  0.00  0.00    -0.180 OA
BRANCH   8  11
ATOM     11  N   UNL d   1     -39.325  14.077  17.277  0.00  0.00    -0.215 N 
ATOM     12  C   UNL d   1     -39.239  14.544  16.597  0.00  0.00     0.093 C 
ATOM     13  C   UNL d   1     -38.657  14.496  16.016  0.00  0.00     0.020 C 
ATOM     14  C   UNL d   1     -38.090  13.907  15.911  0.00  0.00     0.002 C 
ATOM     15  C   UNL d   1     -37.963  13.225  16.355  0.00  0.00     0.002 C 
ATOM     16  C   UNL d   1     -38.376  12.966  17.016  0.00  0.00     0.020 C 
ATOM     17  C   UNL d   1     -39.020  13.322  17.402  0.00  0.00     0.093 C 
ENDBRANCH   8  11
ENDBRANCH   7   8
ENDBRANCH   2   7
BRANCH   1  18
ATOM     18  C   UNL d   1     -40.043  15.421  21.407  0.00  0.00     0.300 C 
ATOM     19  O   UNL d   1     -40.577  15.921  21.790  0.00  0.00    -0.259 OA
BRANCH  18  20
ATOM     20  O   UNL d   1     -39.376  15.142  21.797  0.00  0.00    -0.271 OA
BRANCH  20  21
ATOM     21  C   UNL d   1     -39.131  15.481  22.509  0.00  0.00     0.126 C 
ATOM     22  C   UNL d   1     -38.402  15.288  22.836  0.00  0.00     0.029 C 
ENDBRANCH  20  21
ENDBRANCH  18  20
ENDBRANCH   1  18
TORSDOF 6
ENDMDL
MODEL 3
REMARK VINA RESULT:      -5.7      8.081      9.436
REMARK  6 active torsions:
REMARK  status: ('A' for Active; 'I' for Inactive)
REMARK    1  A    between atoms: N_2  and  S_1 
REMARK    2  A    between atoms: N_3  and  S_1 
REMARK    3  A    between atoms: C_9  and  N_3 
REMARK    4  A    between atoms: C_4  and  C_7 
REMARK    5  A    between atoms: O_12  and  C_4 
REMARK    6  A    between atoms: C_17  and  O_12 
ROOT
ATOM      1  C   UNL d   1     -40.151  14.919  17.995  0.00  0.00     0.064 A 
ATOM      2  C   UNL d   1     -40.556  15.026  19.597  0.00  0.00     0.095 A 
ATOM      3  C   UNL d   1     -40.434  14.246  18.396  0.00  0.00     0.007 A 
ATOM      4  C   UNL d   1     -40.071  15.655  18.382  0.00  0.00     0.007 A 
ATOM      5  C   UNL d   1     -40.279  15.704  19.194  0.00  0.00     0.020 A 
ATOM      6  C   UNL d   1     -40.633  14.299  19.199  0.00  0.00     0.020 A 
ENDROOT
BRANCH   2   7
ATOM      7  N   UNL d   1     -40.769  15.085  20.409  0.00  0.00    -0.144 NA
BRANCH   7   8
ATOM      8  S   UNL d   1     -40.201  14.981  20.996  0.00  0.00     0.351 S 
ATOM      9  O   UNL d   1     -40.602  14.282  21.163  0.00  0.00    -0.180 OA
ATOM     10  O   UNL d   1     -39.799  15.681  20.830  0.00  0.00    -0.180 OA
BRANCH   8  11
ATOM     11  N   UNL d   1     -39.665  14.818  21.600  0.00  0.00    -0.215 N 
ATOM     12  C   UNL d   1     -39.565  14.015  21.781  0.00  0.00     0.093 C 
ATOM     13  C   UNL d   1     -39.054  13.676  22.330  0.00  0.00     0.020 C 
ATOM     14  C   UNL d   1     -38.604  14.055  22.908  0.00  0.00     0.002 C 
ATOM     15  C   UNL d   1     -38.551  14.859  23.079  0.00  0.00     0.002 C 
ATOM     16  C   UNL d   1     -38.940  15.482  22.712  0.00  0.00     0.020 C 
ATOM     17  C   UNL d   1     -39.478  15.461  22.080  0.00  0.00     0.093 C 
ENDBRANCH   8  11
ENDBRANCH   7   8
ENDBRANCH   2   7
BRANCH   1  18
ATOM     18  C   UNL d   1     -39.938  14.851  17.196  0.00  0.00     0.300 C 
ATOM     19  O   UNL d   1     -40.466  15.103  16.614  0.00  0.00    -0.259 OA
BRANCH  18  20
ATOM     20  O   UNL d   1     -39.206  14.536  16.992  0.00  0.00    -0.271 OA
BRANCH  20  21
ATOM     21  C   UNL d   1     -38.962  14.517  16.204  0.00  0.00     0.126 C 
ATOM     22  C   UNL d   1     -38.278  14.114  15.987  0.00  0.00     0.029 C 
ENDBRANCH  20  21
ENDBRANCH  18  20
ENDBRANCH   1  18
TORSDOF 6
ENDMDL
MODEL 4
REMARK VINA RESULT:      -5.1      1.804      4.658
REMARK  6 active torsions:
REMARK  status: ('A' for Active; 'I' for Inactive)
REMARK    1  A    between atoms: N_2  and  S_1 
REMARK    2  A    between atoms: N_3  and  S_1 
REMARK    3  A    between atoms: C_9  and  N_3 
REMARK    4  A    between atoms: C_4  and  C_7 
REMARK    5  A    between atoms: O_12  and  C_4 
REMARK    6  A    between atoms: C_17  and  O_12 
ROOT
ATOM      1  C   UNL d   1     -49.565  12.447  22.714  0.00  0.00     0.064 A 
ATOM      2  C   UNL d   1     -48.069  12.170  23.369  0.00  0.00     0.095 A 
ATOM      3  C   UNL d   1     -49.310  12.895  23.368  0.00  0.00     0.007 A 
ATOM      4  C   UNL d   1     -49.078  11.859  22.373  0.00  0.00     0.007 A 
ATOM      5  C   UNL d   1     -48.320  11.725  22.708  0.00  0.00     0.020 A 
ATOM      6  C   UNL d   1     -48.564  12.755  23.698  0.00  0.00     0.020 A 
ENDROOT
BRANCH   2   7
ATOM      7  N   UNL d   1     -47.306  12.035  23.695  0.00  0.00    -0.144 NA
BRANCH   7   8
ATOM      8  S   UNL d   1     -46.630  12.251  23.275  0.00  0.00     0.351 S 
ATOM      9  O   UNL d   1     -46.471  11.444  23.255  0.00  0.00    -0.180 OA
ATOM     10  O   UNL d   1     -46.790  13.059  23.295  0.00  0.00    -0.180 OA
BRANCH   8  11
ATOM     11  N   UNL d   1     -45.940  12.398  22.852  0.00  0.00    -0.215 N 
ATOM     12  C   UNL d   1     -45.330  11.847  22.960  0.00  0.00     0.093 C 
ATOM     13  C   UNL d   1     -44.591  11.826  22.598  0.00  0.00     0.020 C 
ATOM     14  C   UNL d   1     -44.238  12.404  22.128  0.00  0.00     0.002 C 
ATOM     15  C   UNL d   1     -44.531  13.141  21.906  0.00  0.00     0.002 C 
ATOM     16  C   UNL d   1     -45.254  13.479  22.101  0.00  0.00     0.020 C 
ATOM     17  C   UNL d   1     -45.867  13.168  22.567  0.00  0.00     0.093 C 
ENDBRANCH   8  11
ENDBRANCH   7   8
ENDBRANCH   2   7
BRANCH   1  18
ATOM     18  C   UNL d   1     -50.321  12.583  22.402  0.00  0.00     0.300 C 
ATOM     19  O   UNL d   1     -50.981  12.288  22.800  0.00  0.00    -0.259 OA
BRANCH  18  20
ATOM     20  O   UNL d   1     -50.408  13.007  21.703  0.00  0.00    -0.271 OA
BRANCH  20  21
ATOM     21  C   UNL d   1     -51.064  13.493  21.584  0.00  0.00     0.126 C 
ATOM     22  C   UNL d   1     -51.013  14.155  21.098  0.00  0.00     0.029 C 
ENDBRANCH  20  21
ENDBRANCH  18  20
ENDBRANCH   1  18
TORSDOF 6
ENDMDL
MODEL 5
REMARK VINA RESULT:      -4.7      8.832     10.201
REMARK  6 active torsions:
REMARK  status: ('A' for Active; 'I' for Inactive)
REMARK    1  A    between atoms: N_2  and  S_1 
REMARK    2  A    between atoms: N_3  and  S_1 
REMARK    3  A    between atoms: C_9  and  N_3 
REMARK    4  A    between atoms: C_4  and  C_7 
REMARK    5  A    between atoms: O_12  and  C_4 
REMARK    6  A    between atoms: C_17  and  O_12 
ROOT
ATOM      1  C   UNL d   1     -39.569  14.935  17.544  0.00  0.00     0.064 A 
ATOM      2  C   UNL d   1     -38.547  14.560  18.793  0.00  0.00     0.095 A 
ATOM      3  C   UNL d   1     -38.986  15.482  17.781  0.00  0.00     0.007 A 
ATOM      4  C   UNL d   1     -39.648  14.194  17.921  0.00  0.00     0.007 A 
ATOM      5  C   UNL d   1     -39.126  14.008  18.552  0.00  0.00     0.020 A 
ATOM      6  C   UNL d   1     -38.478  15.296  18.408  0.00  0.00     0.020 A 
ENDROOT
BRANCH   2   7
ATOM      7  N   UNL d   1     -38.023  14.365  19.422  0.00  0.00    -0.144 NA
BRANCH   7   8
ATOM      8  S   UNL d   1     -38.295  14.352  20.200  0.00  0.00     0.351 S 
ATOM      9  O   UNL d   1     -38.160  13.541  20.158  0.00  0.00    -0.180 OA
ATOM     10  O   UNL d   1     -38.429  15.163  20.241  0.00  0.00    -0.180 OA
BRANCH   8  11
ATOM     11  N   UNL d   1     -38.556  14.269  20.976  0.00  0.00    -0.215 N 
ATOM     12  C   UNL d   1     -38.735  14.977  21.369  0.00  0.00     0.093 C 
ATOM     13  C   UNL d   1     -39.032  15.076  22.131  0.00  0.00     0.020 C 
ATOM     14  C   UNL d   1     -39.115  14.507  22.723  0.00  0.00     0.002 C 
ATOM     15  C   UNL d   1     -38.925  13.706  22.702  0.00  0.00     0.002 C 
ATOM     16  C   UNL d   1     -38.604  13.277  22.080  0.00  0.00     0.020 C 
ATOM     17  C   UNL d   1     -38.390  13.539  21.321  0.00  0.00     0.093 C 
ENDBRANCH   8  11
ENDBRANCH   7   8
ENDBRANCH   2   7
BRANCH   1  18
ATOM     18  C   UNL d   1     -40.085  15.138  16.928  0.00  0.00     0.300 C 
ATOM     19  O   UNL d   1     -39.833  15.055  16.146  0.00  0.00    -0.259 OA
BRANCH  18  20
ATOM     20  O   UNL d   1     -40.838  15.419  17.098  0.00  0.00    -0.271 OA
BRANCH  20  21
ATOM     21  C   UNL d   1     -41.229  15.922  16.573  0.00  0.00     0.126 C 
ATOM     22  C   UNL d   1     -42.050  15.916  16.520  0.00  0.00     0.029 C 
ENDBRANCH  20  21
ENDBRANCH  18  20
ENDBRANCH   1  18
TORSDOF 6
ENDMDL
