MODEL 1
REMARK VINA RESULT:      10.9      0.000      0.000
REMARK  3 active torsions:
REMARK  status: ('A' for Active; 'I' for Inactive)
REMARK    1  A    between atoms: C_6  and  C_1 
REMARK    2  A    between atoms: C_7  and  C_5 
REMARK    3  A    between atoms: C_15  and  C_14 
ROOT
ATOM      1  C   UNL d   1      46.223 -17.947  43.950  0.00  0.00     0.169 A 
ATOM      2  C   UNL d   1      46.202 -17.351  43.438  0.00  0.00     0.048 A 
ATOM      3  N   UNL d   1      45.907 -17.097  44.950  0.00  0.00    -0.148 NA
ATOM      4  N   UNL d   1      46.074 -17.821  44.715  0.00  0.00    -0.142 NA
ATOM      5  C   UNL d   1      45.886 -16.495  44.439  0.00  0.00     0.105 A 
ENDROOT
BRANCH   5   6
ATOM      6  C   UNL d   1      45.735 -15.695  44.502  0.00  0.00     0.019 A 
ATOM      7  C   UNL d   1      46.265 -15.152  44.164  0.00  0.00     0.002 A 
ATOM      8  C   UNL d   1      46.119 -14.350  44.224  0.00  0.00     0.000 A 
ATOM      9  C   UNL d   1      45.448 -14.076  44.617  0.00  0.00     0.000 A 
ATOM     10  C   UNL d   1      44.917 -14.620  44.955  0.00  0.00     0.000 A 
ATOM     11  C   UNL d   1      45.068 -15.429  44.893  0.00  0.00     0.002 A 
BRANCH   9  12
ATOM     12  C   UNL d   1      45.297 -13.245  44.679  0.00  0.00     0.000 C 
ATOM     13  C   UNL d   1      45.921 -12.716  44.883  0.00  0.00     0.000 C 
ENDBRANCH   9  12
ENDBRANCH   5   6
BRANCH   1  14
ATOM     14  C   UNL d   1      46.392 -18.666  43.693  0.00  0.00     0.231 C 
ATOM     15  O   UNL d   1      46.330 -18.830  42.922  0.00  0.00    -0.643 OA
ATOM     16  O   UNL d   1      46.623 -19.227  44.198  0.00  0.00    -0.643 OA
ENDBRANCH   1  14
TORSDOF 3
ENDMDL
MODEL 2
REMARK VINA RESULT:      11.0      2.106      4.263
REMARK  3 active torsions:
REMARK  status: ('A' for Active; 'I' for Inactive)
REMARK    1  A    between atoms: C_6  and  C_1 
REMARK    2  A    between atoms: C_7  and  C_5 
REMARK    3  A    between atoms: C_15  and  C_14 
ROOT
ATOM      1  C   UNL d   1      45.450 -15.280  44.631  0.00  0.00     0.169 A 
ATOM      2  C   UNL d   1      45.143 -15.927  44.955  0.00  0.00     0.048 A 
ATOM      3  N   UNL d   1      46.284 -16.046  43.895  0.00  0.00    -0.148 NA
ATOM      4  N   UNL d   1      46.027 -15.338  44.095  0.00  0.00    -0.142 NA
ATOM      5  C   UNL d   1      45.978 -16.699  44.219  0.00  0.00     0.105 A 
ENDROOT
BRANCH   5   6
ATOM      6  C   UNL d   1      46.117 -17.499  44.135  0.00  0.00     0.019 A 
ATOM      7  C   UNL d   1      46.237 -17.815  43.376  0.00  0.00     0.002 A 
ATOM      8  C   UNL d   1      46.377 -18.615  43.286  0.00  0.00     0.000 A 
ATOM      9  C   UNL d   1      46.399 -19.112  43.944  0.00  0.00     0.000 A 
ATOM     10  C   UNL d   1      46.278 -18.796  44.703  0.00  0.00     0.000 A 
ATOM     11  C   UNL d   1      46.138 -17.987  44.791  0.00  0.00     0.002 A 
BRANCH   9  12
ATOM     12  C   UNL d   1      46.544 -19.941  43.850  0.00  0.00     0.000 C 
ATOM     13  C   UNL d   1      46.374 -20.320  43.116  0.00  0.00     0.000 C 
ENDBRANCH   9  12
ENDBRANCH   5   6
BRANCH   1  14
ATOM     14  C   UNL d   1      45.178 -14.579  44.845  0.00  0.00     0.231 C 
ATOM     15  O   UNL d   1      45.683 -13.981  44.953  0.00  0.00    -0.643 OA
ATOM     16  O   UNL d   1      44.404 -14.468  44.953  0.00  0.00    -0.643 OA
ENDBRANCH   1  14
TORSDOF 3
ENDMDL
