MODEL 1
REMARK VINA RESULT:      20.4      0.000      0.000
REMARK  6 active torsions:
REMARK  status: ('A' for Active; 'I' for Inactive)
REMARK    1  A    between atoms: C_4  and  C_1 
REMARK    2  A    between atoms: C_7  and  C_4 
REMARK    3  A    between atoms: N_10  and  C_7 
REMARK    4  A    between atoms: C_13  and  N_10 
REMARK    5  A    between atoms: O_18  and  C_11 
REMARK    6  A    between atoms: O_20  and  C_15 
ROOT
ATOM      1  C   UNL d   1      45.573 -16.095  44.347  0.00  0.00     0.122 C 
ATOM      2  C   UNL d   1      44.888 -16.454  44.627  0.00  0.00     0.106 C 
ATOM      3  N   UNL d   1      44.202 -16.814  44.908  0.00  0.00    -0.191 NA
ENDROOT
BRANCH   1   4
ATOM      4  C   UNL d   1      45.671 -15.279  44.421  0.00  0.00     0.159 A 
ATOM      5  N   UNL d   1      46.323 -14.894  44.753  0.00  0.00    -0.226 NA
ATOM      6  C   UNL d   1      46.190 -14.086  44.713  0.00  0.00     0.099 A 
ATOM      7  C   UNL d   1      46.643 -13.434  44.955  0.00  0.00     0.021 A 
ATOM      8  C   UNL d   1      45.456 -13.966  44.356  0.00  0.00     0.083 A 
ATOM      9  C   UNL d   1      46.353 -12.668  44.837  0.00  0.00     0.002 A 
ATOM     10  C   UNL d   1      45.620 -12.547  44.480  0.00  0.00     0.002 A 
ATOM     11  C   UNL d   1      45.168 -13.191  44.238  0.00  0.00     0.019 A 
ATOM     12  N   UNL d   1      45.133 -14.698  44.175  0.00  0.00    -0.287 N 
ATOM     13  C   UNL d   1      44.401 -14.843  43.811  0.00  0.00     0.101 C 
ENDBRANCH   1   4
BRANCH   1  14
ATOM     14  C   UNL d   1      46.160 -16.550  43.993  0.00  0.00     0.112 C 
BRANCH  14  15
ATOM     15  N   UNL d   1      46.277 -17.331  44.232  0.00  0.00    -0.241 NA
BRANCH  15  16
ATOM     16  C   UNL d   1      46.369 -17.925  43.670  0.00  0.00     0.104 A 
ATOM     17  C   UNL d   1      46.517 -18.701  43.908  0.00  0.00     0.114 A 
ATOM     18  C   UNL d   1      46.610 -19.295  43.345  0.00  0.00     0.050 A 
ATOM     19  C   UNL d   1      46.554 -19.114  42.540  0.00  0.00     0.096 A 
ATOM     20  C   UNL d   1      46.405 -18.337  42.306  0.00  0.00     0.026 A 
ATOM     21  C   UNL d   1      46.313 -17.743  42.868  0.00  0.00     0.023 A 
BRANCH  17  22
ATOM     22  O   UNL d   1      46.573 -18.883  44.708  0.00  0.00    -0.327 OA
ATOM     23  C   UNL d   1      46.596 -19.671  44.953  0.00  0.00     0.181 C 
ENDBRANCH  17  22
BRANCH  19  24
ATOM     24  O   UNL d   1      46.646 -19.708  41.977  0.00  0.00    -0.328 OA
ATOM     25  C   UNL d   1      46.358 -19.600  41.206  0.00  0.00     0.181 C 
ENDBRANCH  19  24
ENDBRANCH  15  16
ENDBRANCH  14  15
ENDBRANCH   1  14
TORSDOF 6
ENDMDL
