MODEL 1
REMARK VINA RESULT:      -5.6      0.000      0.000
REMARK  7 active torsions:
REMARK  status: ('A' for Active; 'I' for Inactive)
REMARK    1  A    between atoms: C_3  and  C_1 
REMARK    2  A    between atoms: O_13  and  C_1 
REMARK       I    between atoms: C_2  and  N_7 
REMARK    3  A    between atoms: C_4  and  C_2 
REMARK    4  A    between atoms: C_6  and  C_4 
REMARK    5  A    between atoms: C_5  and  C_6 
REMARK    6  A    between atoms: O_14  and  C_5 
REMARK    7  A    between atoms: N_7  and  C_9 
ROOT
ATOM      1  C   UNL d   1     -41.873-122.451 -54.544  0.00  0.00     0.063 A 
ATOM      2  C   UNL d   1     -41.700-122.276 -53.752  0.00  0.00     0.023 A 
ATOM      3  C   UNL d   1     -41.324-122.839 -53.286  0.00  0.00     0.059 A 
ATOM      4  C   UNL d   1     -41.671-123.183 -54.866  0.00  0.00     0.006 A 
ATOM      5  C   UNL d   1     -41.297-123.740 -54.397  0.00  0.00     0.002 A 
ATOM      6  C   UNL d   1     -41.123-123.571 -53.608  0.00  0.00     0.017 A 
ENDROOT
BRANCH   3   7
ATOM      7  N   UNL d   1     -41.149-122.675 -52.499  0.00  0.00    -0.321 N 
ATOM      8  C   UNL d   1     -41.420-123.162 -51.905  0.00  0.00     0.258 C 
ATOM      9  O   UNL d   1     -41.869-123.817 -52.105  0.00  0.00    -0.267 OA
ATOM     10  H   UNL d   1     -40.698-122.017 -52.310  0.00  0.00     0.169 HD
BRANCH   8  11
ATOM     11  C   UNL d   1     -41.243-122.996 -51.130  0.00  0.00     0.067 C 
BRANCH  11  12
ATOM     12  C   UNL d   1     -41.698-123.318 -50.533  0.00  0.00     0.072 C 
BRANCH  12  13
ATOM     13  C   UNL d   1     -41.763-122.935 -49.805  0.00  0.00     0.178 C 
ATOM     14  O   UNL d   1     -41.203-123.080 -49.219  0.00  0.00    -0.646 OA
BRANCH  13  15
ATOM     15  O   UNL d   1     -42.384-122.410 -49.659  0.00  0.00    -0.773 OA
ATOM     16  H   UNL d   1     -42.249-121.596 -49.729  0.00  0.00     0.167 HD
ENDBRANCH  13  15
ENDBRANCH  12  13
ENDBRANCH  11  12
ENDBRANCH   8  11
ENDBRANCH   3   7
BRANCH   1  17
ATOM     17  C   UNL d   1     -42.251-121.882 -55.009  0.00  0.00     0.178 C 
ATOM     18  O   UNL d   1     -43.003-121.610 -54.809  0.00  0.00    -0.646 OA
BRANCH  17  19
ATOM     19  O   UNL d   1     -41.870-121.586 -55.678  0.00  0.00    -0.773 OA
ATOM     20  H   UNL d   1     -41.245-121.054 -55.600  0.00  0.00     0.167 HD
ENDBRANCH  17  19
ENDBRANCH   1  17
TORSDOF 7
ENDMDL
MODEL 2
REMARK VINA RESULT:      -5.5      0.895      4.228
REMARK  7 active torsions:
REMARK  status: ('A' for Active; 'I' for Inactive)
REMARK    1  A    between atoms: C_3  and  C_1 
REMARK    2  A    between atoms: O_13  and  C_1 
REMARK       I    between atoms: C_2  and  N_7 
REMARK    3  A    between atoms: C_4  and  C_2 
REMARK    4  A    between atoms: C_6  and  C_4 
REMARK    5  A    between atoms: C_5  and  C_6 
REMARK    6  A    between atoms: O_14  and  C_5 
REMARK    7  A    between atoms: N_7  and  C_9 
ROOT
ATOM      1  C   UNL d   1     -42.401-122.797 -50.023  0.00  0.00     0.063 A 
ATOM      2  C   UNL d   1     -42.280-122.399 -50.740  0.00  0.00     0.023 A 
ATOM      3  C   UNL d   1     -41.653-122.618 -51.224  0.00  0.00     0.059 A 
ATOM      4  C   UNL d   1     -41.898-123.409 -49.792  0.00  0.00     0.006 A 
ATOM      5  C   UNL d   1     -41.275-123.624 -50.278  0.00  0.00     0.002 A 
ATOM      6  C   UNL d   1     -41.150-123.230 -50.993  0.00  0.00     0.017 A 
ENDROOT
BRANCH   3   7
ATOM      7  N   UNL d   1     -41.525-122.229 -51.937  0.00  0.00    -0.321 N 
ATOM      8  C   UNL d   1     -41.533-122.641 -52.640  0.00  0.00     0.258 C 
ATOM      9  O   UNL d   1     -41.670-123.449 -52.623  0.00  0.00    -0.267 OA
ATOM     10  H   UNL d   1     -41.389-121.421 -51.943  0.00  0.00     0.169 HD
BRANCH   8  11
ATOM     11  C   UNL d   1     -41.406-122.252 -53.341  0.00  0.00     0.067 C 
BRANCH  11  12
ATOM     12  C   UNL d   1     -41.677-122.577 -54.040  0.00  0.00     0.072 C 
BRANCH  12  13
ATOM     13  C   UNL d   1     -41.795-122.102 -54.704  0.00  0.00     0.178 C 
ATOM     14  O   UNL d   1     -42.464-121.624 -54.747  0.00  0.00    -0.646 OA
BRANCH  13  15
ATOM     15  O   UNL d   1     -41.248-122.101 -55.323  0.00  0.00    -0.773 OA
ATOM     16  H   UNL d   1     -41.260-121.481 -55.872  0.00  0.00     0.167 HD
ENDBRANCH  13  15
ENDBRANCH  12  13
ENDBRANCH  11  12
ENDBRANCH   8  11
ENDBRANCH   3   7
BRANCH   1  17
ATOM     17  C   UNL d   1     -43.033-122.575 -49.539  0.00  0.00     0.178 C 
ATOM     18  O   UNL d   1     -42.937-122.525 -48.721  0.00  0.00    -0.646 OA
BRANCH  17  19
ATOM     19  O   UNL d   1     -43.764-122.400 -49.880  0.00  0.00    -0.773 OA
ATOM     20  H   UNL d   1     -43.804-122.075 -50.637  0.00  0.00     0.167 HD
ENDBRANCH  17  19
ENDBRANCH   1  17
TORSDOF 7
ENDMDL
