MODEL 1
REMARK VINA RESULT:      19.0      0.000      0.000
REMARK  4 active torsions:
REMARK  status: ('A' for Active; 'I' for Inactive)
REMARK    1  A    between atoms: C_6  and  C_1 
REMARK    2  A    between atoms: S_7  and  C_3 
REMARK    3  A    between atoms: C_17  and  S_7 
REMARK    4  A    between atoms: C_18  and  C_17 
ROOT
ATOM      1  C   UNL d   1      46.073 -17.680  44.176  0.00  0.00     0.087 A 
ATOM      2  N   UNL d   1      46.136 -18.176  44.836  0.00  0.00    -0.245 NA
ATOM      3  C   UNL d   1      46.207 -18.133  43.497  0.00  0.00     0.049 A 
ATOM      4  C   UNL d   1      46.355 -18.910  43.727  0.00  0.00     0.025 A 
ATOM      5  C   UNL d   1      46.311 -18.935  44.558  0.00  0.00     0.082 A 
ATOM      6  C   UNL d   1      46.522 -19.590  43.305  0.00  0.00     0.002 A 
ATOM      7  C   UNL d   1      46.435 -19.648  44.955  0.00  0.00     0.019 A 
ATOM      8  C   UNL d   1      46.646 -20.303  43.703  0.00  0.00     0.000 A 
ATOM      9  C   UNL d   1      46.603 -20.330  44.524  0.00  0.00     0.002 A 
ENDROOT
BRANCH   1  10
ATOM     10  C   UNL d   1      45.904 -16.887  44.237  0.00  0.00     0.018 A 
ATOM     11  C   UNL d   1      45.245 -16.638  44.683  0.00  0.00     0.004 A 
ATOM     12  C   UNL d   1      45.075 -15.834  44.745  0.00  0.00     0.030 A 
ATOM     13  C   UNL d   1      45.553 -15.274  44.368  0.00  0.00     0.140 A 
ATOM     14  C   UNL d   1      46.210 -15.519  43.923  0.00  0.00     0.030 A 
ATOM     15  F   UNL d   1      45.387 -14.461  44.426  0.00  0.00    -0.204 F 
ATOM     16  C   UNL d   1      46.380 -16.323  43.862  0.00  0.00     0.004 A 
ENDBRANCH   1  10
BRANCH   3  17
ATOM     17  S   UNL d   1      46.196 -17.856  42.721  0.00  0.00    -0.083 SA
BRANCH  17  18
ATOM     18  C   UNL d   1      46.355 -18.392  42.096  0.00  0.00     0.058 C 
BRANCH  18  19
ATOM     19  C   UNL d   1      46.446 -18.090  41.325  0.00  0.00     0.129 C 
ATOM     20  N   UNL d   1      46.570 -18.613  40.712  0.00  0.00    -0.146 N 
ENDBRANCH  18  19
ENDBRANCH  17  18
ENDBRANCH   3  17
TORSDOF 4
ENDMDL
MODEL 2
REMARK VINA RESULT:      21.6      1.048      2.342
REMARK  4 active torsions:
REMARK  status: ('A' for Active; 'I' for Inactive)
REMARK    1  A    between atoms: C_6  and  C_1 
REMARK    2  A    between atoms: S_7  and  C_3 
REMARK    3  A    between atoms: C_17  and  S_7 
REMARK    4  A    between atoms: C_18  and  C_17 
ROOT
ATOM      1  C   UNL d   1      46.096 -17.756  42.962  0.00  0.00     0.087 A 
ATOM      2  N   UNL d   1      45.932 -17.733  42.150  0.00  0.00    -0.245 NA
ATOM      3  C   UNL d   1      46.391 -18.507  43.146  0.00  0.00     0.049 A 
ATOM      4  C   UNL d   1      46.412 -18.956  42.454  0.00  0.00     0.025 A 
ATOM      5  C   UNL d   1      46.127 -18.474  41.838  0.00  0.00     0.082 A 
ATOM      6  C   UNL d   1      46.647 -19.723  42.300  0.00  0.00     0.002 A 
ATOM      7  C   UNL d   1      46.083 -18.773  41.070  0.00  0.00     0.019 A 
ATOM      8  C   UNL d   1      46.602 -20.022  41.532  0.00  0.00     0.000 A 
ATOM      9  C   UNL d   1      46.321 -19.548  40.921  0.00  0.00     0.002 A 
ENDROOT
BRANCH   1  10
ATOM     10  C   UNL d   1      45.972 -17.120  43.453  0.00  0.00     0.018 A 
ATOM     11  C   UNL d   1      46.266 -16.370  43.239  0.00  0.00     0.004 A 
ATOM     12  C   UNL d   1      46.139 -15.726  43.738  0.00  0.00     0.030 A 
ATOM     13  C   UNL d   1      45.723 -15.820  44.446  0.00  0.00     0.140 A 
ATOM     14  C   UNL d   1      45.429 -16.565  44.662  0.00  0.00     0.030 A 
ATOM     15  F   UNL d   1      45.592 -15.174  44.954  0.00  0.00    -0.204 F 
ATOM     16  C   UNL d   1      45.556 -17.209  44.163  0.00  0.00     0.004 A 
ENDBRANCH   1  10
BRANCH   3  17
ATOM     17  S   UNL d   1      46.623 -18.766  43.893  0.00  0.00    -0.083 SA
BRANCH  17  18
ATOM     18  C   UNL d   1      46.603 -19.586  44.064  0.00  0.00     0.058 C 
BRANCH  18  19
ATOM     19  C   UNL d   1      46.419 -19.827  44.840  0.00  0.00     0.129 C 
ATOM     20  N   UNL d   1      45.787 -20.329  44.953  0.00  0.00    -0.146 N 
ENDBRANCH  18  19
ENDBRANCH  17  18
ENDBRANCH   3  17
TORSDOF 4
ENDMDL
