MODEL 1
REMARK VINA RESULT:      15.0      0.000      0.000
REMARK  4 active torsions:
REMARK  status: ('A' for Active; 'I' for Inactive)
REMARK    1  A    between atoms: N_2  and  S_1 
REMARK    2  A    between atoms: C_3  and  S_1 
REMARK       I    between atoms: C_5  and  N_4 
REMARK    3  A    between atoms: O_17  and  C_5 
REMARK    4  A    between atoms: C_18  and  O_17 
ROOT
ATOM      1  N   UNL d   1      13.869  12.481  -2.699  0.00  0.00    -0.226 N 
ATOM      2  N   UNL d   1      14.503  12.522  -1.156  0.00  0.00    -0.248 N 
ATOM      3  C   UNL d   1      14.817  12.527  -0.393  0.00  0.00     0.378 C 
ATOM      4  C   UNL d   1      14.084  11.779  -2.310  0.00  0.00     0.111 A 
ATOM      5  C   UNL d   1      13.977  13.207  -2.304  0.00  0.00     0.111 A 
ATOM      6  C   UNL d   1      14.290  13.228  -1.541  0.00  0.00     0.105 A 
ATOM      7  C   UNL d   1      14.397  11.800  -1.547  0.00  0.00     0.105 A 
ATOM      8  O   UNL d   1      15.024  11.820  -0.021  0.00  0.00    -0.237 OA
ENDROOT
BRANCH   1   9
ATOM      9  S   UNL d   1      13.557  12.461  -3.462  0.00  0.00     0.277 S 
ATOM     10  O   UNL d   1      13.999  13.128  -3.662  0.00  0.00    -0.199 OA
ATOM     11  O   UNL d   1      13.106  11.781  -3.260  0.00  0.00    -0.199 OA
BRANCH   9  12
ATOM     12  C   UNL d   1      13.252  12.446  -4.217  0.00  0.00     0.133 A 
ATOM     13  S   UNL d   1      13.075  11.786  -4.612  0.00  0.00    -0.074 SA
ATOM     14  C   UNL d   1      12.778  12.002  -5.361  0.00  0.00     0.036 A 
ATOM     15  C   UNL d   1      12.783  12.837  -5.402  0.00  0.00     0.008 A 
ATOM     16  C   UNL d   1      13.071  13.113  -4.707  0.00  0.00     0.020 A 
ENDBRANCH   9  12
ENDBRANCH   1   9
BRANCH   3  17
ATOM     17  O   UNL d   1      14.917  13.245  -0.015  0.00  0.00    -0.257 OA
BRANCH  17  18
ATOM     18  C   UNL d   1      15.650  13.624  -0.045  0.00  0.00     0.128 C 
ATOM     19  C   UNL d   1      15.701  14.437  -0.073  0.00  0.00     0.029 C 
ENDBRANCH  17  18
ENDBRANCH   3  17
TORSDOF 4
ENDMDL
