MODEL 1
REMARK VINA RESULT:      -8.5      0.000      0.000
REMARK  3 active torsions:
REMARK  status: ('A' for Active; 'I' for Inactive)
REMARK    1  A    between atoms: N_3  and  S_1 
REMARK    2  A    between atoms: C_11  and  S_1 
REMARK    3  A    between atoms: C_2  and  N_3 
ROOT
ATOM      1  C   UNL d   1     -47.837  12.738  23.319  0.00  0.00     0.095 A 
ATOM      2  C   UNL d   1     -47.245  12.162  23.432  0.00  0.00     0.032 A 
ATOM      3  C   UNL d   1     -46.472  12.351  23.282  0.00  0.00     0.098 A 
ATOM      4  C   UNL d   1     -46.265  13.109  23.020  0.00  0.00     0.206 A 
ATOM      5  C   UNL d   1     -46.845  13.674  22.910  0.00  0.00     0.041 A 
ATOM      6  C   UNL d   1     -47.628  13.499  23.055  0.00  0.00     0.023 A 
ATOM      7 CL   UNL d   1     -45.880  11.775  23.395  0.00  0.00    -0.079 Cl
ATOM      8  O   UNL d   1     -45.466  13.272  22.875  0.00  0.00    -0.286 OA
ATOM      9  C   UNL d   1     -47.429  11.407  23.691  0.00  0.00     0.003 C 
ATOM     10  C   UNL d   1     -46.631  14.436  22.645  0.00  0.00     0.003 C 
ENDROOT
BRANCH   1  11
ATOM     11  N   UNL d   1     -48.622  12.561  23.466  0.00  0.00    -0.158 NA
BRANCH  11  12
ATOM     12  S   UNL d   1     -49.210  12.860  22.983  0.00  0.00     0.285 S 
ATOM     13  O   UNL d   1     -49.070  12.279  22.418  0.00  0.00    -0.198 OA
ATOM     14  O   UNL d   1     -49.376  13.465  23.542  0.00  0.00    -0.198 OA
BRANCH  12  15
ATOM     15  C   UNL d   1     -49.820  13.177  22.493  0.00  0.00     0.105 A 
ATOM     16  C   UNL d   1     -49.972  12.877  21.752  0.00  0.00     0.013 A 
ATOM     17  C   UNL d   1     -50.564  13.185  21.276  0.00  0.00     0.001 A 
ATOM     18  C   UNL d   1     -51.022  13.820  21.553  0.00  0.00     0.000 A 
ATOM     19  C   UNL d   1     -50.870  14.121  22.294  0.00  0.00     0.001 A 
ATOM     20  C   UNL d   1     -50.273  13.808  22.770  0.00  0.00     0.013 A 
ENDBRANCH  12  15
ENDBRANCH  11  12
ENDBRANCH   1  11
TORSDOF 3
ENDMDL
MODEL 2
REMARK VINA RESULT:      -8.3      1.369      2.082
REMARK  3 active torsions:
REMARK  status: ('A' for Active; 'I' for Inactive)
REMARK    1  A    between atoms: N_3  and  S_1 
REMARK    2  A    between atoms: C_11  and  S_1 
REMARK    3  A    between atoms: C_2  and  N_3 
ROOT
ATOM      1  C   UNL d   1     -47.712  13.405  22.676  0.00  0.00     0.095 A 
ATOM      2  C   UNL d   1     -46.905  13.231  22.791  0.00  0.00     0.032 A 
ATOM      3  C   UNL d   1     -46.693  12.525  23.127  0.00  0.00     0.098 A 
ATOM      4  C   UNL d   1     -47.270  11.976  23.357  0.00  0.00     0.206 A 
ATOM      5  C   UNL d   1     -48.061  12.146  23.244  0.00  0.00     0.041 A 
ATOM      6  C   UNL d   1     -48.290  12.852  22.907  0.00  0.00     0.023 A 
ATOM      7 CL   UNL d   1     -45.886  12.352  23.242  0.00  0.00    -0.079 Cl
ATOM      8  O   UNL d   1     -47.022  11.263  23.697  0.00  0.00    -0.286 OA
ATOM      9  C   UNL d   1     -46.320  13.761  22.572  0.00  0.00     0.003 C 
ATOM     10  C   UNL d   1     -48.638  11.589  23.476  0.00  0.00     0.003 C 
ENDROOT
BRANCH   1  11
ATOM     11  N   UNL d   1     -47.940  14.113  22.338  0.00  0.00    -0.158 NA
BRANCH  11  12
ATOM     12  S   UNL d   1     -48.651  14.459  22.545  0.00  0.00     0.285 S 
ATOM     13  O   UNL d   1     -48.324  14.770  23.233  0.00  0.00    -0.198 OA
ATOM     14  O   UNL d   1     -49.014  14.156  21.851  0.00  0.00    -0.198 OA
BRANCH  12  15
ATOM     15  C   UNL d   1     -49.391  14.812  22.749  0.00  0.00     0.105 A 
ATOM     16  C   UNL d   1     -49.470  15.293  23.400  0.00  0.00     0.013 A 
ATOM     17  C   UNL d   1     -50.189  15.635  23.597  0.00  0.00     0.001 A 
ATOM     18  C   UNL d   1     -50.855  15.490  23.123  0.00  0.00     0.000 A 
ATOM     19  C   UNL d   1     -50.776  15.010  22.471  0.00  0.00     0.001 A 
ATOM     20  C   UNL d   1     -50.051  14.667  22.275  0.00  0.00     0.013 A 
ENDBRANCH  12  15
ENDBRANCH  11  12
ENDBRANCH   1  11
TORSDOF 3
ENDMDL
MODEL 3
REMARK VINA RESULT:      -7.8      1.739      3.733
REMARK  3 active torsions:
REMARK  status: ('A' for Active; 'I' for Inactive)
REMARK    1  A    between atoms: N_3  and  S_1 
REMARK    2  A    between atoms: C_11  and  S_1 
REMARK    3  A    between atoms: C_2  and  N_3 
ROOT
ATOM      1  C   UNL d   1     -49.403  13.406  22.501  0.00  0.00     0.095 A 
ATOM      2  C   UNL d   1     -50.011  13.427  21.932  0.00  0.00     0.032 A 
ATOM      3  C   UNL d   1     -50.456  14.100  21.850  0.00  0.00     0.098 A 
ATOM      4  C   UNL d   1     -50.312  14.763  22.325  0.00  0.00     0.206 A 
ATOM      5  C   UNL d   1     -49.715  14.741  22.883  0.00  0.00     0.041 A 
ATOM      6  C   UNL d   1     -49.259  14.073  22.978  0.00  0.00     0.023 A 
ATOM      7 CL   UNL d   1     -51.064  14.121  21.280  0.00  0.00    -0.079 Cl
ATOM      8  O   UNL d   1     -50.783  15.435  22.217  0.00  0.00    -0.286 OA
ATOM      9  C   UNL d   1     -50.169  12.782  21.452  0.00  0.00     0.003 C 
ATOM     10  C   UNL d   1     -49.574  15.412  23.359  0.00  0.00     0.003 C 
ENDROOT
BRANCH   1  11
ATOM     11  N   UNL d   1     -48.946  12.734  22.595  0.00  0.00    -0.158 NA
BRANCH  11  12
ATOM     12  S   UNL d   1     -48.133  12.793  22.658  0.00  0.00     0.285 S 
ATOM     13  O   UNL d   1     -48.053  12.859  21.843  0.00  0.00    -0.198 OA
ATOM     14  O   UNL d   1     -48.182  12.729  23.494  0.00  0.00    -0.198 OA
BRANCH  12  15
ATOM     15  C   UNL d   1     -47.294  12.853  22.736  0.00  0.00     0.105 A 
ATOM     16  C   UNL d   1     -46.852  13.324  22.240  0.00  0.00     0.013 A 
ATOM     17  C   UNL d   1     -46.037  13.382  22.316  0.00  0.00     0.001 A 
ATOM     18  C   UNL d   1     -45.651  12.951  22.912  0.00  0.00     0.000 A 
ATOM     19  C   UNL d   1     -46.093  12.481  23.407  0.00  0.00     0.001 A 
ATOM     20  C   UNL d   1     -46.912  12.424  23.328  0.00  0.00     0.013 A 
ENDBRANCH  12  15
ENDBRANCH  11  12
ENDBRANCH   1  11
TORSDOF 3
ENDMDL
MODEL 4
REMARK VINA RESULT:      -6.4      8.564     10.145
REMARK  3 active torsions:
REMARK  status: ('A' for Active; 'I' for Inactive)
REMARK    1  A    between atoms: N_3  and  S_1 
REMARK    2  A    between atoms: C_11  and  S_1 
REMARK    3  A    between atoms: C_2  and  N_3 
ROOT
ATOM      1  C   UNL d   1     -39.875  14.337  17.599  0.00  0.00     0.095 A 
ATOM      2  C   UNL d   1     -39.614  14.698  16.894  0.00  0.00     0.032 A 
ATOM      3  C   UNL d   1     -38.978  14.388  16.499  0.00  0.00     0.098 A 
ATOM      4  C   UNL d   1     -38.587  13.718  16.788  0.00  0.00     0.206 A 
ATOM      5  C   UNL d   1     -38.843  13.364  17.479  0.00  0.00     0.041 A 
ATOM      6  C   UNL d   1     -39.481  13.663  17.888  0.00  0.00     0.023 A 
ATOM      7 CL   UNL d   1     -38.718  14.750  15.795  0.00  0.00    -0.079 Cl
ATOM      8  O   UNL d   1     -37.940  13.424  16.363  0.00  0.00    -0.286 OA
ATOM      9  C   UNL d   1     -39.988  15.362  16.592  0.00  0.00     0.003 C 
ATOM     10  C   UNL d   1     -38.445  12.688  17.766  0.00  0.00     0.003 C 
ENDROOT
BRANCH   1  11
ATOM     11  N   UNL d   1     -40.516  14.639  18.007  0.00  0.00    -0.158 NA
BRANCH  11  12
ATOM     12  S   UNL d   1     -40.485  14.722  18.820  0.00  0.00     0.285 S 
ATOM     13  O   UNL d   1     -40.083  15.436  18.753  0.00  0.00    -0.198 OA
ATOM     14  O   UNL d   1     -40.894  13.995  18.922  0.00  0.00    -0.198 OA
BRANCH  12  15
ATOM     15  C   UNL d   1     -40.459  14.797  19.661  0.00  0.00     0.105 A 
ATOM     16  C   UNL d   1     -40.051  15.401  20.023  0.00  0.00     0.013 A 
ATOM     17  C   UNL d   1     -40.026  15.473  20.840  0.00  0.00     0.001 A 
ATOM     18  C   UNL d   1     -40.425  14.919  21.312  0.00  0.00     0.000 A 
ATOM     19  C   UNL d   1     -40.833  14.315  20.950  0.00  0.00     0.001 A 
ATOM     20  C   UNL d   1     -40.856  14.245  20.128  0.00  0.00     0.013 A 
ENDBRANCH  12  15
ENDBRANCH  11  12
ENDBRANCH   1  11
TORSDOF 3
ENDMDL
MODEL 5
REMARK VINA RESULT:      -6.0      8.590      9.906
REMARK  3 active torsions:
REMARK  status: ('A' for Active; 'I' for Inactive)
REMARK    1  A    between atoms: N_3  and  S_1 
REMARK    2  A    between atoms: C_11  and  S_1 
REMARK    3  A    between atoms: C_2  and  N_3 
ROOT
ATOM      1  C   UNL d   1     -40.272  14.729  19.664  0.00  0.00     0.095 A 
ATOM      2  C   UNL d   1     -40.616  15.281  20.184  0.00  0.00     0.032 A 
ATOM      3  C   UNL d   1     -40.312  15.369  20.930  0.00  0.00     0.098 A 
ATOM      4  C   UNL d   1     -39.663  14.917  21.179  0.00  0.00     0.206 A 
ATOM      5  C   UNL d   1     -39.326  14.375  20.668  0.00  0.00     0.041 A 
ATOM      6  C   UNL d   1     -39.621  14.275  19.915  0.00  0.00     0.023 A 
ATOM      7 CL   UNL d   1     -40.656  15.922  21.450  0.00  0.00    -0.079 Cl
ATOM      8  O   UNL d   1     -39.375  15.030  21.946  0.00  0.00    -0.286 OA
ATOM      9  C   UNL d   1     -41.258  15.738  19.958  0.00  0.00     0.003 C 
ATOM     10  C   UNL d   1     -38.673  13.922  20.923  0.00  0.00     0.003 C 
ENDROOT
BRANCH   1  11
ATOM     11  N   UNL d   1     -40.569  14.629  18.909  0.00  0.00    -0.158 NA
BRANCH  11  12
ATOM     12  S   UNL d   1     -40.064  14.477  18.283  0.00  0.00     0.285 S 
ATOM     13  O   UNL d   1     -39.847  15.268  18.239  0.00  0.00    -0.198 OA
ATOM     14  O   UNL d   1     -40.267  13.662  18.304  0.00  0.00    -0.198 OA
BRANCH  12  15
ATOM     15  C   UNL d   1     -39.546  14.308  17.638  0.00  0.00     0.105 A 
ATOM     16  C   UNL d   1     -39.301  13.550  17.475  0.00  0.00     0.013 A 
ATOM     17  C   UNL d   1     -38.797  13.386  16.848  0.00  0.00     0.001 A 
ATOM     18  C   UNL d   1     -38.531  14.007  16.366  0.00  0.00     0.000 A 
ATOM     19  C   UNL d   1     -38.776  14.765  16.529  0.00  0.00     0.001 A 
ATOM     20  C   UNL d   1     -39.282  14.927  17.160  0.00  0.00     0.013 A 
ENDBRANCH  12  15
ENDBRANCH  11  12
ENDBRANCH   1  11
TORSDOF 3
ENDMDL
