MODEL 1
REMARK VINA RESULT:      52.9      0.000      0.000
REMARK  4 active torsions:
REMARK  status: ('A' for Active; 'I' for Inactive)
REMARK    1  A    between atoms: C_16  and  C_4 
REMARK    2  A    between atoms: C_8  and  S_14 
REMARK    3  A    between atoms: C_18  and  C_9 
REMARK    4  A    between atoms: S_14  and  C_16 
ROOT
ATOM      1  N   UNL d   1     -55.931-100.215 -43.687  0.00  0.00    -0.218 NA
ATOM      2  C   UNL d   1     -55.224-100.634 -43.817  0.00  0.00     0.215 A 
ATOM      3  C   UNL d   1     -56.409-100.001 -44.296  0.00  0.00     0.104 A 
ATOM      4  N   UNL d   1     -55.006-100.837 -44.591  0.00  0.00    -0.121 NA
ATOM      5  N   UNL d   1     -55.497-100.619 -45.222  0.00  0.00    -0.143 NA
ATOM      6  C   UNL d   1     -56.185-100.210 -45.084  0.00  0.00     0.141 A 
ENDROOT
BRANCH   2   7
ATOM      7  S   UNL d   1     -54.746-100.846 -43.191  0.00  0.00    -0.045 SA
BRANCH   7   8
ATOM      8  C   UNL d   1     -54.764-101.615 -42.916  0.00  0.00     0.060 C 
BRANCH   8   9
ATOM      9  C   UNL d   1     -54.795-101.769 -42.083  0.00  0.00     0.124 A 
ATOM     10  N   UNL d   1     -54.902-102.474 -41.725  0.00  0.00    -0.059 NA
ATOM     11  C   UNL d   1     -54.892-102.355 -40.913  0.00  0.00     0.735 A 
ATOM     12  N   UNL d   1     -54.775-101.548 -40.790  0.00  0.00    -0.136 N 
ATOM     13  N   UNL d   1     -54.973-102.864 -40.263  0.00  0.00    -0.059 NA
ATOM     14  C   UNL d   1     -54.715-101.187 -41.522  0.00  0.00     0.118 A 
ATOM     15  C   UNL d   1     -54.738-101.248 -40.027  0.00  0.00     0.100 A 
ATOM     16  C   UNL d   1     -54.819-101.757 -39.377  0.00  0.00     0.041 A 
ATOM     17  C   UNL d   1     -54.936-102.564 -39.494  0.00  0.00     0.119 A 
ENDBRANCH   8   9
ENDBRANCH   7   8
ENDBRANCH   2   7
BRANCH   3  18
ATOM     18  C   UNL d   1     -57.120 -99.580 -44.159  0.00  0.00     0.019 A 
ATOM     19  C   UNL d   1     -57.441 -99.593 -43.405  0.00  0.00     0.002 A 
ATOM     20  C   UNL d   1     -58.151 -99.172 -43.268  0.00  0.00     0.000 A 
ATOM     21  C   UNL d   1     -58.511 -98.755 -43.883  0.00  0.00     0.000 A 
ATOM     22  C   UNL d   1     -58.160 -98.760 -44.640  0.00  0.00     0.000 A 
ATOM     23  C   UNL d   1     -57.467 -99.175 -44.762  0.00  0.00     0.002 A 
ENDBRANCH   3  18
TORSDOF 4
ENDMDL
