MODEL 1
REMARK VINA RESULT:      -5.6      0.000      0.000
REMARK  11 active torsions:
REMARK  status: ('A' for Active; 'I' for Inactive)
REMARK    1  A    between atoms: C_8  and  C_1 
REMARK    2  A    between atoms: C_6  and  N_7 
REMARK    3  A    between atoms: N_19  and  C_6 
REMARK    4  A    between atoms: N_7  and  C_14 
REMARK    5  A    between atoms: C_11  and  N_7 
REMARK    6  A    between atoms: C_14  and  C_8 
REMARK    7  A    between atoms: C_9  and  C_11 
REMARK    8  A    between atoms: C_25  and  N_19 
REMARK    9  A    between atoms: O_23  and  C_20 
REMARK   10  A    between atoms: O_24  and  C_26 
REMARK   11  A    between atoms: C_26  and  C_25 
ROOT
ATOM      1  N   UNL d   1     -46.685  13.059  22.944  0.00  0.00    -0.279 N 
ENDROOT
BRANCH   1   2
ATOM      2  C   UNL d   1     -45.971  13.430  22.769  0.00  0.00     0.206 C 
ATOM      3  S   UNL d   1     -45.725  14.082  23.217  0.00  0.00    -0.038 SA
BRANCH   2   4
ATOM      4  N   UNL d   1     -45.500  13.153  22.149  0.00  0.00    -0.215 NA
BRANCH   4   5
ATOM      5  C   UNL d   1     -44.702  13.361  22.123  0.00  0.00     0.128 C 
BRANCH   5   6
ATOM      6  C   UNL d   1     -44.138  12.809  21.891  0.00  0.00     0.137 C 
BRANCH   6   7
ATOM      7  O   UNL d   1     -43.728  12.916  21.185  0.00  0.00    -0.325 OA
ATOM      8  C   UNL d   1     -42.933  13.107  21.202  0.00  0.00     0.182 C 
ENDBRANCH   6   7
ENDBRANCH   5   6
ENDBRANCH   4   5
ENDBRANCH   2   4
ENDBRANCH   1   2
BRANCH   1   9
ATOM      9  C   UNL d   1     -47.312  13.079  22.392  0.00  0.00     0.082 C 
BRANCH   9  10
ATOM     10  C   UNL d   1     -47.765  13.767  22.300  0.00  0.00     0.021 C 
BRANCH  10  11
ATOM     11  C   UNL d   1     -48.515  13.728  21.967  0.00  0.00     0.021 A 
ATOM     12  C   UNL d   1     -48.733  13.288  21.290  0.00  0.00     0.082 A 
ATOM     13  N   UNL d   1     -49.537  13.413  21.158  0.00  0.00    -0.246 NA
ATOM     14  C   UNL d   1     -48.226  12.815  20.839  0.00  0.00     0.021 C 
ATOM     15  C   UNL d   1     -49.825  13.922  21.739  0.00  0.00     0.082 A 
ATOM     16  C   UNL d   1     -49.189  14.114  22.237  0.00  0.00     0.021 A 
ATOM     17  C   UNL d   1     -50.573  14.235  21.883  0.00  0.00     0.021 A 
ATOM     18  C   UNL d   1     -49.316  14.620  22.873  0.00  0.00     0.026 A 
ATOM     19  C   UNL d   1     -50.067  14.935  23.019  0.00  0.00     0.094 A 
ATOM     20  C   UNL d   1     -50.691  14.737  22.517  0.00  0.00     0.026 A 
BRANCH  19  21
ATOM     21  O   UNL d   1     -50.190  15.442  23.659  0.00  0.00    -0.328 OA
ATOM     22  C   UNL d   1     -50.888  15.888  23.698  0.00  0.00     0.181 C 
ENDBRANCH  19  21
ENDBRANCH  10  11
ENDBRANCH   9  10
ENDBRANCH   1   9
BRANCH   1  23
ATOM     23  C   UNL d   1     -46.779  12.671  23.661  0.00  0.00     0.107 C 
BRANCH  23  24
ATOM     24  C   UNL d   1     -46.921  11.850  23.674  0.00  0.00     0.118 A 
ATOM     25  O   UNL d   1     -46.343  11.255  23.676  0.00  0.00    -0.304 OA
ATOM     26  C   UNL d   1     -46.730  10.524  23.691  0.00  0.00     0.123 A 
ATOM     27  C   UNL d   1     -47.534  10.669  23.698  0.00  0.00     0.029 A 
ATOM     28  C   UNL d   1     -47.645  11.493  23.688  0.00  0.00     0.028 A 
ENDBRANCH  23  24
ENDBRANCH   1  23
TORSDOF 11
ENDMDL
MODEL 2
REMARK VINA RESULT:      -5.1      5.511      9.218
REMARK  11 active torsions:
REMARK  status: ('A' for Active; 'I' for Inactive)
REMARK    1  A    between atoms: C_8  and  C_1 
REMARK    2  A    between atoms: C_6  and  N_7 
REMARK    3  A    between atoms: N_19  and  C_6 
REMARK    4  A    between atoms: N_7  and  C_14 
REMARK    5  A    between atoms: C_11  and  N_7 
REMARK    6  A    between atoms: C_14  and  C_8 
REMARK    7  A    between atoms: C_9  and  C_11 
REMARK    8  A    between atoms: C_25  and  N_19 
REMARK    9  A    between atoms: O_23  and  C_20 
REMARK   10  A    between atoms: O_24  and  C_26 
REMARK   11  A    between atoms: C_26  and  C_25 
ROOT
ATOM      1  N   UNL d   1     -39.923  15.013  20.884  0.00  0.00    -0.279 N 
ENDROOT
BRANCH   1   2
ATOM      2  C   UNL d   1     -40.734  14.891  20.958  0.00  0.00     0.206 C 
ATOM      3  S   UNL d   1     -41.254  15.534  20.901  0.00  0.00    -0.038 SA
BRANCH   2   4
ATOM      4  N   UNL d   1     -41.030  14.131  21.090  0.00  0.00    -0.215 NA
BRANCH   4   5
ATOM      5  C   UNL d   1     -41.843  13.998  21.036  0.00  0.00     0.128 C 
BRANCH   5   6
ATOM      6  C   UNL d   1     -42.169  13.305  21.335  0.00  0.00     0.137 C 
BRANCH   6   7
ATOM      7  O   UNL d   1     -42.857  13.000  21.000  0.00  0.00    -0.325 OA
ATOM      8  C   UNL d   1     -43.366  12.550  21.454  0.00  0.00     0.182 C 
ENDBRANCH   6   7
ENDBRANCH   5   6
ENDBRANCH   4   5
ENDBRANCH   2   4
ENDBRANCH   1   2
BRANCH   1   9
ATOM      9  C   UNL d   1     -39.476  14.538  20.362  0.00  0.00     0.082 C 
BRANCH   9  10
ATOM     10  C   UNL d   1     -39.056  14.886  19.738  0.00  0.00     0.021 C 
BRANCH  10  11
ATOM     11  C   UNL d   1     -38.847  14.442  19.080  0.00  0.00     0.021 A 
ATOM     12  C   UNL d   1     -38.329  13.784  19.072  0.00  0.00     0.082 A 
ATOM     13  N   UNL d   1     -38.281  13.512  18.296  0.00  0.00    -0.246 NA
ATOM     14  C   UNL d   1     -37.940  13.470  19.731  0.00  0.00     0.021 C 
ATOM     15  C   UNL d   1     -38.758  13.987  17.819  0.00  0.00     0.082 A 
ATOM     16  C   UNL d   1     -39.106  14.560  18.308  0.00  0.00     0.021 A 
ATOM     17  C   UNL d   1     -38.922  13.976  17.012  0.00  0.00     0.021 A 
ATOM     18  C   UNL d   1     -39.614  15.115  17.977  0.00  0.00     0.026 A 
ATOM     19  C   UNL d   1     -39.780  15.105  17.167  0.00  0.00     0.094 A 
ATOM     20  C   UNL d   1     -39.429  14.530  16.690  0.00  0.00     0.026 A 
BRANCH  19  21
ATOM     21  O   UNL d   1     -40.292  15.664  16.839  0.00  0.00    -0.328 OA
ATOM     22  C   UNL d   1     -41.088  15.468  16.718  0.00  0.00     0.181 C 
ENDBRANCH  19  21
ENDBRANCH  10  11
ENDBRANCH   9  10
ENDBRANCH   1   9
BRANCH   1  23
ATOM     23  C   UNL d   1     -39.556  15.601  21.324  0.00  0.00     0.107 C 
BRANCH  23  24
ATOM     24  C   UNL d   1     -39.170  15.407  22.036  0.00  0.00     0.118 A 
ATOM     25  O   UNL d   1     -39.120  14.652  22.375  0.00  0.00    -0.304 OA
ATOM     26  C   UNL d   1     -38.689  14.715  23.078  0.00  0.00     0.123 A 
ATOM     27  C   UNL d   1     -38.477  15.499  23.169  0.00  0.00     0.029 A 
ATOM     28  C   UNL d   1     -38.779  15.922  22.520  0.00  0.00     0.028 A 
ENDBRANCH  23  24
ENDBRANCH   1  23
TORSDOF 11
ENDMDL
MODEL 3
REMARK VINA RESULT:      -4.4      1.203      1.496
REMARK  11 active torsions:
REMARK  status: ('A' for Active; 'I' for Inactive)
REMARK    1  A    between atoms: C_8  and  C_1 
REMARK    2  A    between atoms: C_6  and  N_7 
REMARK    3  A    between atoms: N_19  and  C_6 
REMARK    4  A    between atoms: N_7  and  C_14 
REMARK    5  A    between atoms: C_11  and  N_7 
REMARK    6  A    between atoms: C_14  and  C_8 
REMARK    7  A    between atoms: C_9  and  C_11 
REMARK    8  A    between atoms: C_25  and  N_19 
REMARK    9  A    between atoms: O_23  and  C_20 
REMARK   10  A    between atoms: O_24  and  C_26 
REMARK   11  A    between atoms: C_26  and  C_25 
ROOT
ATOM      1  N   UNL d   1     -46.614  12.934  22.736  0.00  0.00    -0.279 N 
ENDROOT
BRANCH   1   2
ATOM      2  C   UNL d   1     -46.092  12.963  22.100  0.00  0.00     0.206 C 
ATOM      3  S   UNL d   1     -46.350  12.739  21.345  0.00  0.00    -0.038 SA
BRANCH   2   4
ATOM      4  N   UNL d   1     -45.313  13.215  22.213  0.00  0.00    -0.215 NA
BRANCH   4   5
ATOM      5  C   UNL d   1     -44.760  13.102  21.610  0.00  0.00     0.128 C 
BRANCH   5   6
ATOM      6  C   UNL d   1     -43.961  13.235  21.752  0.00  0.00     0.137 C 
BRANCH   6   7
ATOM      7  O   UNL d   1     -43.402  12.701  21.469  0.00  0.00    -0.325 OA
ATOM      8  C   UNL d   1     -42.703  12.976  21.146  0.00  0.00     0.182 C 
ENDBRANCH   6   7
ENDBRANCH   5   6
ENDBRANCH   4   5
ENDBRANCH   2   4
ENDBRANCH   1   2
BRANCH   1   9
ATOM      9  C   UNL d   1     -47.376  13.270  22.667  0.00  0.00     0.082 C 
BRANCH   9  10
ATOM     10  C   UNL d   1     -47.544  13.999  23.022  0.00  0.00     0.021 C 
BRANCH  10  11
ATOM     11  C   UNL d   1     -48.231  14.406  22.830  0.00  0.00     0.021 A 
ATOM     12  C   UNL d   1     -48.276  15.158  22.466  0.00  0.00     0.082 A 
ATOM     13  N   UNL d   1     -49.073  15.348  22.380  0.00  0.00    -0.246 NA
ATOM     14  C   UNL d   1     -47.629  15.620  22.236  0.00  0.00     0.021 C 
ATOM     15  C   UNL d   1     -49.527  14.730  22.684  0.00  0.00     0.082 A 
ATOM     16  C   UNL d   1     -49.002  14.150  22.961  0.00  0.00     0.021 A 
ATOM     17  C   UNL d   1     -50.340  14.616  22.746  0.00  0.00     0.021 A 
ATOM     18  C   UNL d   1     -49.304  13.463  23.297  0.00  0.00     0.026 A 
ATOM     19  C   UNL d   1     -50.120  13.347  23.360  0.00  0.00     0.094 A 
ATOM     20  C   UNL d   1     -50.633  13.931  23.081  0.00  0.00     0.026 A 
BRANCH  19  21
ATOM     21  O   UNL d   1     -50.420  12.656  23.698  0.00  0.00    -0.328 OA
ATOM     22  C   UNL d   1     -50.650  12.028  23.208  0.00  0.00     0.181 C 
ENDBRANCH  19  21
ENDBRANCH  10  11
ENDBRANCH   9  10
ENDBRANCH   1   9
BRANCH   1  23
ATOM     23  C   UNL d   1     -46.384  12.574  23.437  0.00  0.00     0.107 C 
BRANCH  23  24
ATOM     24  C   UNL d   1     -46.494  11.755  23.540  0.00  0.00     0.118 A 
ATOM     25  O   UNL d   1     -45.894  11.186  23.601  0.00  0.00    -0.304 OA
ATOM     26  C   UNL d   1     -46.252  10.447  23.698  0.00  0.00     0.123 A 
ATOM     27  C   UNL d   1     -47.061  10.561  23.696  0.00  0.00     0.029 A 
ATOM     28  C   UNL d   1     -47.203  11.374  23.598  0.00  0.00     0.028 A 
ENDBRANCH  23  24
ENDBRANCH   1  23
TORSDOF 11
ENDMDL
MODEL 4
REMARK VINA RESULT:      -4.2      6.685      9.419
REMARK  11 active torsions:
REMARK  status: ('A' for Active; 'I' for Inactive)
REMARK    1  A    between atoms: C_8  and  C_1 
REMARK    2  A    between atoms: C_6  and  N_7 
REMARK    3  A    between atoms: N_19  and  C_6 
REMARK    4  A    between atoms: N_7  and  C_14 
REMARK    5  A    between atoms: C_11  and  N_7 
REMARK    6  A    between atoms: C_14  and  C_8 
REMARK    7  A    between atoms: C_9  and  C_11 
REMARK    8  A    between atoms: C_25  and  N_19 
REMARK    9  A    between atoms: O_23  and  C_20 
REMARK   10  A    between atoms: O_24  and  C_26 
REMARK   11  A    between atoms: C_26  and  C_25 
ROOT
ATOM      1  N   UNL d   1     -39.544  14.426  17.614  0.00  0.00    -0.279 N 
ENDROOT
BRANCH   1   2
ATOM      2  C   UNL d   1     -39.792  15.053  17.142  0.00  0.00     0.206 C 
ATOM      3  S   UNL d   1     -39.231  15.516  16.744  0.00  0.00    -0.038 SA
BRANCH   2   4
ATOM      4  N   UNL d   1     -40.597  15.224  17.065  0.00  0.00    -0.215 NA
BRANCH   4   5
ATOM      5  C   UNL d   1     -40.888  15.488  16.340  0.00  0.00     0.128 C 
BRANCH   5   6
ATOM      6  C   UNL d   1     -41.585  15.921  16.307  0.00  0.00     0.137 C 
BRANCH   6   7
ATOM      7  O   UNL d   1     -42.295  15.540  16.136  0.00  0.00    -0.325 OA
ATOM      8  C   UNL d   1     -42.820  15.874  15.606  0.00  0.00     0.182 C 
ENDBRANCH   6   7
ENDBRANCH   5   6
ENDBRANCH   4   5
ENDBRANCH   2   4
ENDBRANCH   1   2
BRANCH   1   9
ATOM      9  C   UNL d   1     -39.179  14.575  18.350  0.00  0.00     0.082 C 
BRANCH   9  10
ATOM     10  C   UNL d   1     -39.520  15.111  18.883  0.00  0.00     0.021 C 
BRANCH  10  11
ATOM     11  C   UNL d   1     -39.372  15.045  19.688  0.00  0.00     0.021 A 
ATOM     12  C   UNL d   1     -38.681  15.299  20.087  0.00  0.00     0.082 A 
ATOM     13  N   UNL d   1     -38.773  15.123  20.886  0.00  0.00    -0.246 NA
ATOM     14  C   UNL d   1     -38.026  15.660  19.732  0.00  0.00     0.021 C 
ATOM     15  C   UNL d   1     -39.509  14.766  20.996  0.00  0.00     0.082 A 
ATOM     16  C   UNL d   1     -39.875  14.720  20.252  0.00  0.00     0.021 A 
ATOM     17  C   UNL d   1     -39.892  14.478  21.665  0.00  0.00     0.021 A 
ATOM     18  C   UNL d   1     -40.623  14.384  20.194  0.00  0.00     0.026 A 
ATOM     19  C   UNL d   1     -41.010  14.094  20.865  0.00  0.00     0.094 A 
ATOM     20  C   UNL d   1     -40.635  14.146  21.599  0.00  0.00     0.026 A 
BRANCH  19  21
ATOM     21  O   UNL d   1     -41.761  13.758  20.802  0.00  0.00    -0.328 OA
ATOM     22  C   UNL d   1     -42.302  13.847  21.424  0.00  0.00     0.181 C 
ENDBRANCH  19  21
ENDBRANCH  10  11
ENDBRANCH   9  10
ENDBRANCH   1   9
BRANCH   1  23
ATOM     23  C   UNL d   1     -39.656  13.654  17.358  0.00  0.00     0.107 C 
BRANCH  23  24
ATOM     24  C   UNL d   1     -39.020  13.116  17.369  0.00  0.00     0.118 A 
ATOM     25  O   UNL d   1     -38.832  12.594  17.986  0.00  0.00    -0.304 OA
ATOM     26  C   UNL d   1     -38.161  12.166  17.762  0.00  0.00     0.123 A 
ATOM     27  C   UNL d   1     -37.941  12.420  17.018  0.00  0.00     0.029 A 
ATOM     28  C   UNL d   1     -38.478  13.009  16.780  0.00  0.00     0.028 A 
ENDBRANCH  23  24
ENDBRANCH   1  23
TORSDOF 11
ENDMDL
MODEL 5
REMARK VINA RESULT:      -3.0      5.846      9.761
REMARK  11 active torsions:
REMARK  status: ('A' for Active; 'I' for Inactive)
REMARK    1  A    between atoms: C_8  and  C_1 
REMARK    2  A    between atoms: C_6  and  N_7 
REMARK    3  A    between atoms: N_19  and  C_6 
REMARK    4  A    between atoms: N_7  and  C_14 
REMARK    5  A    between atoms: C_11  and  N_7 
REMARK    6  A    between atoms: C_14  and  C_8 
REMARK    7  A    between atoms: C_9  and  C_11 
REMARK    8  A    between atoms: C_25  and  N_19 
REMARK    9  A    between atoms: O_23  and  C_20 
REMARK   10  A    between atoms: O_24  and  C_26 
REMARK   11  A    between atoms: C_26  and  C_25 
ROOT
ATOM      1  N   UNL d   1     -40.227  15.127  19.576  0.00  0.00    -0.279 N 
ENDROOT
BRANCH   1   2
ATOM      2  C   UNL d   1     -40.980  14.898  19.815  0.00  0.00     0.206 C 
ATOM      3  S   UNL d   1     -41.600  15.447  19.806  0.00  0.00    -0.038 SA
BRANCH   2   4
ATOM      4  N   UNL d   1     -41.119  14.122  20.065  0.00  0.00    -0.215 NA
BRANCH   4   5
ATOM      5  C   UNL d   1     -41.879  13.902  20.299  0.00  0.00     0.128 C 
BRANCH   5   6
ATOM      6  C   UNL d   1     -41.992  13.484  20.997  0.00  0.00     0.137 C 
BRANCH   6   7
ATOM      7  O   UNL d   1     -42.317  12.727  20.973  0.00  0.00    -0.325 OA
ATOM      8  C   UNL d   1     -42.943  12.537  21.462  0.00  0.00     0.182 C 
ENDBRANCH   6   7
ENDBRANCH   5   6
ENDBRANCH   4   5
ENDBRANCH   2   4
ENDBRANCH   1   2
BRANCH   1   9
ATOM      9  C   UNL d   1     -39.835  14.706  18.970  0.00  0.00     0.082 C 
BRANCH   9  10
ATOM     10  C   UNL d   1     -40.135  14.710  18.198  0.00  0.00     0.021 C 
BRANCH  10  11
ATOM     11  C   UNL d   1     -39.628  14.634  17.556  0.00  0.00     0.021 A 
ATOM     12  C   UNL d   1     -39.523  15.192  16.940  0.00  0.00     0.082 A 
ATOM     13  N   UNL d   1     -38.964  14.886  16.418  0.00  0.00    -0.246 NA
ATOM     14  C   UNL d   1     -39.915  15.918  16.876  0.00  0.00     0.021 C 
ATOM     15  C   UNL d   1     -38.718  14.149  16.695  0.00  0.00     0.082 A 
ATOM     16  C   UNL d   1     -39.131  13.998  17.398  0.00  0.00     0.021 A 
ATOM     17  C   UNL d   1     -38.178  13.599  16.405  0.00  0.00     0.021 A 
ATOM     18  C   UNL d   1     -38.995  13.294  17.801  0.00  0.00     0.026 A 
ATOM     19  C   UNL d   1     -38.453  12.740  17.511  0.00  0.00     0.094 A 
ATOM     20  C   UNL d   1     -38.048  12.902  16.810  0.00  0.00     0.026 A 
BRANCH  19  21
ATOM     21  O   UNL d   1     -38.319  12.035  17.917  0.00  0.00    -0.328 OA
ATOM     22  C   UNL d   1     -38.024  12.059  18.692  0.00  0.00     0.181 C 
ENDBRANCH  19  21
ENDBRANCH  10  11
ENDBRANCH   9  10
ENDBRANCH   1   9
BRANCH   1  23
ATOM     23  C   UNL d   1     -39.862  15.770  19.933  0.00  0.00     0.107 C 
BRANCH  23  24
ATOM     24  C   UNL d   1     -39.192  15.654  20.414  0.00  0.00     0.118 A 
ATOM     25  O   UNL d   1     -39.186  15.302  21.166  0.00  0.00    -0.304 OA
ATOM     26  C   UNL d   1     -38.405  15.301  21.440  0.00  0.00     0.123 A 
ATOM     27  C   UNL d   1     -37.940  15.647  20.865  0.00  0.00     0.029 A 
ATOM     28  C   UNL d   1     -38.434  15.863  20.233  0.00  0.00     0.028 A 
ENDBRANCH  23  24
ENDBRANCH   1  23
TORSDOF 11
ENDMDL
