MODEL 1
REMARK VINA RESULT:      66.6      0.000      0.000
REMARK  3 active torsions:
REMARK  status: ('A' for Active; 'I' for Inactive)
REMARK    1  A    between atoms: N_4  and  C_1 
REMARK    2  A    between atoms: C_11  and  C_3 
REMARK       I    between atoms: C_5  and  N_4 
REMARK    3  A    between atoms: C_8  and  C_5 
ROOT
ATOM      1  N   UNL d   1     -56.152 -98.755 -45.246  0.00  0.00    -0.183 NA
ATOM      2  C   UNL d   1     -55.529 -99.276 -45.094  0.00  0.00     0.281 C 
ATOM      3  O   UNL d   1     -54.765 -99.077 -45.355  0.00  0.00    -0.265 OA
ENDROOT
BRANCH   1   4
ATOM      4  C   UNL d   1     -56.916 -98.932 -44.997  0.00  0.00     0.197 A 
ATOM      5  N   UNL d   1     -57.213 -98.811 -44.233  0.00  0.00    -0.219 NA
ATOM      6  C   UNL d   1     -58.007 -99.066 -44.224  0.00  0.00     0.108 A 
ATOM      7  C   UNL d   1     -58.194 -99.342 -44.982  0.00  0.00     0.059 A 
ATOM      8  S   UNL d   1     -57.517 -99.259 -45.461  0.00  0.00    -0.046 SA
BRANCH   6   9
ATOM      9  C   UNL d   1     -58.518 -99.045 -43.567  0.00  0.00     0.100 A 
ATOM     10  N   UNL d   1     -58.238 -98.791 -42.841  0.00  0.00    -0.242 NA
ATOM     11  C   UNL d   1     -58.737 -98.766 -42.184  0.00  0.00     0.099 A 
ATOM     12  C   UNL d   1     -59.520 -99.004 -42.277  0.00  0.00     0.021 A 
ATOM     13  C   UNL d   1     -59.795 -99.256 -42.999  0.00  0.00     0.003 A 
ATOM     14  C   UNL d   1     -59.309 -99.284 -43.657  0.00  0.00     0.021 A 
ENDBRANCH   6   9
ENDBRANCH   1   4
BRANCH   2  15
ATOM     15  C   UNL d   1     -55.701 -99.983 -44.680  0.00  0.00     0.060 A 
ATOM     16  C   UNL d   1     -55.124-100.347 -44.222  0.00  0.00     0.032 A 
ATOM     17  C   UNL d   1     -55.291-101.044 -43.813  0.00  0.00     0.123 A 
ATOM     18  O   UNL d   1     -54.712-101.412 -43.352  0.00  0.00    -0.301 OA
ATOM     19  C   UNL d   1     -56.057-101.371 -43.874  0.00  0.00     0.123 A 
ATOM     20  C   UNL d   1     -54.884-102.112 -42.943  0.00  0.00     0.149 A 
ATOM     21  C   UNL d   1     -55.652-102.442 -43.002  0.00  0.00     0.149 A 
ATOM     22  O   UNL d   1     -56.229-102.078 -43.460  0.00  0.00    -0.301 OA
ATOM     23  C   UNL d   1     -56.628-101.005 -44.331  0.00  0.00     0.027 A 
ATOM     24  C   UNL d   1     -56.454-100.310 -44.736  0.00  0.00     0.007 A 
ENDBRANCH   2  15
TORSDOF 3
ENDMDL
MODEL 2
REMARK VINA RESULT:      67.5      1.220      1.571
REMARK  3 active torsions:
REMARK  status: ('A' for Active; 'I' for Inactive)
REMARK    1  A    between atoms: N_4  and  C_1 
REMARK    2  A    between atoms: C_11  and  C_3 
REMARK       I    between atoms: C_5  and  N_4 
REMARK    3  A    between atoms: C_8  and  C_5 
ROOT
ATOM      1  N   UNL d   1     -55.597-100.218 -45.236  0.00  0.00    -0.183 NA
ATOM      2  C   UNL d   1     -55.249-100.919 -44.973  0.00  0.00     0.281 C 
ATOM      3  O   UNL d   1     -54.778-101.357 -45.499  0.00  0.00    -0.265 OA
ENDROOT
BRANCH   1   4
ATOM      4  C   UNL d   1     -56.067 -99.768 -44.731  0.00  0.00     0.197 A 
ATOM      5  N   UNL d   1     -56.894 -99.788 -44.699  0.00  0.00    -0.219 NA
ATOM      6  C   UNL d   1     -57.140 -99.248 -44.113  0.00  0.00     0.108 A 
ATOM      7  C   UNL d   1     -56.463 -98.900 -43.788  0.00  0.00     0.059 A 
ATOM      8  S   UNL d   1     -55.798 -99.223 -44.172  0.00  0.00    -0.046 SA
BRANCH   6   9
ATOM      9  C   UNL d   1     -57.928 -99.090 -43.896  0.00  0.00     0.100 A 
ATOM     10  N   UNL d   1     -58.514 -99.078 -44.468  0.00  0.00    -0.242 NA
ATOM     11  C   UNL d   1     -59.299 -98.922 -44.262  0.00  0.00     0.099 A 
ATOM     12  C   UNL d   1     -59.475 -98.780 -43.472  0.00  0.00     0.021 A 
ATOM     13  C   UNL d   1     -58.892 -98.792 -42.905  0.00  0.00     0.003 A 
ATOM     14  C   UNL d   1     -58.111 -98.945 -43.098  0.00  0.00     0.021 A 
ENDBRANCH   6   9
ENDBRANCH   1   4
BRANCH   2  15
ATOM     15  C   UNL d   1     -55.389-101.154 -44.181  0.00  0.00     0.060 A 
ATOM     16  C   UNL d   1     -55.010-100.771 -43.561  0.00  0.00     0.032 A 
ATOM     17  C   UNL d   1     -55.147-101.000 -42.780  0.00  0.00     0.123 A 
ATOM     18  O   UNL d   1     -54.766-100.616 -42.155  0.00  0.00    -0.301 OA
ATOM     19  C   UNL d   1     -55.678-101.628 -42.633  0.00  0.00     0.123 A 
ATOM     20  C   UNL d   1     -54.907-100.850 -41.373  0.00  0.00     0.149 A 
ATOM     21  C   UNL d   1     -55.439-101.479 -41.222  0.00  0.00     0.149 A 
ATOM     22  O   UNL d   1     -55.819-101.862 -41.842  0.00  0.00    -0.301 OA
ATOM     23  C   UNL d   1     -56.053-102.006 -43.255  0.00  0.00     0.027 A 
ATOM     24  C   UNL d   1     -55.912-101.772 -44.031  0.00  0.00     0.007 A 
ENDBRANCH   2  15
TORSDOF 3
ENDMDL
