MODEL 1
REMARK VINA RESULT:      -2.4      0.000      0.000
REMARK  5 active torsions:
REMARK  status: ('A' for Active; 'I' for Inactive)
REMARK    1  A    between atoms: C_10  and  N_3 
REMARK    2  A    between atoms: C_11  and  N_8 
REMARK    3  A    between atoms: C_14  and  C_10 
REMARK    4  A    between atoms: C_19  and  C_11 
REMARK    5  A    between atoms: C_20  and  C_19 
ROOT
ATOM      1  C   UNL d   1      33.232  21.600 -23.559  0.00  0.00     0.174 A 
ATOM      2  C   UNL d   1      33.231  20.886 -23.101  0.00  0.00     0.158 A 
ATOM      3  N   UNL d   1      33.224  21.661 -21.892  0.00  0.00    -0.219 N 
ATOM      4  N   UNL d   1      33.236  21.388 -24.332  0.00  0.00    -0.203 NA
ATOM      5  N   UNL d   1      33.230  22.325 -23.167  0.00  0.00    -0.240 N 
ATOM      6  C   UNL d   1      33.226  22.375 -22.350  0.00  0.00     0.343 A 
ATOM      7  C   UNL d   1      33.227  20.916 -22.263  0.00  0.00     0.287 A 
ATOM      8  N   UNL d   1      33.234  20.249 -23.601  0.00  0.00    -0.279 N 
ATOM      9  C   UNL d   1      33.237  20.549 -24.366  0.00  0.00     0.185 A 
ATOM     10  O   UNL d   1      33.223  23.122 -21.967  0.00  0.00    -0.245 OA
ATOM     11  O   UNL d   1      33.226  20.216 -21.815  0.00  0.00    -0.265 OA
ATOM     12 BR   UNL d   1      33.241  20.039 -25.047  0.00  0.00    -0.008 Br
ATOM     13  C   UNL d   1      33.231  23.044 -23.628  0.00  0.00     0.105 C 
ENDROOT
BRANCH   8  14
ATOM     14  C   UNL d   1      33.234  19.416 -23.422  0.00  0.00     0.082 C 
BRANCH  14  15
ATOM     15  C   UNL d   1      32.589  18.920 -23.532  0.00  0.00     0.019 C 
BRANCH  15  16
ATOM     16  C   UNL d   1      32.637  18.114 -23.461  0.00  0.00     0.002 C 
ATOM     17  C   UNL d   1      33.229  17.767 -23.020  0.00  0.00     0.000 C 
ATOM     18  C   UNL d   1      32.064  17.648 -23.851  0.00  0.00     0.000 C 
ENDBRANCH  15  16
ENDBRANCH  14  15
ENDBRANCH   8  14
BRANCH   3  19
ATOM     19  C   UNL d   1      33.220  21.693 -21.050  0.00  0.00     0.151 C 
BRANCH  19  20
ATOM     20  C   UNL d   1      32.538  21.900 -20.648  0.00  0.00     0.315 C 
ATOM     21  O   UNL d   1      31.847  21.453 -20.729  0.00  0.00    -0.262 OA
ATOM     22  N   UNL d   1      32.548  22.561 -20.159  0.00  0.00    -0.101 N 
ENDBRANCH  19  20
ENDBRANCH   3  19
TORSDOF 5
ENDMDL
MODEL 2
REMARK VINA RESULT:      -1.7      4.849      5.797
REMARK  5 active torsions:
REMARK  status: ('A' for Active; 'I' for Inactive)
REMARK    1  A    between atoms: C_10  and  N_3 
REMARK    2  A    between atoms: C_11  and  N_8 
REMARK    3  A    between atoms: C_14  and  C_10 
REMARK    4  A    between atoms: C_19  and  C_11 
REMARK    5  A    between atoms: C_20  and  C_19 
ROOT
ATOM      1  C   UNL d   1      29.941  17.691 -24.739  0.00  0.00     0.174 A 
ATOM      2  C   UNL d   1      30.332  16.948 -24.617  0.00  0.00     0.158 A 
ATOM      3  N   UNL d   1      29.068  16.329 -24.335  0.00  0.00    -0.219 N 
ATOM      4  N   UNL d   1      30.505  18.230 -24.924  0.00  0.00    -0.203 NA
ATOM      5  N   UNL d   1      29.123  17.730 -24.655  0.00  0.00    -0.240 N 
ATOM      6  C   UNL d   1      28.677  17.072 -24.457  0.00  0.00     0.343 A 
ATOM      7  C   UNL d   1      29.894  16.264 -24.414  0.00  0.00     0.287 A 
ATOM      8  N   UNL d   1      31.128  17.045 -24.729  0.00  0.00    -0.279 N 
ATOM      9  C   UNL d   1      31.246  17.835 -24.920  0.00  0.00     0.185 A 
ATOM     10  O   UNL d   1      27.843  17.129 -24.375  0.00  0.00    -0.245 OA
ATOM     11  O   UNL d   1      30.277  15.536 -24.294  0.00  0.00    -0.265 OA
ATOM     12 BR   UNL d   1      32.021  18.148 -25.078  0.00  0.00    -0.008 Br
ATOM     13  C   UNL d   1      28.729  18.477 -24.778  0.00  0.00     0.105 C 
ENDROOT
BRANCH   8  14
ATOM     14  C   UNL d   1      31.760  16.475 -24.673  0.00  0.00     0.082 C 
BRANCH  14  15
ATOM     15  C   UNL d   1      32.353  16.498 -24.106  0.00  0.00     0.019 C 
BRANCH  15  16
ATOM     16  C   UNL d   1      32.843  15.870 -23.958  0.00  0.00     0.002 C 
ATOM     17  C   UNL d   1      33.186  15.453 -24.570  0.00  0.00     0.000 C 
ATOM     18  C   UNL d   1      32.989  15.662 -23.163  0.00  0.00     0.000 C 
ENDBRANCH  15  16
ENDBRANCH  14  15
ENDBRANCH   8  14
BRANCH   3  19
ATOM     19  C   UNL d   1      28.625  15.642 -24.130  0.00  0.00     0.151 C 
BRANCH  19  20
ATOM     20  C   UNL d   1      28.314  15.560 -23.377  0.00  0.00     0.315 C 
ATOM     21  O   UNL d   1      28.810  15.487 -22.720  0.00  0.00    -0.262 OA
ATOM     22  N   UNL d   1      27.497  15.551 -23.282  0.00  0.00    -0.101 N 
ENDBRANCH  19  20
ENDBRANCH   3  19
TORSDOF 5
ENDMDL
MODEL 3
REMARK VINA RESULT:      -1.5      4.301      5.825
REMARK  5 active torsions:
REMARK  status: ('A' for Active; 'I' for Inactive)
REMARK    1  A    between atoms: C_10  and  N_3 
REMARK    2  A    between atoms: C_11  and  N_8 
REMARK    3  A    between atoms: C_14  and  C_10 
REMARK    4  A    between atoms: C_19  and  C_11 
REMARK    5  A    between atoms: C_20  and  C_19 
ROOT
ATOM      1  C   UNL d   1      30.144  15.941 -23.387  0.00  0.00     0.174 A 
ATOM      2  C   UNL d   1      30.559  16.438 -23.935  0.00  0.00     0.158 A 
ATOM      3  N   UNL d   1      29.307  16.938 -24.429  0.00  0.00    -0.219 N 
ATOM      4  N   UNL d   1      30.695  15.534 -22.970  0.00  0.00    -0.203 NA
ATOM      5  N   UNL d   1      29.321  15.958 -23.377  0.00  0.00    -0.240 N 
ATOM      6  C   UNL d   1      28.892  16.441 -23.881  0.00  0.00     0.343 A 
ATOM      7  C   UNL d   1      30.139  16.939 -24.459  0.00  0.00     0.287 A 
ATOM      8  N   UNL d   1      31.356  16.327 -23.844  0.00  0.00    -0.279 N 
ATOM      9  C   UNL d   1      31.451  15.769 -23.249  0.00  0.00     0.185 A 
ATOM     10  O   UNL d   1      28.053  16.447 -23.858  0.00  0.00    -0.245 OA
ATOM     11  O   UNL d   1      30.546  17.426 -24.996  0.00  0.00    -0.265 OA
ATOM     12 BR   UNL d   1      32.221  15.509 -22.997  0.00  0.00    -0.008 Br
ATOM     13  C   UNL d   1      28.903  15.458 -22.826  0.00  0.00     0.105 C 
ENDROOT
BRANCH   8  14
ATOM     14  C   UNL d   1      32.007  16.690 -24.257  0.00  0.00     0.082 C 
BRANCH  14  15
ATOM     15  C   UNL d   1      32.587  17.146 -23.895  0.00  0.00     0.019 C 
BRANCH  15  16
ATOM     16  C   UNL d   1      33.021  17.702 -24.293  0.00  0.00     0.002 C 
ATOM     17  C   UNL d   1      33.241  18.400 -23.931  0.00  0.00     0.000 C 
ATOM     18  C   UNL d   1      33.237  17.543 -25.084  0.00  0.00     0.000 C 
ENDBRANCH  15  16
ENDBRANCH  14  15
ENDBRANCH   8  14
BRANCH   3  19
ATOM     19  C   UNL d   1      28.883  17.442 -24.954  0.00  0.00     0.151 C 
BRANCH  19  20
ATOM     20  C   UNL d   1      28.735  18.221 -24.751  0.00  0.00     0.315 C 
ATOM     21  O   UNL d   1      28.029  18.434 -24.376  0.00  0.00    -0.262 OA
ATOM     22  N   UNL d   1      29.300  18.793 -24.924  0.00  0.00    -0.101 N 
ENDBRANCH  19  20
ENDBRANCH   3  19
TORSDOF 5
ENDMDL
MODEL 4
REMARK VINA RESULT:      -0.4      3.392      5.368
REMARK  5 active torsions:
REMARK  status: ('A' for Active; 'I' for Inactive)
REMARK    1  A    between atoms: C_10  and  N_3 
REMARK    2  A    between atoms: C_11  and  N_8 
REMARK    3  A    between atoms: C_14  and  C_10 
REMARK    4  A    between atoms: C_19  and  C_11 
REMARK    5  A    between atoms: C_20  and  C_19 
ROOT
ATOM      1  C   UNL d   1      31.148  16.044 -23.521  0.00  0.00     0.174 A 
ATOM      2  C   UNL d   1      30.784  16.669 -23.963  0.00  0.00     0.158 A 
ATOM      3  N   UNL d   1      32.054  17.330 -24.075  0.00  0.00    -0.219 N 
ATOM      4  N   UNL d   1      30.574  15.516 -23.337  0.00  0.00    -0.203 NA
ATOM      5  N   UNL d   1      31.957  16.082 -23.368  0.00  0.00    -0.240 N 
ATOM      6  C   UNL d   1      32.418  16.705 -23.632  0.00  0.00     0.343 A 
ATOM      7  C   UNL d   1      31.238  17.316 -24.242  0.00  0.00     0.287 A 
ATOM      8  N   UNL d   1      29.993  16.513 -24.043  0.00  0.00    -0.279 N 
ATOM      9  C   UNL d   1      29.852  15.801 -23.659  0.00  0.00     0.185 A 
ATOM     10  O   UNL d   1      33.241  16.729 -23.468  0.00  0.00    -0.245 OA
ATOM     11  O   UNL d   1      30.881  17.928 -24.676  0.00  0.00    -0.265 OA
ATOM     12 BR   UNL d   1      29.076  15.455 -23.625  0.00  0.00    -0.008 Br
ATOM     13  C   UNL d   1      32.324  15.453 -22.923  0.00  0.00     0.105 C 
ENDROOT
BRANCH   8  14
ATOM     14  C   UNL d   1      29.386  16.963 -24.436  0.00  0.00     0.082 C 
BRANCH  14  15
ATOM     15  C   UNL d   1      28.668  17.167 -24.094  0.00  0.00     0.019 C 
BRANCH  15  16
ATOM     16  C   UNL d   1      28.332  17.899 -24.181  0.00  0.00     0.002 C 
ATOM     17  C   UNL d   1      28.033  18.303 -23.538  0.00  0.00     0.000 C 
ATOM     18  C   UNL d   1      28.299  18.230 -24.947  0.00  0.00     0.000 C 
ENDBRANCH  15  16
ENDBRANCH  14  15
ENDBRANCH   8  14
BRANCH   3  19
ATOM     19  C   UNL d   1      32.512  17.979 -24.354  0.00  0.00     0.151 C 
BRANCH  19  20
ATOM     20  C   UNL d   1      32.622  18.641 -23.883  0.00  0.00     0.315 C 
ATOM     21  O   UNL d   1      32.364  18.648 -23.098  0.00  0.00    -0.262 OA
ATOM     22  N   UNL d   1      32.995  19.300 -24.202  0.00  0.00    -0.101 N 
ENDBRANCH  19  20
ENDBRANCH   3  19
TORSDOF 5
ENDMDL
MODEL 5
REMARK VINA RESULT:      -0.2      1.296      2.216
REMARK  5 active torsions:
REMARK  status: ('A' for Active; 'I' for Inactive)
REMARK    1  A    between atoms: C_10  and  N_3 
REMARK    2  A    between atoms: C_11  and  N_8 
REMARK    3  A    between atoms: C_14  and  C_10 
REMARK    4  A    between atoms: C_19  and  C_11 
REMARK    5  A    between atoms: C_20  and  C_19 
ROOT
ATOM      1  C   UNL d   1      33.038  21.088 -21.794  0.00  0.00     0.174 A 
ATOM      2  C   UNL d   1      33.061  20.935 -22.628  0.00  0.00     0.158 A 
ATOM      3  N   UNL d   1      33.171  22.344 -22.882  0.00  0.00    -0.219 N 
ATOM      4  N   UNL d   1      32.973  20.380 -21.423  0.00  0.00    -0.203 NA
ATOM      5  N   UNL d   1      33.083  21.867 -21.529  0.00  0.00    -0.240 N 
ATOM      6  C   UNL d   1      33.149  22.497 -22.048  0.00  0.00     0.343 A 
ATOM      7  C   UNL d   1      33.128  21.566 -23.175  0.00  0.00     0.287 A 
ATOM      8  N   UNL d   1      33.009  20.137 -22.753  0.00  0.00    -0.279 N 
ATOM      9  C   UNL d   1      32.954  19.784 -22.014  0.00  0.00     0.185 A 
ATOM     10  O   UNL d   1      33.193  23.285 -21.762  0.00  0.00    -0.245 OA
ATOM     11  O   UNL d   1      33.150  21.416 -23.992  0.00  0.00    -0.265 OA
ATOM     12 BR   UNL d   1      32.890  18.941 -21.924  0.00  0.00    -0.008 Br
ATOM     13  C   UNL d   1      33.060  22.020 -20.689  0.00  0.00     0.105 C 
ENDROOT
BRANCH   8  14
ATOM     14  C   UNL d   1      33.007  19.700 -23.485  0.00  0.00     0.082 C 
BRANCH  14  15
ATOM     15  C   UNL d   1      32.506  19.070 -23.645  0.00  0.00     0.019 C 
BRANCH  15  16
ATOM     16  C   UNL d   1      32.604  18.581 -24.284  0.00  0.00     0.002 C 
ATOM     17  C   UNL d   1      33.092  17.928 -24.241  0.00  0.00     0.000 C 
ATOM     18  C   UNL d   1      32.194  18.763 -24.988  0.00  0.00     0.000 C 
ENDBRANCH  15  16
ENDBRANCH  14  15
ENDBRANCH   8  14
BRANCH   3  19
ATOM     19  C   UNL d   1      33.239  22.980 -23.431  0.00  0.00     0.151 C 
BRANCH  19  20
ATOM     20  C   UNL d   1      32.569  23.297 -23.780  0.00  0.00     0.315 C 
ATOM     21  O   UNL d   1      31.849  23.316 -23.375  0.00  0.00    -0.262 OA
ATOM     22  N   UNL d   1      32.623  23.598 -24.544  0.00  0.00    -0.101 N 
ENDBRANCH  19  20
ENDBRANCH   3  19
TORSDOF 5
ENDMDL
MODEL 6
REMARK VINA RESULT:       0.4      2.004      3.340
REMARK  5 active torsions:
REMARK  status: ('A' for Active; 'I' for Inactive)
REMARK    1  A    between atoms: C_10  and  N_3 
REMARK    2  A    between atoms: C_11  and  N_8 
REMARK    3  A    between atoms: C_14  and  C_10 
REMARK    4  A    between atoms: C_19  and  C_11 
REMARK    5  A    between atoms: C_20  and  C_19 
ROOT
ATOM      1  C   UNL d   1      33.232  21.077 -20.965  0.00  0.00     0.174 A 
ATOM      2  C   UNL d   1      33.235  21.875 -21.253  0.00  0.00     0.158 A 
ATOM      3  N   UNL d   1      33.233  22.362 -19.902  0.00  0.00    -0.219 N 
ATOM      4  N   UNL d   1      33.233  20.592 -21.604  0.00  0.00    -0.203 NA
ATOM      5  N   UNL d   1      33.230  20.946 -20.152  0.00  0.00    -0.240 N 
ATOM      6  C   UNL d   1      33.230  21.564 -19.614  0.00  0.00     0.343 A 
ATOM      7  C   UNL d   1      33.236  22.521 -20.720  0.00  0.00     0.287 A 
ATOM      8  N   UNL d   1      33.238  21.865 -22.063  0.00  0.00    -0.279 N 
ATOM      9  C   UNL d   1      33.236  21.076 -22.291  0.00  0.00     0.185 A 
ATOM     10  O   UNL d   1      33.227  21.413 -18.788  0.00  0.00    -0.245 OA
ATOM     11  O   UNL d   1      33.238  23.303 -21.001  0.00  0.00    -0.265 OA
ATOM     12 BR   UNL d   1      33.238  20.846 -23.109  0.00  0.00    -0.008 Br
ATOM     13  C   UNL d   1      33.227  20.143 -19.862  0.00  0.00     0.105 C 
ENDROOT
BRANCH   8  14
ATOM     14  C   UNL d   1      33.241  22.515 -22.615  0.00  0.00     0.082 C 
BRANCH  14  15
ATOM     15  C   UNL d   1      32.918  22.481 -23.369  0.00  0.00     0.019 C 
BRANCH  15  16
ATOM     16  C   UNL d   1      32.649  23.136 -23.761  0.00  0.00     0.002 C 
ATOM     17  C   UNL d   1      31.874  23.381 -23.685  0.00  0.00     0.000 C 
ATOM     18  C   UNL d   1      33.184  23.555 -24.247  0.00  0.00     0.000 C 
ENDBRANCH  15  16
ENDBRANCH  14  15
ENDBRANCH   8  14
BRANCH   3  19
ATOM     19  C   UNL d   1      33.233  23.010 -19.364  0.00  0.00     0.151 C 
BRANCH  19  20
ATOM     20  C   UNL d   1      32.537  23.247 -19.002  0.00  0.00     0.315 C 
ATOM     21  O   UNL d   1      31.879  23.463 -19.453  0.00  0.00    -0.262 OA
ATOM     22  N   UNL d   1      32.502  23.268 -18.181  0.00  0.00    -0.101 N 
ENDBRANCH  19  20
ENDBRANCH   3  19
TORSDOF 5
ENDMDL
