MODEL 1
REMARK VINA RESULT:      20.0      0.000      0.000
REMARK  1 active torsions:
REMARK  status: ('A' for Active; 'I' for Inactive)
REMARK    1  A    between atoms: C_9  and  N_4 
ROOT
ATOM      1  C   UNL d   1      46.258 -18.711  43.612  0.00  0.00     0.096 A 
ATOM      2  C   UNL d   1      46.245 -18.407  42.855  0.00  0.00     0.109 A 
ATOM      3  N   UNL d   1      46.093 -17.602  42.899  0.00  0.00    -0.162 NA
ATOM      4  N   UNL d   1      46.013 -17.413  43.699  0.00  0.00    -0.195 N 
ATOM      5  C   UNL d   1      46.115 -18.097  44.133  0.00  0.00     0.283 A 
ATOM      6  C   UNL d   1      46.401 -19.521  43.737  0.00  0.00     0.105 A 
ATOM      7  C   UNL d   1      46.373 -18.904  42.215  0.00  0.00     0.037 A 
ATOM      8  N   UNL d   1      46.529 -20.015  43.095  0.00  0.00    -0.244 NA
ATOM      9  C   UNL d   1      46.516 -19.709  42.326  0.00  0.00     0.083 A 
ATOM     10  O   UNL d   1      46.079 -18.156  44.955  0.00  0.00    -0.265 OA
ATOM     11  C   UNL d   1      46.361 -18.600  41.448  0.00  0.00     0.003 A 
ATOM     12  C   UNL d   1      46.645 -20.205  41.677  0.00  0.00     0.019 A 
ATOM     13  C   UNL d   1      46.490 -19.102  40.804  0.00  0.00     0.000 A 
ATOM     14  C   UNL d   1      46.631 -19.898  40.918  0.00  0.00     0.002 A 
ENDROOT
BRANCH   4  15
ATOM     15  C   UNL d   1      45.856 -16.664  44.009  0.00  0.00     0.086 A 
ATOM     16  C   UNL d   1      45.323 -16.582  44.636  0.00  0.00     0.020 A 
ATOM     17  C   UNL d   1      45.165 -15.844  44.946  0.00  0.00     0.013 A 
ATOM     18  C   UNL d   1      45.537 -15.175  44.634  0.00  0.00     0.058 A 
ATOM     19  C   UNL d   1      46.070 -15.257  44.007  0.00  0.00     0.013 A 
ATOM     20 CL   UNL d   1      45.384 -14.438  44.938  0.00  0.00    -0.082 Cl
ATOM     21  C   UNL d   1      46.229 -15.991  43.697  0.00  0.00     0.020 A 
ENDBRANCH   4  15
TORSDOF 1
ENDMDL
MODEL 2
REMARK VINA RESULT:      21.7      1.248      1.903
REMARK  1 active torsions:
REMARK  status: ('A' for Active; 'I' for Inactive)
REMARK    1  A    between atoms: C_9  and  N_4 
ROOT
ATOM      1  C   UNL d   1      46.151 -17.665  43.091  0.00  0.00     0.096 A 
ATOM      2  C   UNL d   1      46.190 -17.931  43.862  0.00  0.00     0.109 A 
ATOM      3  N   UNL d   1      46.059 -17.296  44.363  0.00  0.00    -0.162 NA
ATOM      4  N   UNL d   1      45.938 -16.632  43.889  0.00  0.00    -0.195 N 
ATOM      5  C   UNL d   1      45.995 -16.863  43.108  0.00  0.00     0.283 A 
ATOM      6  C   UNL d   1      46.263 -18.194  42.458  0.00  0.00     0.105 A 
ATOM      7  C   UNL d   1      46.342 -18.723  44.011  0.00  0.00     0.037 A 
ATOM      8  N   UNL d   1      46.414 -18.985  42.611  0.00  0.00    -0.244 NA
ATOM      9  C   UNL d   1      46.455 -19.257  43.391  0.00  0.00     0.083 A 
ATOM     10  O   UNL d   1      45.909 -16.370  42.452  0.00  0.00    -0.265 OA
ATOM     11  C   UNL d   1      46.383 -18.995  44.788  0.00  0.00     0.003 A 
ATOM     12  C   UNL d   1      46.607 -20.054  43.549  0.00  0.00     0.019 A 
ATOM     13  C   UNL d   1      46.535 -19.794  44.938  0.00  0.00     0.000 A 
ATOM     14  C   UNL d   1      46.647 -20.319  44.323  0.00  0.00     0.002 A 
ENDROOT
BRANCH   4  15
ATOM     15  C   UNL d   1      45.784 -15.865  44.155  0.00  0.00     0.086 A 
ATOM     16  C   UNL d   1      45.137 -15.723  44.650  0.00  0.00     0.020 A 
ATOM     17  C   UNL d   1      44.981 -14.967  44.916  0.00  0.00     0.013 A 
ATOM     18  C   UNL d   1      45.470 -14.341  44.691  0.00  0.00     0.058 A 
ATOM     19  C   UNL d   1      46.118 -14.482  44.197  0.00  0.00     0.013 A 
ATOM     20 CL   UNL d   1      45.321 -13.586  44.952  0.00  0.00    -0.082 Cl
ATOM     21  C   UNL d   1      46.275 -15.233  43.931  0.00  0.00     0.020 A 
ENDBRANCH   4  15
TORSDOF 1
ENDMDL
