MODEL 1
REMARK VINA RESULT:       3.2      0.000      0.000
REMARK  1 active torsions:
REMARK  status: ('A' for Active; 'I' for Inactive)
REMARK    1  A    between atoms: C_6  and  CA_1 
ROOT
ATOM      1  CA  UNL d   1     -51.546  25.320  33.330  0.00  0.00     0.147 A 
ATOM      2  N   UNL d   1     -51.247  24.557  33.343  0.00  0.00    -0.237 NA
ATOM      3  C   UNL d   1     -52.370  25.278  33.316  0.00  0.00     0.052 A 
ATOM      4  C   UNL d   1     -51.887  24.037  33.338  0.00  0.00     0.106 A 
ATOM      5  C   UNL d   1     -52.580  24.481  33.321  0.00  0.00     0.119 A 
ATOM      6  C   UNL d   1     -52.096  23.239  33.343  0.00  0.00     0.048 A 
ATOM      7  O   UNL d   1     -53.220  23.959  33.316  0.00  0.00    -0.303 OA
ATOM      8  C   UNL d   1     -52.923  23.189  33.329  0.00  0.00     0.124 A 
ENDROOT
BRANCH   1   9
ATOM      9  C   UNL d   1     -51.097  26.016  33.330  0.00  0.00     0.230 C 
ATOM     10  O   UNL d   1     -51.470  26.748  33.349  0.00  0.00    -0.643 OA
ATOM     11  OXT UNL d   1     -50.276  25.975  33.312  0.00  0.00    -0.643 OA
ENDBRANCH   1   9
TORSDOF 1
ENDMDL
