MODEL 1
REMARK VINA RESULT:      29.4      0.000      0.000
REMARK  2 active torsions:
REMARK  status: ('A' for Active; 'I' for Inactive)
REMARK       I    between atoms: N_3  and  C_1 
REMARK    1  A    between atoms: O_4  and  C_1 
REMARK    2  A    between atoms: C_6  and  O_4 
ROOT
ATOM      1  C   UNL d   1     -58.424 -98.827 -44.309  0.00  0.00     0.105 A 
ATOM      2  C   UNL d   1     -59.161 -98.820 -44.674  0.00  0.00     0.030 A 
ATOM      3  C   UNL d   1     -57.726 -98.810 -44.771  0.00  0.00     0.122 A 
ATOM      4  N   UNL d   1     -58.369 -98.851 -43.480  0.00  0.00    -0.242 NA
ATOM      5  C   UNL d   1     -59.214 -98.797 -45.499  0.00  0.00     0.059 A 
ATOM      6  C   UNL d   1     -57.779 -98.787 -45.590  0.00  0.00     0.027 A 
ATOM      7  C   UNL d   1     -58.515 -98.780 -45.962  0.00  0.00     0.013 A 
ATOM      8 CL   UNL d   1     -59.955 -98.789 -45.873  0.00  0.00    -0.082 Cl
ATOM      9  C   UNL d   1     -59.849 -98.837 -44.219  0.00  0.00     0.004 A 
ATOM     10  C   UNL d   1     -59.057 -98.868 -43.025  0.00  0.00     0.099 A 
ATOM     11  C   UNL d   1     -59.800 -98.861 -43.398  0.00  0.00     0.021 A 
ENDROOT
BRANCH   3  12
ATOM     12  O   UNL d   1     -56.977 -98.817 -44.402  0.00  0.00    -0.257 OA
BRANCH  12  13
ATOM     13  C   UNL d   1     -56.308 -99.115 -44.804  0.00  0.00     0.378 C 
ATOM     14  N   UNL d   1     -55.885 -99.746 -44.502  0.00  0.00    -0.247 N 
ATOM     15  C   UNL d   1     -56.118-100.096 -43.791  0.00  0.00     0.112 A 
ATOM     16  C   UNL d   1     -55.225-100.036 -44.904  0.00  0.00     0.112 A 
ATOM     17  C   UNL d   1     -55.686-100.730 -43.494  0.00  0.00     0.142 A 
ATOM     18  O   UNL d   1     -55.031-101.020 -43.891  0.00  0.00    -0.300 OA
ATOM     19  C   UNL d   1     -54.798-100.669 -44.602  0.00  0.00     0.142 A 
ATOM     20  O   UNL d   1     -56.073 -98.760 -45.525  0.00  0.00    -0.237 OA
ENDBRANCH  12  13
ENDBRANCH   3  12
TORSDOF 2
ENDMDL
