MODEL 1
REMARK VINA RESULT:      -2.8      0.000      0.000
REMARK  6 active torsions:
REMARK  status: ('A' for Active; 'I' for Inactive)
REMARK    1  A    between atoms: N_3  and  C_1 
REMARK       I    between atoms: C_4  and  N_3 
REMARK       I    between atoms: N_10  and  C_4 
REMARK    2  A    between atoms: C_7  and  C_5 
REMARK    3  A    between atoms: C_9  and  C_7 
REMARK       I    between atoms: N_12  and  C_9 
REMARK    4  A    between atoms: C_13  and  N_10 
REMARK    5  A    between atoms: C_18  and  N_12 
REMARK    6  A    between atoms: C_17  and  C_18 
ROOT
ATOM      1  C   UNL d   1      59.188  -0.707  29.296  0.00  0.00     0.199 A 
ATOM      2  N   UNL d   1      58.913  -0.375  30.000  0.00  0.00    -0.220 NA
ATOM      3  C   UNL d   1      58.358   0.198  29.806  0.00  0.00     0.095 A 
ATOM      4  S   UNL d   1      58.812  -0.347  28.677  0.00  0.00    -0.046 SA
ATOM      5  C   UNL d   1      58.295   0.216  28.983  0.00  0.00     0.058 A 
ENDROOT
BRANCH   1   6
ATOM      6  N   UNL d   1      59.760  -1.313  29.229  0.00  0.00    -0.166 NA
ATOM      7  C   UNL d   1      59.521  -2.091  29.050  0.00  0.00     0.370 C 
ATOM      8  N   UNL d   1      60.078  -2.698  28.982  0.00  0.00    -0.191 NA
ATOM      9  O   UNL d   1      58.718  -2.265  28.939  0.00  0.00    -0.242 OA
BRANCH   8  10
ATOM     10  C   UNL d   1      59.851  -3.464  28.807  0.00  0.00     0.087 A 
ATOM     11  C   UNL d   1      60.410  -4.059  28.718  0.00  0.00     0.031 A 
ATOM     12  C   UNL d   1      60.189  -4.820  28.545  0.00  0.00     0.059 A 
ATOM     13 CL   UNL d   1      60.757  -5.415  28.457  0.00  0.00    -0.082 Cl
ATOM     14  C   UNL d   1      59.379  -5.001  28.455  0.00  0.00     0.011 A 
ATOM     15  C   UNL d   1      58.820  -4.404  28.544  0.00  0.00     0.002 A 
ATOM     16  C   UNL d   1      59.055  -3.634  28.720  0.00  0.00     0.019 A 
ENDBRANCH   8  10
ENDBRANCH   1   6
BRANCH   3  17
ATOM     17  C   UNL d   1      57.938   0.673  30.342  0.00  0.00     0.082 C 
BRANCH  17  18
ATOM     18  C   UNL d   1      57.921   0.484  31.158  0.00  0.00     0.281 C 
ATOM     19  N   UNL d   1      57.205   0.428  31.562  0.00  0.00    -0.206 NA
ATOM     20  O   UNL d   1      58.635   0.357  31.547  0.00  0.00    -0.265 OA
BRANCH  19  21
ATOM     21  C   UNL d   1      57.197   0.243  32.360  0.00  0.00     0.104 C 
BRANCH  21  22
ATOM     22  C   UNL d   1      56.495  -0.011  32.715  0.00  0.00     0.038 A 
ATOM     23  C   UNL d   1      56.235  -0.789  32.615  0.00  0.00     0.101 A 
ATOM     24  N   UNL d   1      55.531  -1.032  32.975  0.00  0.00    -0.242 NA
ATOM     25  C   UNL d   1      55.087  -0.499  33.434  0.00  0.00     0.099 A 
ATOM     26  C   UNL d   1      55.356   0.267  33.524  0.00  0.00     0.021 A 
ATOM     27  C   UNL d   1      56.061   0.510  33.163  0.00  0.00     0.005 A 
ENDBRANCH  21  22
ENDBRANCH  19  21
ENDBRANCH  17  18
ENDBRANCH   3  17
TORSDOF 6
ENDMDL
