MODEL 1
REMARK VINA RESULT:      -5.9      0.000      0.000
REMARK  5 active torsions:
REMARK  status: ('A' for Active; 'I' for Inactive)
REMARK    1  A    between atoms: N_2  and  C_1 
REMARK    2  A    between atoms: C_8  and  C_5 
REMARK    3  A    between atoms: C_6  and  C_9 
REMARK       I    between atoms: N_12  and  C_6 
REMARK    4  A    between atoms: C_9  and  C_8 
REMARK    5  A    between atoms: C_14  and  N_12 
ROOT
ATOM      1  C   UNL d   1     -48.263  13.065  22.963  0.00  0.00     0.279 C 
ATOM      2  N   UNL d   1     -48.260  13.849  22.724  0.00  0.00    -0.208 NA
ATOM      3  O   UNL d   1     -48.966  12.711  23.202  0.00  0.00    -0.265 OA
ENDROOT
BRANCH   1   4
ATOM      4  C   UNL d   1     -47.557  12.628  22.966  0.00  0.00     0.063 C 
BRANCH   4   5
ATOM      5  C   UNL d   1     -47.482  11.958  23.442  0.00  0.00     0.011 C 
BRANCH   5   6
ATOM      6  C   UNL d   1     -46.751  11.537  23.475  0.00  0.00     0.031 A 
ATOM      7  S   UNL d   1     -45.975  11.768  23.318  0.00  0.00    -0.064 SA
ATOM      8  C   UNL d   1     -45.496  11.119  23.445  0.00  0.00     0.156 A 
ATOM      9  C   UNL d   1     -45.952  10.481  23.679  0.00  0.00     0.031 A 
ATOM     10  C   UNL d   1     -46.744  10.747  23.697  0.00  0.00     0.009 A 
BRANCH   8  11
ATOM     11  N   UNL d   1     -44.672  11.122  23.347  0.00  0.00    -0.107 N 
ATOM     12  O   UNL d   1     -44.291  11.728  22.942  0.00  0.00    -0.531 OA
ATOM     13  O   UNL d   1     -44.235  10.495  23.668  0.00  0.00    -0.531 OA
ENDBRANCH   8  11
ENDBRANCH   5   6
ENDBRANCH   4   5
ENDBRANCH   1   4
BRANCH   2  14
ATOM     14  C   UNL d   1     -48.966  14.285  22.722  0.00  0.00     0.085 A 
ATOM     15  C   UNL d   1     -49.491  14.220  22.080  0.00  0.00     0.019 A 
ATOM     16  C   UNL d   1     -50.187  14.639  22.058  0.00  0.00     0.002 A 
ATOM     17  C   UNL d   1     -50.363  15.150  22.718  0.00  0.00     0.000 A 
ATOM     18  C   UNL d   1     -49.838  15.209  23.348  0.00  0.00     0.002 A 
ATOM     19  C   UNL d   1     -51.064  15.596  22.735  0.00  0.00     0.000 C 
ATOM     20  C   UNL d   1     -49.148  14.781  23.351  0.00  0.00     0.019 A 
ENDBRANCH   2  14
TORSDOF 5
ENDMDL
MODEL 2
REMARK VINA RESULT:      -5.9      1.305      1.602
REMARK  5 active torsions:
REMARK  status: ('A' for Active; 'I' for Inactive)
REMARK    1  A    between atoms: N_2  and  C_1 
REMARK    2  A    between atoms: C_8  and  C_5 
REMARK    3  A    between atoms: C_6  and  C_9 
REMARK       I    between atoms: N_12  and  C_6 
REMARK    4  A    between atoms: C_9  and  C_8 
REMARK    5  A    between atoms: C_14  and  N_12 
ROOT
ATOM      1  C   UNL d   1     -47.890  13.564  22.735  0.00  0.00     0.279 C 
ATOM      2  N   UNL d   1     -48.301  14.059  22.229  0.00  0.00    -0.208 NA
ATOM      3  O   UNL d   1     -48.167  13.434  23.497  0.00  0.00    -0.265 OA
ENDROOT
BRANCH   1   4
ATOM      4  C   UNL d   1     -47.192  13.193  22.478  0.00  0.00     0.063 C 
BRANCH   4   5
ATOM      5  C   UNL d   1     -46.523  13.182  22.962  0.00  0.00     0.011 C 
BRANCH   5   6
ATOM      6  C   UNL d   1     -45.762  13.018  22.634  0.00  0.00     0.031 A 
ATOM      7  S   UNL d   1     -45.231  12.400  22.759  0.00  0.00    -0.064 SA
ATOM      8  C   UNL d   1     -44.580  12.537  22.284  0.00  0.00     0.156 A 
ATOM      9  C   UNL d   1     -44.688  13.229  21.861  0.00  0.00     0.031 A 
ATOM     10  C   UNL d   1     -45.434  13.531  22.083  0.00  0.00     0.009 A 
BRANCH   8  11
ATOM     11  N   UNL d   1     -43.918  12.039  22.247  0.00  0.00    -0.107 N 
ATOM     12  O   UNL d   1     -43.879  11.343  22.685  0.00  0.00    -0.531 OA
ATOM     13  O   UNL d   1     -43.287  12.258  21.756  0.00  0.00    -0.531 OA
ENDBRANCH   8  11
ENDBRANCH   5   6
ENDBRANCH   4   5
ENDBRANCH   1   4
BRANCH   2  14
ATOM     14  C   UNL d   1     -48.998  14.430  22.485  0.00  0.00     0.085 A 
ATOM     15  C   UNL d   1     -49.736  14.079  22.326  0.00  0.00     0.019 A 
ATOM     16  C   UNL d   1     -50.430  14.425  22.568  0.00  0.00     0.002 A 
ATOM     17  C   UNL d   1     -50.378  15.163  22.993  0.00  0.00     0.000 A 
ATOM     18  C   UNL d   1     -49.645  15.503  23.146  0.00  0.00     0.002 A 
ATOM     19  C   UNL d   1     -51.064  15.550  23.258  0.00  0.00     0.000 C 
ATOM     20  C   UNL d   1     -48.963  15.140  22.895  0.00  0.00     0.019 A 
ENDBRANCH   2  14
TORSDOF 5
ENDMDL
MODEL 3
REMARK VINA RESULT:      -4.9      9.084     10.179
REMARK  5 active torsions:
REMARK  status: ('A' for Active; 'I' for Inactive)
REMARK    1  A    between atoms: N_2  and  C_1 
REMARK    2  A    between atoms: C_8  and  C_5 
REMARK    3  A    between atoms: C_6  and  C_9 
REMARK       I    between atoms: N_12  and  C_6 
REMARK    4  A    between atoms: C_9  and  C_8 
REMARK    5  A    between atoms: C_14  and  N_12 
ROOT
ATOM      1  C   UNL d   1     -39.581  14.519  20.260  0.00  0.00     0.279 C 
ATOM      2  N   UNL d   1     -38.900  14.643  20.699  0.00  0.00    -0.208 NA
ATOM      3  O   UNL d   1     -40.191  14.063  20.568  0.00  0.00    -0.265 OA
ENDROOT
BRANCH   1   4
ATOM      4  C   UNL d   1     -39.655  14.855  19.504  0.00  0.00     0.063 C 
BRANCH   4   5
ATOM      5  C   UNL d   1     -40.044  14.445  18.902  0.00  0.00     0.011 C 
BRANCH   5   6
ATOM      6  C   UNL d   1     -39.961  14.688  18.097  0.00  0.00     0.031 A 
ATOM      7  S   UNL d   1     -39.300  14.755  17.609  0.00  0.00    -0.064 SA
ATOM      8  C   UNL d   1     -39.560  15.018  16.880  0.00  0.00     0.156 A 
ATOM      9  C   UNL d   1     -40.372  15.120  16.898  0.00  0.00     0.031 A 
ATOM     10  C   UNL d   1     -40.623  14.911  17.666  0.00  0.00     0.009 A 
BRANCH   8  11
ATOM     11  N   UNL d   1     -39.063  15.157  16.231  0.00  0.00    -0.107 N 
ATOM     12  O   UNL d   1     -38.877  15.922  15.990  0.00  0.00    -0.531 OA
ATOM     13  O   UNL d   1     -38.755  14.505  15.824  0.00  0.00    -0.531 OA
ENDBRANCH   8  11
ENDBRANCH   5   6
ENDBRANCH   4   5
ENDBRANCH   1   4
BRANCH   2  14
ATOM     14  C   UNL d   1     -38.826  14.308  21.454  0.00  0.00     0.085 A 
ATOM     15  C   UNL d   1     -39.128  14.710  22.117  0.00  0.00     0.019 A 
ATOM     16  C   UNL d   1     -39.066  14.400  22.865  0.00  0.00     0.002 A 
ATOM     17  C   UNL d   1     -38.679  13.644  22.950  0.00  0.00     0.000 A 
ATOM     18  C   UNL d   1     -38.383  13.253  22.290  0.00  0.00     0.002 A 
ATOM     19  C   UNL d   1     -38.594  13.291  23.698  0.00  0.00     0.000 C 
ATOM     20  C   UNL d   1     -38.456  13.581  21.550  0.00  0.00     0.019 A 
ENDBRANCH   2  14
TORSDOF 5
ENDMDL
MODEL 4
REMARK VINA RESULT:      -4.8      8.970     10.685
REMARK  5 active torsions:
REMARK  status: ('A' for Active; 'I' for Inactive)
REMARK    1  A    between atoms: N_2  and  C_1 
REMARK    2  A    between atoms: C_8  and  C_5 
REMARK    3  A    between atoms: C_6  and  C_9 
REMARK       I    between atoms: N_12  and  C_6 
REMARK    4  A    between atoms: C_9  and  C_8 
REMARK    5  A    between atoms: C_14  and  N_12 
ROOT
ATOM      1  C   UNL d   1     -39.256  14.629  17.756  0.00  0.00     0.279 C 
ATOM      2  N   UNL d   1     -38.527  14.757  17.406  0.00  0.00    -0.208 NA
ATOM      3  O   UNL d   1     -39.841  14.217  17.352  0.00  0.00    -0.265 OA
ENDROOT
BRANCH   1   4
ATOM      4  C   UNL d   1     -39.405  14.915  18.522  0.00  0.00     0.063 C 
BRANCH   4   5
ATOM      5  C   UNL d   1     -40.027  14.606  18.969  0.00  0.00     0.011 C 
BRANCH   5   6
ATOM      6  C   UNL d   1     -40.113  14.816  19.783  0.00  0.00     0.031 A 
ATOM      7  S   UNL d   1     -39.579  14.817  20.410  0.00  0.00    -0.064 SA
ATOM      8  C   UNL d   1     -39.980  15.076  21.073  0.00  0.00     0.156 A 
ATOM      9  C   UNL d   1     -40.758  15.240  20.878  0.00  0.00     0.031 A 
ATOM     10  C   UNL d   1     -40.840  15.075  20.064  0.00  0.00     0.009 A 
BRANCH   8  11
ATOM     11  N   UNL d   1     -39.636  15.156  21.824  0.00  0.00    -0.107 N 
ATOM     12  O   UNL d   1     -39.461  14.499  22.288  0.00  0.00    -0.531 OA
ATOM     13  O   UNL d   1     -39.471  15.919  22.102  0.00  0.00    -0.531 OA
ENDBRANCH   8  11
ENDBRANCH   5   6
ENDBRANCH   4   5
ENDBRANCH   1   4
BRANCH   2  14
ATOM     14  C   UNL d   1     -38.378  14.471  16.641  0.00  0.00     0.085 A 
ATOM     15  C   UNL d   1     -38.126  13.685  16.534  0.00  0.00     0.019 A 
ATOM     16  C   UNL d   1     -37.975  13.386  15.794  0.00  0.00     0.002 A 
ATOM     17  C   UNL d   1     -38.083  13.906  15.127  0.00  0.00     0.000 A 
ATOM     18  C   UNL d   1     -38.333  14.681  15.241  0.00  0.00     0.002 A 
ATOM     19  C   UNL d   1     -37.940  13.640  14.352  0.00  0.00     0.000 C 
ATOM     20  C   UNL d   1     -38.478  14.961  15.989  0.00  0.00     0.019 A 
ENDBRANCH   2  14
TORSDOF 5
ENDMDL
