MODEL 1
REMARK VINA RESULT:      81.1      0.000      0.000
REMARK  3 active torsions:
REMARK  status: ('A' for Active; 'I' for Inactive)
REMARK    1  A    between atoms: C_5  and  C_1 
REMARK    2  A    between atoms: N_6  and  C_5 
REMARK    3  A    between atoms: C_8  and  C_5 
ROOT
ATOM      1  C   UNL d   1      60.197  48.926  51.082  0.00  0.00     0.083 C 
ENDROOT
BRANCH   1   2
ATOM      2  C   UNL d   1      60.744  48.520  50.567  0.00  0.00     0.037 A 
ATOM      3  C   UNL d   1      61.207  48.886  49.981  0.00  0.00     0.083 A 
ATOM      4  N   UNL d   1      61.649  48.304  49.620  0.00  0.00    -0.245 NA
ATOM      5  C   UNL d   1      61.213  49.707  49.800  0.00  0.00     0.021 C 
ATOM      6  C   UNL d   1      61.477  47.576  49.965  0.00  0.00     0.081 A 
ATOM      7  C   UNL d   1      60.903  47.713  50.565  0.00  0.00     0.021 A 
ATOM      8  C   UNL d   1      61.752  46.817  49.824  0.00  0.00     0.019 A 
ATOM      9  C   UNL d   1      60.619  47.088  51.010  0.00  0.00     0.002 A 
ATOM     10  C   UNL d   1      60.903  46.308  50.865  0.00  0.00     0.000 A 
ATOM     11  C   UNL d   1      61.453  46.177  50.290  0.00  0.00     0.002 A 
ENDBRANCH   1   2
BRANCH   1  12
ATOM     12  N   UNL d   1      59.410  49.064  50.843  0.00  0.00    -0.302 N 
ATOM     13  C   UNL d   1      59.255  49.571  50.211  0.00  0.00     0.080 A 
ATOM     14  C   UNL d   1      58.476  49.703  49.980  0.00  0.00     0.019 A 
ATOM     15  C   UNL d   1      57.854  49.332  50.376  0.00  0.00     0.003 A 
ATOM     16  C   UNL d   1      58.005  48.827  51.007  0.00  0.00     0.019 A 
ATOM     17  C   UNL d   1      57.065  49.470  50.138  0.00  0.00     0.000 C 
ATOM     18  C   UNL d   1      58.784  48.694  51.238  0.00  0.00     0.080 A 
ENDBRANCH   1  12
BRANCH   1  19
ATOM     19  C   UNL d   1      60.460  49.190  51.842  0.00  0.00     0.098 A 
ATOM     20  N   UNL d   1      61.247  49.403  51.959  0.00  0.00    -0.243 NA
ATOM     21  C   UNL d   1      61.508  49.659  52.692  0.00  0.00     0.099 A 
ATOM     22  C   UNL d   1      60.974  49.704  53.317  0.00  0.00     0.021 A 
ATOM     23  C   UNL d   1      60.185  49.491  53.203  0.00  0.00     0.003 A 
ATOM     24  C   UNL d   1      59.909  49.228  52.458  0.00  0.00     0.021 A 
ENDBRANCH   1  19
TORSDOF 3
ENDMDL
