MODEL 1
REMARK VINA RESULT:      -4.8      0.000      0.000
REMARK  4 active torsions:
REMARK  status: ('A' for Active; 'I' for Inactive)
REMARK    1  A    between atoms: C_20  and  C_4 
REMARK    2  A    between atoms: C_8  and  C_9 
REMARK       I    between atoms: C_9  and  N_18 
REMARK    3  A    between atoms: N_18  and  C_21 
REMARK    4  A    between atoms: C_21  and  C_20 
ROOT
ATOM      1  N   UNL d   1      59.617  -0.542  29.785  0.00  0.00    -0.208 NA
ATOM      2  C   UNL d   1      59.525  -1.324  29.507  0.00  0.00     0.085 A 
ATOM      3  C   UNL d   1      58.990  -0.166  30.171  0.00  0.00     0.279 A 
ATOM      4  C   UNL d   1      58.268  -0.569  30.281  0.00  0.00     0.059 A 
ATOM      5  C   UNL d   1      58.182  -1.343  30.003  0.00  0.00     0.006 A 
ATOM      6  C   UNL d   1      58.808  -1.716  29.619  0.00  0.00     0.018 A 
ATOM      7  C   UNL d   1      60.158  -1.691  29.122  0.00  0.00     0.018 A 
ATOM      8  O   UNL d   1      59.078   0.604  30.447  0.00  0.00    -0.265 OA
ATOM      9  C   UNL d   1      60.071  -2.462  28.846  0.00  0.00     0.002 A 
ATOM     10  C   UNL d   1      58.723  -2.492  29.340  0.00  0.00     0.002 A 
ATOM     11  C   UNL d   1      59.349  -2.865  28.955  0.00  0.00     0.000 A 
ATOM     12  C   UNL d   1      60.869  -1.286  29.017  0.00  0.00     0.002 C 
ATOM     13  C   UNL d   1      60.696  -2.834  28.462  0.00  0.00     0.000 C 
ENDROOT
BRANCH   4  14
ATOM     14  C   UNL d   1      57.650  -0.193  30.664  0.00  0.00     0.026 C 
BRANCH  14  15
ATOM     15  C   UNL d   1      57.194  -0.590  31.217  0.00  0.00     0.102 C 
BRANCH  15  16
ATOM     16  N   UNL d   1      56.797  -0.183  31.815  0.00  0.00    -0.206 NA
ATOM     17  C   UNL d   1      56.435  -0.595  32.432  0.00  0.00     0.285 C 
ATOM     18  O   UNL d   1      56.466  -1.416  32.457  0.00  0.00    -0.265 OA
BRANCH  17  19
ATOM     19  C   UNL d   1      56.039  -0.179  33.028  0.00  0.00     0.087 A 
ATOM     20  S   UNL d   1      56.376   0.364  33.537  0.00  0.00    -0.082 SA
ATOM     21  C   UNL d   1      55.803   0.647  34.037  0.00  0.00     0.036 A 
ATOM     22  C   UNL d   1      55.088   0.273  33.839  0.00  0.00     0.008 A 
ATOM     23  C   UNL d   1      55.237  -0.240  33.212  0.00  0.00     0.012 A 
ENDBRANCH  17  19
ENDBRANCH  15  16
ENDBRANCH  14  15
ENDBRANCH   4  14
TORSDOF 4
ENDMDL
MODEL 2
REMARK VINA RESULT:      -4.6      1.740      5.110
REMARK  4 active torsions:
REMARK  status: ('A' for Active; 'I' for Inactive)
REMARK    1  A    between atoms: C_20  and  C_4 
REMARK    2  A    between atoms: C_8  and  C_9 
REMARK       I    between atoms: C_9  and  N_18 
REMARK    3  A    between atoms: N_18  and  C_21 
REMARK    4  A    between atoms: C_21  and  C_20 
ROOT
ATOM      1  N   UNL d   1      57.571   0.392  32.409  0.00  0.00    -0.208 NA
ATOM      2  C   UNL d   1      56.902  -0.047  32.645  0.00  0.00     0.085 A 
ATOM      3  C   UNL d   1      57.918   0.249  31.672  0.00  0.00     0.279 A 
ATOM      4  C   UNL d   1      57.597  -0.333  31.168  0.00  0.00     0.059 A 
ATOM      5  C   UNL d   1      56.934  -0.765  31.407  0.00  0.00     0.006 A 
ATOM      6  C   UNL d   1      56.590  -0.621  32.141  0.00  0.00     0.018 A 
ATOM      7  C   UNL d   1      56.562   0.104  33.384  0.00  0.00     0.018 A 
ATOM      8  O   UNL d   1      58.577   0.680  31.436  0.00  0.00    -0.265 OA
ATOM      9  C   UNL d   1      55.901  -0.328  33.620  0.00  0.00     0.002 A 
ATOM     10  C   UNL d   1      55.925  -1.054  32.382  0.00  0.00     0.002 A 
ATOM     11  C   UNL d   1      55.581  -0.910  33.117  0.00  0.00     0.000 A 
ATOM     12  C   UNL d   1      56.885   0.681  33.877  0.00  0.00     0.002 C 
ATOM     13  C   UNL d   1      55.558  -0.184  34.354  0.00  0.00     0.000 C 
ENDROOT
BRANCH   4  14
ATOM     14  C   UNL d   1      57.943  -0.472  30.439  0.00  0.00     0.026 C 
BRANCH  14  15
ATOM     15  C   UNL d   1      58.106  -1.235  30.188  0.00  0.00     0.102 C 
BRANCH  15  16
ATOM     16  N   UNL d   1      58.828  -1.424  29.837  0.00  0.00    -0.206 NA
ATOM     17  C   UNL d   1      58.935  -2.157  29.469  0.00  0.00     0.285 C 
ATOM     18  O   UNL d   1      58.323  -2.704  29.450  0.00  0.00    -0.265 OA
BRANCH  17  19
ATOM     19  C   UNL d   1      59.662  -2.338  29.119  0.00  0.00     0.087 A 
ATOM     20  S   UNL d   1      59.913  -3.082  28.896  0.00  0.00    -0.082 SA
ATOM     21  C   UNL d   1      60.656  -3.025  28.575  0.00  0.00     0.036 A 
ATOM     22  C   UNL d   1      60.879  -2.225  28.597  0.00  0.00     0.008 A 
ATOM     23  C   UNL d   1      60.260  -1.800  28.935  0.00  0.00     0.012 A 
ENDBRANCH  17  19
ENDBRANCH  15  16
ENDBRANCH  14  15
ENDBRANCH   4  14
TORSDOF 4
ENDMDL
MODEL 3
REMARK VINA RESULT:      -4.5      1.757      5.566
REMARK  4 active torsions:
REMARK  status: ('A' for Active; 'I' for Inactive)
REMARK    1  A    between atoms: C_20  and  C_4 
REMARK    2  A    between atoms: C_8  and  C_9 
REMARK       I    between atoms: C_9  and  N_18 
REMARK    3  A    between atoms: N_18  and  C_21 
REMARK    4  A    between atoms: C_21  and  C_20 
ROOT
ATOM      1  N   UNL d   1      56.943   0.666  34.056  0.00  0.00    -0.208 NA
ATOM      2  C   UNL d   1      56.109   0.671  34.008  0.00  0.00     0.085 A 
ATOM      3  C   UNL d   1      57.395   0.664  33.364  0.00  0.00     0.279 A 
ATOM      4  C   UNL d   1      57.016   0.665  32.620  0.00  0.00     0.059 A 
ATOM      5  C   UNL d   1      56.191   0.670  32.578  0.00  0.00     0.006 A 
ATOM      6  C   UNL d   1      55.742   0.672  33.269  0.00  0.00     0.018 A 
ATOM      7  C   UNL d   1      55.666   0.673  34.706  0.00  0.00     0.018 A 
ATOM      8  O   UNL d   1      58.216   0.659  33.408  0.00  0.00    -0.265 OA
ATOM      9  C   UNL d   1      54.843   0.678  34.662  0.00  0.00     0.002 A 
ATOM     10  C   UNL d   1      54.914   0.677  33.229  0.00  0.00     0.002 A 
ATOM     11  C   UNL d   1      54.465   0.679  33.919  0.00  0.00     0.000 A 
ATOM     12  C   UNL d   1      56.047   0.672  35.438  0.00  0.00     0.002 C 
ATOM     13  C   UNL d   1      54.396   0.680  35.353  0.00  0.00     0.000 C 
ENDROOT
BRANCH   4  14
ATOM     14  C   UNL d   1      57.468   0.662  31.937  0.00  0.00     0.026 C 
BRANCH  14  15
ATOM     15  C   UNL d   1      57.407   0.051  31.395  0.00  0.00     0.102 C 
BRANCH  15  16
ATOM     16  N   UNL d   1      57.888   0.024  30.725  0.00  0.00    -0.206 NA
ATOM     17  C   UNL d   1      57.967  -0.676  30.294  0.00  0.00     0.285 C 
ATOM     18  O   UNL d   1      57.566  -1.354  30.529  0.00  0.00    -0.265 OA
BRANCH  17  19
ATOM     19  C   UNL d   1      58.451  -0.694  29.624  0.00  0.00     0.087 A 
ATOM     20  S   UNL d   1      58.754  -1.364  29.270  0.00  0.00    -0.082 SA
ATOM     21  C   UNL d   1      59.201  -1.145  28.629  0.00  0.00     0.036 A 
ATOM     22  C   UNL d   1      59.179  -0.316  28.578  0.00  0.00     0.008 A 
ATOM     23  C   UNL d   1      58.713  -0.037  29.197  0.00  0.00     0.012 A 
ENDBRANCH  17  19
ENDBRANCH  15  16
ENDBRANCH  14  15
ENDBRANCH   4  14
TORSDOF 4
ENDMDL
