MODEL 1
REMARK VINA RESULT:     133.8      0.000      0.000
REMARK  4 active torsions:
REMARK  status: ('A' for Active; 'I' for Inactive)
REMARK    1  A    between atoms: C_10  and  C_1 
REMARK    2  A    between atoms: C_18  and  N_6 
REMARK       I    between atoms: N_13  and  C_10 
REMARK    3  A    between atoms: C_12  and  C_20 
REMARK    4  A    between atoms: C_20  and  N_13 
ROOT
ATOM      1  C   UNL d   1      60.726  46.454  50.962  0.00  0.00     0.077 A 
ATOM      2  C   UNL d   1      61.605  47.184  50.088  0.00  0.00     0.121 A 
ATOM      3  C   UNL d   1      61.279  46.469  50.349  0.00  0.00     0.028 A 
ATOM      4  C   UNL d   1      61.372  47.897  50.450  0.00  0.00     0.281 A 
ATOM      5  N   UNL d   1      62.129  47.013  49.480  0.00  0.00    -0.300 N 
ATOM      6  N   UNL d   1      60.822  47.895  51.063  0.00  0.00    -0.272 N 
ATOM      7  C   UNL d   1      60.494  47.165  51.323  0.00  0.00     0.088 A 
ATOM      8  C   UNL d   1      61.613  45.862  49.889  0.00  0.00     0.018 A 
ATOM      9  C   UNL d   1      62.136  46.214  49.358  0.00  0.00     0.064 A 
ATOM     10  O   UNL d   1      61.702  48.621  50.187  0.00  0.00    -0.265 OA
ATOM     11  C   UNL d   1      62.572  47.586  49.069  0.00  0.00     0.100 C 
ATOM     12  C   UNL d   1      61.505  45.054  49.894  0.00  0.00     0.002 A 
ATOM     13  C   UNL d   1      62.548  45.731  48.829  0.00  0.00     0.018 A 
ATOM     14  C   UNL d   1      61.922  44.581  49.361  0.00  0.00     0.000 A 
ATOM     15  C   UNL d   1      62.439  44.913  48.833  0.00  0.00     0.002 A 
ENDROOT
BRANCH   1  16
ATOM     16  C   UNL d   1      60.404  45.747  51.219  0.00  0.00     0.281 C 
ATOM     17  N   UNL d   1      60.894  45.141  51.487  0.00  0.00    -0.204 NA
ATOM     18  O   UNL d   1      59.582  45.638  51.210  0.00  0.00    -0.265 OA
BRANCH  17  19
ATOM     19  C   UNL d   1      60.570  44.430  51.745  0.00  0.00     0.127 C 
BRANCH  19  20
ATOM     20  C   UNL d   1      61.069  43.807  51.958  0.00  0.00     0.119 A 
ATOM     21  O   UNL d   1      61.427  43.271  51.445  0.00  0.00    -0.306 OA
ATOM     22  C   UNL d   1      61.875  42.746  51.902  0.00  0.00     0.100 A 
ATOM     23  C   UNL d   1      62.323  42.123  51.616  0.00  0.00     0.027 C 
ATOM     24  C   UNL d   1      61.798  42.951  52.682  0.00  0.00     0.027 A 
ATOM     25  C   UNL d   1      61.300  43.607  52.727  0.00  0.00     0.028 A 
ENDBRANCH  19  20
ENDBRANCH  17  19
ENDBRANCH   1  16
BRANCH   6  26
ATOM     26  C   UNL d   1      60.595  48.603  51.417  0.00  0.00     0.067 A 
ATOM     27  C   UNL d   1      59.934  49.051  51.213  0.00  0.00     0.018 A 
ATOM     28  C   UNL d   1      59.921  49.705  51.702  0.00  0.00     0.002 A 
ATOM     29  C   UNL d   1      60.570  49.662  52.205  0.00  0.00     0.002 A 
ATOM     30  C   UNL d   1      60.987  48.976  52.025  0.00  0.00     0.018 A 
ENDBRANCH   6  26
TORSDOF 4
ENDMDL
