MODEL 1
REMARK VINA RESULT:      28.7      0.000      0.000
REMARK  3 active torsions:
REMARK  status: ('A' for Active; 'I' for Inactive)
REMARK    1  A    between atoms: N_12  and  C_6 
REMARK    2  A    between atoms: C_18  and  N_12 
REMARK    3  A    between atoms: C_19  and  C_18 
ROOT
ATOM      1  N   UNL d   1     -51.636  25.653  33.307  0.00  0.00    -0.175 N 
ATOM      2  C   UNL d   1     -50.853  25.519  33.308  0.00  0.00     0.167 A 
ATOM      3  N   UNL d   1     -52.158  25.014  33.307  0.00  0.00    -0.142 NA
ATOM      4  C   UNL d   1     -51.922  26.394  33.307  0.00  0.00     0.283 A 
ATOM      5  N   UNL d   1     -50.337  26.123  33.308  0.00  0.00    -0.227 NA
ATOM      6  C   UNL d   1     -51.878  24.239  33.307  0.00  0.00     0.182 A 
ATOM      7  C   UNL d   1     -51.400  27.033  33.307  0.00  0.00     0.076 A 
ATOM      8  C   UNL d   1     -50.572  24.743  33.308  0.00  0.00     0.039 A 
ATOM      9  C   UNL d   1     -50.617  26.899  33.308  0.00  0.00     0.088 A 
ATOM     10  C   UNL d   1     -51.094  24.105  33.308  0.00  0.00     0.041 A 
ATOM     11  O   UNL d   1     -52.743  26.534  33.306  0.00  0.00    -0.265 OA
ATOM     12  C   UNL d   1     -51.681  27.809  33.306  0.00  0.00     0.006 A 
ATOM     13  C   UNL d   1     -49.753  24.603  33.309  0.00  0.00     0.003 A 
ATOM     14  C   UNL d   1     -50.814  23.328  33.308  0.00  0.00     0.003 A 
ATOM     15  C   UNL d   1     -50.095  27.538  33.308  0.00  0.00     0.019 A 
ATOM     16  C   UNL d   1     -51.135  28.444  33.307  0.00  0.00     0.000 A 
ATOM     17  C   UNL d   1     -49.473  23.828  33.309  0.00  0.00     0.000 A 
ATOM     18  C   UNL d   1     -49.995  23.188  33.309  0.00  0.00     0.000 A 
ATOM     19  C   UNL d   1     -50.399  28.318  33.307  0.00  0.00     0.002 A 
ENDROOT
BRANCH   6  20
ATOM     20  N   UNL d   1     -52.377  23.559  33.307  0.00  0.00    -0.220 NA
BRANCH  20  21
ATOM     21  C   UNL d   1     -53.072  23.551  33.756  0.00  0.00     0.146 C 
BRANCH  21  22
ATOM     22  C   UNL d   1     -53.757  23.229  33.467  0.00  0.00     0.255 C 
ATOM     23  O   UNL d   1     -54.461  23.307  33.915  0.00  0.00    -0.281 OA
ENDBRANCH  21  22
ENDBRANCH  20  21
ENDBRANCH   6  20
TORSDOF 3
ENDMDL
MODEL 2
REMARK VINA RESULT:      31.6      1.018      3.535
REMARK  3 active torsions:
REMARK  status: ('A' for Active; 'I' for Inactive)
REMARK    1  A    between atoms: N_12  and  C_6 
REMARK    2  A    between atoms: C_18  and  N_12 
REMARK    3  A    between atoms: C_19  and  C_18 
ROOT
ATOM      1  N   UNL d   1     -51.708  25.418  33.306  0.00  0.00    -0.175 N 
ATOM      2  C   UNL d   1     -51.269  24.755  33.306  0.00  0.00     0.167 A 
ATOM      3  N   UNL d   1     -51.335  26.153  33.306  0.00  0.00    -0.142 NA
ATOM      4  C   UNL d   1     -52.502  25.380  33.306  0.00  0.00     0.283 A 
ATOM      5  N   UNL d   1     -51.613  24.039  33.306  0.00  0.00    -0.227 NA
ATOM      6  C   UNL d   1     -50.512  26.210  33.306  0.00  0.00     0.182 A 
ATOM      7  C   UNL d   1     -52.876  24.644  33.306  0.00  0.00     0.076 A 
ATOM      8  C   UNL d   1     -50.446  24.812  33.306  0.00  0.00     0.039 A 
ATOM      9  C   UNL d   1     -52.436  23.981  33.306  0.00  0.00     0.088 A 
ATOM     10  C   UNL d   1     -50.073  25.548  33.306  0.00  0.00     0.041 A 
ATOM     11  O   UNL d   1     -52.961  26.074  33.306  0.00  0.00    -0.265 OA
ATOM     12  C   UNL d   1     -53.699  24.587  33.306  0.00  0.00     0.006 A 
ATOM     13  C   UNL d   1     -49.987  24.119  33.306  0.00  0.00     0.003 A 
ATOM     14  C   UNL d   1     -49.250  25.605  33.306  0.00  0.00     0.003 A 
ATOM     15  C   UNL d   1     -52.810  23.246  33.306  0.00  0.00     0.019 A 
ATOM     16  C   UNL d   1     -54.058  23.831  33.306  0.00  0.00     0.000 A 
ATOM     17  C   UNL d   1     -49.164  24.176  33.306  0.00  0.00     0.000 A 
ATOM     18  C   UNL d   1     -48.791  24.912  33.306  0.00  0.00     0.000 A 
ATOM     19  C   UNL d   1     -53.646  23.209  33.306  0.00  0.00     0.002 A 
ENDROOT
BRANCH   6  20
ATOM     20  N   UNL d   1     -50.092  26.941  33.306  0.00  0.00    -0.220 NA
BRANCH  20  21
ATOM     21  C   UNL d   1     -50.501  27.658  33.373  0.00  0.00     0.146 C 
BRANCH  21  22
ATOM     22  C   UNL d   1     -50.111  28.354  33.514  0.00  0.00     0.255 C 
ATOM     23  O   UNL d   1     -50.496  29.077  33.335  0.00  0.00    -0.281 OA
ENDBRANCH  21  22
ENDBRANCH  20  21
ENDBRANCH   6  20
TORSDOF 3
ENDMDL
