MODEL 1
REMARK VINA RESULT:      -3.7      0.000      0.000
REMARK  2 active torsions:
REMARK  status: ('A' for Active; 'I' for Inactive)
REMARK    1  A    between atoms: O_3  and  C_1 
REMARK    2  A    between atoms: C_2  and  O_3 
REMARK       I    between atoms: N_7  and  C_2 
ROOT
ATOM      1  C   UNL d   1     -41.271-122.513 -52.716  0.00  0.00     0.133 A 
ATOM      2  C   UNL d   1     -41.221-122.020 -52.041  0.00  0.00     0.106 A 
ATOM      3  C   UNL d   1     -41.172-122.358 -51.297  0.00  0.00     0.030 A 
ATOM      4  C   UNL d   1     -41.271-123.331 -52.630  0.00  0.00     0.083 A 
ATOM      5  C   UNL d   1     -41.172-123.175 -51.201  0.00  0.00     0.060 A 
ATOM      6  C   UNL d   1     -41.222-123.668 -51.876  0.00  0.00     0.025 A 
ATOM      7  N   UNL d   1     -41.222-121.199 -52.139  0.00  0.00    -0.242 NA
ATOM      8 CL   UNL d   1     -41.320-123.817 -53.295  0.00  0.00    -0.080 Cl
ATOM      9 CL   UNL d   1     -41.123-123.520 -50.451  0.00  0.00    -0.082 Cl
ATOM     10  C   UNL d   1     -41.123-121.872 -50.631  0.00  0.00     0.004 A 
ATOM     11  C   UNL d   1     -41.173-120.714 -51.474  0.00  0.00     0.099 A 
ATOM     12  C   UNL d   1     -41.123-121.054 -50.718  0.00  0.00     0.021 A 
ENDROOT
BRANCH   1  13
ATOM     13  O   UNL d   1     -41.321-122.181 -53.483  0.00  0.00    -0.257 OA
BRANCH  13  14
ATOM     14  C   UNL d   1     -42.056-122.168 -53.886  0.00  0.00     0.378 C 
ATOM     15  N   UNL d   1     -42.081-122.023 -54.692  0.00  0.00    -0.252 N 
ATOM     16  C   UNL d   1     -42.809-122.012 -55.085  0.00  0.00     0.085 A 
ATOM     17  C   UNL d   1     -41.384-121.887 -55.112  0.00  0.00     0.085 A 
ATOM     18  C   UNL d   1     -42.837-121.866 -55.896  0.00  0.00     0.019 A 
ATOM     19  C   UNL d   1     -42.140-121.730 -56.316  0.00  0.00     0.003 A 
ATOM     20  C   UNL d   1     -41.418-121.742 -55.923  0.00  0.00     0.019 A 
ATOM     21  O   UNL d   1     -42.763-122.306 -53.460  0.00  0.00    -0.237 OA
ENDBRANCH  13  14
ENDBRANCH   1  13
TORSDOF 2
ENDMDL
MODEL 2
REMARK VINA RESULT:      -2.8      2.184      4.525
REMARK  2 active torsions:
REMARK  status: ('A' for Active; 'I' for Inactive)
REMARK    1  A    between atoms: O_3  and  C_1 
REMARK    2  A    between atoms: C_2  and  O_3 
REMARK       I    between atoms: N_7  and  C_2 
ROOT
ATOM      1  C   UNL d   1     -41.357-122.233 -51.244  0.00  0.00     0.133 A 
ATOM      2  C   UNL d   1     -41.370-122.616 -51.989  0.00  0.00     0.106 A 
ATOM      3  C   UNL d   1     -41.323-122.170 -52.674  0.00  0.00     0.030 A 
ATOM      4  C   UNL d   1     -41.298-121.414 -51.203  0.00  0.00     0.083 A 
ATOM      5  C   UNL d   1     -41.264-121.350 -52.642  0.00  0.00     0.060 A 
ATOM      6  C   UNL d   1     -41.251-120.967 -51.897  0.00  0.00     0.025 A 
ATOM      7  N   UNL d   1     -41.429-123.440 -52.019  0.00  0.00    -0.242 NA
ATOM      8 CL   UNL d   1     -41.285-121.036 -50.469  0.00  0.00    -0.080 Cl
ATOM      9 CL   UNL d   1     -41.216-120.896 -53.331  0.00  0.00    -0.082 Cl
ATOM     10  C   UNL d   1     -41.335-122.547 -53.407  0.00  0.00     0.004 A 
ATOM     11  C   UNL d   1     -41.442-123.817 -52.752  0.00  0.00     0.099 A 
ATOM     12  C   UNL d   1     -41.394-123.367 -53.448  0.00  0.00     0.021 A 
ENDROOT
BRANCH   1  13
ATOM     13  O   UNL d   1     -41.404-122.678 -50.536  0.00  0.00    -0.257 OA
BRANCH  13  14
ATOM     14  C   UNL d   1     -42.121-122.702 -50.104  0.00  0.00     0.378 C 
ATOM     15  N   UNL d   1     -42.151-123.072 -49.374  0.00  0.00    -0.252 N 
ATOM     16  C   UNL d   1     -42.862-123.093 -48.951  0.00  0.00     0.085 A 
ATOM     17  C   UNL d   1     -41.474-123.423 -49.058  0.00  0.00     0.085 A 
ATOM     18  C   UNL d   1     -42.894-123.464 -48.216  0.00  0.00     0.019 A 
ATOM     19  C   UNL d   1     -42.217-123.816 -47.901  0.00  0.00     0.003 A 
ATOM     20  C   UNL d   1     -41.512-123.794 -48.322  0.00  0.00     0.019 A 
ATOM     21  O   UNL d   1     -42.808-122.345 -50.424  0.00  0.00    -0.237 OA
ENDBRANCH  13  14
ENDBRANCH   1  13
TORSDOF 2
ENDMDL
MODEL 3
REMARK VINA RESULT:      -2.4      1.175      1.540
REMARK  2 active torsions:
REMARK  status: ('A' for Active; 'I' for Inactive)
REMARK    1  A    between atoms: O_3  and  C_1 
REMARK    2  A    between atoms: C_2  and  O_3 
REMARK       I    between atoms: N_7  and  C_2 
ROOT
ATOM      1  C   UNL d   1     -42.015-122.956 -51.768  0.00  0.00     0.133 A 
ATOM      2  C   UNL d   1     -42.321-122.663 -51.045  0.00  0.00     0.106 A 
ATOM      3  C   UNL d   1     -42.028-122.950 -50.336  0.00  0.00     0.030 A 
ATOM      4  C   UNL d   1     -41.424-123.528 -51.763  0.00  0.00     0.083 A 
ATOM      5  C   UNL d   1     -41.437-123.522 -50.322  0.00  0.00     0.060 A 
ATOM      6  C   UNL d   1     -41.130-123.815 -51.045  0.00  0.00     0.025 A 
ATOM      7  N   UNL d   1     -42.915-122.088 -51.061  0.00  0.00    -0.242 NA
ATOM      8 CL   UNL d   1     -41.123-123.817 -52.475  0.00  0.00    -0.080 Cl
ATOM      9 CL   UNL d   1     -41.138-123.814 -49.609  0.00  0.00    -0.082 Cl
ATOM     10  C   UNL d   1     -42.329-122.661 -49.624  0.00  0.00     0.004 A 
ATOM     11  C   UNL d   1     -43.216-121.800 -50.349  0.00  0.00     0.099 A 
ATOM     12  C   UNL d   1     -42.920-122.089 -49.629  0.00  0.00     0.021 A 
ENDROOT
BRANCH   1  13
ATOM     13  O   UNL d   1     -42.306-122.672 -52.499  0.00  0.00    -0.257 OA
BRANCH  13  14
ATOM     14  C   UNL d   1     -41.813-122.208 -52.993  0.00  0.00     0.378 C 
ATOM     15  N   UNL d   1     -42.006-122.100 -53.783  0.00  0.00    -0.252 N 
ATOM     16  C   UNL d   1     -41.516-121.641 -54.266  0.00  0.00     0.085 A 
ATOM     17  C   UNL d   1     -42.686-122.445 -54.096  0.00  0.00     0.085 A 
ATOM     18  C   UNL d   1     -41.708-121.530 -55.060  0.00  0.00     0.019 A 
ATOM     19  C   UNL d   1     -42.388-121.876 -55.373  0.00  0.00     0.003 A 
ATOM     20  C   UNL d   1     -42.873-122.331 -54.891  0.00  0.00     0.019 A 
ATOM     21  O   UNL d   1     -41.123-121.858 -52.676  0.00  0.00    -0.237 OA
ENDBRANCH  13  14
ENDBRANCH   1  13
TORSDOF 2
ENDMDL
MODEL 4
REMARK VINA RESULT:      -2.0      1.158      3.862
REMARK  2 active torsions:
REMARK  status: ('A' for Active; 'I' for Inactive)
REMARK    1  A    between atoms: O_3  and  C_1 
REMARK    2  A    between atoms: C_2  and  O_3 
REMARK       I    between atoms: N_7  and  C_2 
ROOT
ATOM      1  C   UNL d   1     -41.949-122.743 -53.545  0.00  0.00     0.133 A 
ATOM      2  C   UNL d   1     -42.231-122.288 -54.191  0.00  0.00     0.106 A 
ATOM      3  C   UNL d   1     -41.954-122.445 -54.946  0.00  0.00     0.030 A 
ATOM      4  C   UNL d   1     -41.400-123.341 -53.671  0.00  0.00     0.083 A 
ATOM      5  C   UNL d   1     -41.404-123.042 -55.081  0.00  0.00     0.060 A 
ATOM      6  C   UNL d   1     -41.123-123.496 -54.435  0.00  0.00     0.025 A 
ATOM      7  N   UNL d   1     -42.783-121.689 -54.053  0.00  0.00    -0.242 NA
ATOM      8 CL   UNL d   1     -41.123-123.788 -53.036  0.00  0.00    -0.080 Cl
ATOM      9 CL   UNL d   1     -41.123-123.203 -55.841  0.00  0.00    -0.082 Cl
ATOM     10  C   UNL d   1     -42.231-121.998 -55.581  0.00  0.00     0.004 A 
ATOM     11  C   UNL d   1     -43.060-121.242 -54.689  0.00  0.00     0.099 A 
ATOM     12  C   UNL d   1     -42.781-121.399 -55.456  0.00  0.00     0.021 A 
ENDROOT
BRANCH   1  13
ATOM     13  O   UNL d   1     -42.224-122.593 -52.769  0.00  0.00    -0.257 OA
BRANCH  13  14
ATOM     14  C   UNL d   1     -41.741-122.173 -52.229  0.00  0.00     0.378 C 
ATOM     15  N   UNL d   1     -41.870-122.239 -51.422  0.00  0.00    -0.252 N 
ATOM     16  C   UNL d   1     -41.390-121.822 -50.893  0.00  0.00     0.085 A 
ATOM     17  C   UNL d   1     -42.477-122.719 -51.137  0.00  0.00     0.085 A 
ATOM     18  C   UNL d   1     -41.519-121.887 -50.081  0.00  0.00     0.019 A 
ATOM     19  C   UNL d   1     -42.126-122.367 -49.796  0.00  0.00     0.003 A 
ATOM     20  C   UNL d   1     -42.601-122.781 -50.323  0.00  0.00     0.019 A 
ATOM     21  O   UNL d   1     -41.125-121.685 -52.518  0.00  0.00    -0.237 OA
ENDBRANCH  13  14
ENDBRANCH   1  13
TORSDOF 2
ENDMDL
MODEL 5
REMARK VINA RESULT:      -1.7      1.755      4.131
REMARK  2 active torsions:
REMARK  status: ('A' for Active; 'I' for Inactive)
REMARK    1  A    between atoms: O_3  and  C_1 
REMARK    2  A    between atoms: C_2  and  O_3 
REMARK       I    between atoms: N_7  and  C_2 
ROOT
ATOM      1  C   UNL d   1     -41.601-122.119 -52.589  0.00  0.00     0.133 A 
ATOM      2  C   UNL d   1     -41.516-122.575 -53.287  0.00  0.00     0.106 A 
ATOM      3  C   UNL d   1     -41.658-122.229 -54.015  0.00  0.00     0.030 A 
ATOM      4  C   UNL d   1     -41.825-121.329 -52.638  0.00  0.00     0.083 A 
ATOM      5  C   UNL d   1     -41.882-121.440 -54.073  0.00  0.00     0.060 A 
ATOM      6  C   UNL d   1     -41.967-120.983 -53.376  0.00  0.00     0.025 A 
ATOM      7  N   UNL d   1     -41.291-123.368 -53.226  0.00  0.00    -0.242 NA
ATOM      8 CL   UNL d   1     -41.908-120.880 -51.951  0.00  0.00    -0.080 Cl
ATOM      9 CL   UNL d   1     -42.026-121.087 -54.807  0.00  0.00    -0.082 Cl
ATOM     10  C   UNL d   1     -41.574-122.678 -54.702  0.00  0.00     0.004 A 
ATOM     11  C   UNL d   1     -41.208-123.817 -53.913  0.00  0.00     0.099 A 
ATOM     12  C   UNL d   1     -41.350-123.469 -54.653  0.00  0.00     0.021 A 
ENDROOT
BRANCH   1  13
ATOM     13  O   UNL d   1     -41.460-122.460 -51.838  0.00  0.00    -0.257 OA
BRANCH  13  14
ATOM     14  C   UNL d   1     -42.088-122.540 -51.289  0.00  0.00     0.378 C 
ATOM     15  N   UNL d   1     -41.970-122.937 -50.582  0.00  0.00    -0.252 N 
ATOM     16  C   UNL d   1     -42.594-123.013 -50.044  0.00  0.00     0.085 A 
ATOM     17  C   UNL d   1     -41.233-123.262 -50.405  0.00  0.00     0.085 A 
ATOM     18  C   UNL d   1     -42.478-123.412 -49.333  0.00  0.00     0.019 A 
ATOM     19  C   UNL d   1     -41.741-123.736 -49.156  0.00  0.00     0.003 A 
ATOM     20  C   UNL d   1     -41.123-123.660 -49.691  0.00  0.00     0.019 A 
ATOM     21  O   UNL d   1     -42.836-122.211 -51.469  0.00  0.00    -0.237 OA
ENDBRANCH  13  14
ENDBRANCH   1  13
TORSDOF 2
ENDMDL
