MODEL 1
REMARK VINA RESULT:      -9.0      0.000      0.000
REMARK  3 active torsions:
REMARK  status: ('A' for Active; 'I' for Inactive)
REMARK    1  A    between atoms: S_5  and  C_3 
REMARK    2  A    between atoms: C_12  and  S_5 
REMARK    3  A    between atoms: C_23  and  N_6 
ROOT
ATOM      1  C   UNL d   1     -48.852  13.390  23.323  0.00  0.00     0.155 A 
ATOM      2  C   UNL d   1     -48.398  14.005  23.039  0.00  0.00     0.092 A 
ATOM      3  C   UNL d   1     -47.294  13.130  22.918  0.00  0.00     0.124 A 
ATOM      4  N   UNL d   1     -49.636  13.522  23.526  0.00  0.00    -0.210 NA
ATOM      5  N   UNL d   1     -48.540  12.652  23.406  0.00  0.00    -0.273 N 
ATOM      6  C   UNL d   1     -47.754  12.507  23.205  0.00  0.00     0.181 A 
ATOM      7  C   UNL d   1     -48.719  14.757  22.955  0.00  0.00     0.269 A 
ATOM      8  N   UNL d   1     -49.499  14.886  23.158  0.00  0.00    -0.258 N 
ATOM      9  C   UNL d   1     -47.618  13.877  22.836  0.00  0.00     0.022 A 
ATOM     10  C   UNL d   1     -49.958  14.264  23.445  0.00  0.00     0.152 A 
ATOM     11  N   UNL d   1     -47.432  11.743  23.291  0.00  0.00    -0.128 N 
ATOM     12  C   UNL d   1     -49.828  15.633  23.078  0.00  0.00     0.084 A 
ATOM     13  O   UNL d   1     -48.255  15.386  22.665  0.00  0.00    -0.266 OA
ATOM     14  C   UNL d   1     -50.742  14.395  23.649  0.00  0.00     0.038 A 
ATOM     15  C   UNL d   1     -50.605  15.759  23.281  0.00  0.00     0.019 A 
ATOM     16  C   UNL d   1     -51.064  15.137  23.568  0.00  0.00     0.005 A 
ENDROOT
BRANCH   3  17
ATOM     17  S   UNL d   1     -46.497  12.986  22.713  0.00  0.00     0.213 S 
ATOM     18  O   UNL d   1     -46.255  13.102  23.502  0.00  0.00    -0.217 OA
ATOM     19  O   UNL d   1     -46.735  12.869  21.923  0.00  0.00    -0.217 OA
BRANCH  17  20
ATOM     20  C   UNL d   1     -45.705  12.840  22.491  0.00  0.00     0.088 A 
ATOM     21  C   UNL d   1     -45.302  12.185  22.798  0.00  0.00     0.014 A 
ATOM     22  C   UNL d   1     -44.517  12.044  22.576  0.00  0.00     0.030 A 
ATOM     23  C   UNL d   1     -44.129  12.552  22.049  0.00  0.00     0.140 A 
ATOM     24  C   UNL d   1     -44.543  13.215  21.741  0.00  0.00     0.030 A 
ATOM     25  F   UNL d   1     -43.339  12.412  21.824  0.00  0.00    -0.204 F 
ATOM     26  C   UNL d   1     -45.328  13.357  21.962  0.00  0.00     0.014 A 
ENDBRANCH  17  20
ENDBRANCH   3  17
BRANCH   5  27
ATOM     27  C   UNL d   1     -49.007  12.019  23.698  0.00  0.00     0.083 C 
ATOM     28  C   UNL d   1     -49.264  11.422  23.166  0.00  0.00     0.021 C 
ENDBRANCH   5  27
TORSDOF 3
ENDMDL
MODEL 2
REMARK VINA RESULT:      -9.0      1.197      2.077
REMARK  3 active torsions:
REMARK  status: ('A' for Active; 'I' for Inactive)
REMARK    1  A    between atoms: S_5  and  C_3 
REMARK    2  A    between atoms: C_12  and  S_5 
REMARK    3  A    between atoms: C_23  and  N_6 
ROOT
ATOM      1  C   UNL d   1     -48.455  13.435  23.053  0.00  0.00     0.155 A 
ATOM      2  C   UNL d   1     -48.197  12.661  23.039  0.00  0.00     0.092 A 
ATOM      3  C   UNL d   1     -46.894  13.106  22.717  0.00  0.00     0.124 A 
ATOM      4  N   UNL d   1     -49.241  13.600  23.223  0.00  0.00    -0.210 NA
ATOM      5  N   UNL d   1     -47.946  14.042  22.903  0.00  0.00    -0.273 N 
ATOM      6  C   UNL d   1     -47.155  13.889  22.731  0.00  0.00     0.181 A 
ATOM      7  C   UNL d   1     -48.718  12.045  23.193  0.00  0.00     0.269 A 
ATOM      8  N   UNL d   1     -49.499  12.211  23.361  0.00  0.00    -0.258 N 
ATOM      9  C   UNL d   1     -47.416  12.494  22.871  0.00  0.00     0.022 A 
ATOM     10  C   UNL d   1     -49.760  12.994  23.376  0.00  0.00     0.152 A 
ATOM     11  N   UNL d   1     -46.629  14.516  22.576  0.00  0.00    -0.128 N 
ATOM     12  C   UNL d   1     -50.026  11.602  23.516  0.00  0.00     0.084 A 
ATOM     13  O   UNL d   1     -48.454  11.254  23.178  0.00  0.00    -0.266 OA
ATOM     14  C   UNL d   1     -50.545  13.159  23.545  0.00  0.00     0.038 A 
ATOM     15  C   UNL d   1     -50.803  11.770  23.683  0.00  0.00     0.019 A 
ATOM     16  C   UNL d   1     -51.064  12.553  23.698  0.00  0.00     0.005 A 
ENDROOT
BRANCH   3  17
ATOM     17  S   UNL d   1     -46.092  12.947  22.543  0.00  0.00     0.213 S 
ATOM     18  O   UNL d   1     -45.892  12.982  23.352  0.00  0.00    -0.217 OA
ATOM     19  O   UNL d   1     -46.287  12.912  21.734  0.00  0.00    -0.217 OA
BRANCH  17  20
ATOM     20  C   UNL d   1     -45.294  12.788  22.353  0.00  0.00     0.088 A 
ATOM     21  C   UNL d   1     -44.907  12.141  22.694  0.00  0.00     0.014 A 
ATOM     22  C   UNL d   1     -44.116  11.987  22.503  0.00  0.00     0.030 A 
ATOM     23  C   UNL d   1     -43.707  12.475  21.971  0.00  0.00     0.140 A 
ATOM     24  C   UNL d   1     -44.106  13.129  21.628  0.00  0.00     0.030 A 
ATOM     25  F   UNL d   1     -42.912  12.321  21.778  0.00  0.00    -0.204 F 
ATOM     26  C   UNL d   1     -44.896  13.284  21.819  0.00  0.00     0.014 A 
ENDBRANCH  17  20
ENDBRANCH   3  17
BRANCH   5  27
ATOM     27  C   UNL d   1     -48.211  14.837  22.917  0.00  0.00     0.083 C 
ATOM     28  C   UNL d   1     -48.232  15.274  22.200  0.00  0.00     0.021 C 
ENDBRANCH   5  27
TORSDOF 3
ENDMDL
MODEL 3
REMARK VINA RESULT:      -7.9      1.583      2.184
REMARK  3 active torsions:
REMARK  status: ('A' for Active; 'I' for Inactive)
REMARK    1  A    between atoms: S_5  and  C_3 
REMARK    2  A    between atoms: C_12  and  S_5 
REMARK    3  A    between atoms: C_23  and  N_6 
ROOT
ATOM      1  C   UNL d   1     -48.342  13.721  22.486  0.00  0.00     0.155 A 
ATOM      2  C   UNL d   1     -48.387  12.923  22.325  0.00  0.00     0.092 A 
ATOM      3  C   UNL d   1     -47.058  12.760  22.780  0.00  0.00     0.124 A 
ATOM      4  N   UNL d   1     -48.988  14.204  22.337  0.00  0.00    -0.210 NA
ATOM      5  N   UNL d   1     -47.668  14.043  22.789  0.00  0.00    -0.273 N 
ATOM      6  C   UNL d   1     -47.012  13.569  22.942  0.00  0.00     0.181 A 
ATOM      7  C   UNL d   1     -49.075  12.598  22.015  0.00  0.00     0.269 A 
ATOM      8  N   UNL d   1     -49.717  13.080  21.869  0.00  0.00    -0.258 N 
ATOM      9  C   UNL d   1     -47.745  12.440  22.472  0.00  0.00     0.022 A 
ATOM     10  C   UNL d   1     -49.672  13.888  22.031  0.00  0.00     0.152 A 
ATOM     11  N   UNL d   1     -46.316  13.901  23.256  0.00  0.00    -0.128 N 
ATOM     12  C   UNL d   1     -50.408  12.764  21.560  0.00  0.00     0.084 A 
ATOM     13  O   UNL d   1     -49.121  11.781  21.851  0.00  0.00    -0.266 OA
ATOM     14  C   UNL d   1     -50.317  14.371  21.883  0.00  0.00     0.038 A 
ATOM     15  C   UNL d   1     -51.046  13.246  21.415  0.00  0.00     0.019 A 
ATOM     16  C   UNL d   1     -51.000  14.054  21.577  0.00  0.00     0.005 A 
ENDROOT
BRANCH   3  17
ATOM     17  S   UNL d   1     -46.394  12.276  22.934  0.00  0.00     0.213 S 
ATOM     18  O   UNL d   1     -46.679  12.099  23.697  0.00  0.00    -0.217 OA
ATOM     19  O   UNL d   1     -46.107  12.450  22.172  0.00  0.00    -0.217 OA
BRANCH  17  20
ATOM     20  C   UNL d   1     -45.725  11.795  23.072  0.00  0.00     0.088 A 
ATOM     21  C   UNL d   1     -45.784  11.132  23.563  0.00  0.00     0.014 A 
ATOM     22  C   UNL d   1     -45.119  10.659  23.697  0.00  0.00     0.030 A 
ATOM     23  C   UNL d   1     -44.391  10.842  23.344  0.00  0.00     0.140 A 
ATOM     24  C   UNL d   1     -44.338  11.517  22.847  0.00  0.00     0.030 A 
ATOM     25  F   UNL d   1     -43.721  10.367  23.479  0.00  0.00    -0.204 F 
ATOM     26  C   UNL d   1     -45.003  11.990  22.712  0.00  0.00     0.014 A 
ENDBRANCH  17  20
ENDBRANCH   3  17
BRANCH   5  27
ATOM     27  C   UNL d   1     -47.622  14.864  22.955  0.00  0.00     0.083 C 
ATOM     28  C   UNL d   1     -47.145  15.353  22.465  0.00  0.00     0.021 C 
ENDBRANCH   5  27
TORSDOF 3
ENDMDL
MODEL 4
REMARK VINA RESULT:      -7.2      1.984      4.652
REMARK  3 active torsions:
REMARK  status: ('A' for Active; 'I' for Inactive)
REMARK    1  A    between atoms: S_5  and  C_3 
REMARK    2  A    between atoms: C_12  and  S_5 
REMARK    3  A    between atoms: C_23  and  N_6 
ROOT
ATOM      1  C   UNL d   1     -46.277  12.405  22.935  0.00  0.00     0.155 A 
ATOM      2  C   UNL d   1     -46.247  13.117  22.537  0.00  0.00     0.092 A 
ATOM      3  C   UNL d   1     -47.607  13.345  22.851  0.00  0.00     0.124 A 
ATOM      4  N   UNL d   1     -45.607  11.932  22.977  0.00  0.00    -0.210 NA
ATOM      5  N   UNL d   1     -46.959  12.159  23.289  0.00  0.00    -0.273 N 
ATOM      6  C   UNL d   1     -47.637  12.624  23.254  0.00  0.00     0.181 A 
ATOM      7  C   UNL d   1     -45.551  13.364  22.178  0.00  0.00     0.269 A 
ATOM      8  N   UNL d   1     -44.886  12.893  22.221  0.00  0.00    -0.258 N 
ATOM      9  C   UNL d   1     -46.912  13.588  22.494  0.00  0.00     0.022 A 
ATOM     10  C   UNL d   1     -44.917  12.173  22.623  0.00  0.00     0.152 A 
ATOM     11  N   UNL d   1     -48.341  12.370  23.619  0.00  0.00    -0.128 N 
ATOM     12  C   UNL d   1     -44.188  13.132  21.865  0.00  0.00     0.084 A 
ATOM     13  O   UNL d   1     -45.520  14.092  21.771  0.00  0.00    -0.266 OA
ATOM     14  C   UNL d   1     -44.248  11.701  22.665  0.00  0.00     0.038 A 
ATOM     15  C   UNL d   1     -43.527  12.661  21.909  0.00  0.00     0.019 A 
ATOM     16  C   UNL d   1     -43.557  11.942  22.311  0.00  0.00     0.005 A 
ENDROOT
BRANCH   3  17
ATOM     17  S   UNL d   1     -48.294  13.819  22.813  0.00  0.00     0.213 S 
ATOM     18  O   UNL d   1     -48.484  13.515  22.060  0.00  0.00    -0.217 OA
ATOM     19  O   UNL d   1     -48.108  14.125  23.565  0.00  0.00    -0.217 OA
BRANCH  17  20
ATOM     20  C   UNL d   1     -48.977  14.300  22.791  0.00  0.00     0.088 A 
ATOM     21  C   UNL d   1     -49.018  14.985  23.255  0.00  0.00     0.014 A 
ATOM     22  C   UNL d   1     -49.696  15.458  23.230  0.00  0.00     0.030 A 
ATOM     23  C   UNL d   1     -50.337  15.254  22.745  0.00  0.00     0.140 A 
ATOM     24  C   UNL d   1     -50.289  14.558  22.278  0.00  0.00     0.030 A 
ATOM     25  F   UNL d   1     -51.020  15.730  22.720  0.00  0.00    -0.204 F 
ATOM     26  C   UNL d   1     -49.611  14.084  22.302  0.00  0.00     0.014 A 
ENDBRANCH  17  20
ENDBRANCH   3  17
BRANCH   5  27
ATOM     27  C   UNL d   1     -46.989  11.427  23.698  0.00  0.00     0.083 C 
ATOM     28  C   UNL d   1     -47.650  10.922  23.582  0.00  0.00     0.021 C 
ENDBRANCH   5  27
TORSDOF 3
ENDMDL
MODEL 5
REMARK VINA RESULT:      -6.5      8.855      9.558
REMARK  3 active torsions:
REMARK  status: ('A' for Active; 'I' for Inactive)
REMARK    1  A    between atoms: S_5  and  C_3 
REMARK    2  A    between atoms: C_12  and  S_5 
REMARK    3  A    between atoms: C_23  and  N_6 
ROOT
ATOM      1  C   UNL d   1     -39.538  14.530  18.114  0.00  0.00     0.155 A 
ATOM      2  C   UNL d   1     -39.967  14.942  18.673  0.00  0.00     0.092 A 
ATOM      3  C   UNL d   1     -39.110  14.452  19.686  0.00  0.00     0.124 A 
ATOM      4  N   UNL d   1     -39.754  14.570  17.324  0.00  0.00    -0.210 NA
ATOM      5  N   UNL d   1     -38.902  14.083  18.329  0.00  0.00    -0.273 N 
ATOM      6  C   UNL d   1     -38.675  14.036  19.120  0.00  0.00     0.181 A 
ATOM      7  C   UNL d   1     -40.614  15.396  18.451  0.00  0.00     0.269 A 
ATOM      8  N   UNL d   1     -40.827  15.434  17.663  0.00  0.00    -0.258 N 
ATOM      9  C   UNL d   1     -39.754  14.904  19.460  0.00  0.00     0.022 A 
ATOM     10  C   UNL d   1     -40.393  15.018  17.098  0.00  0.00     0.152 A 
ATOM     11  N   UNL d   1     -38.019  13.574  19.342  0.00  0.00    -0.128 N 
ATOM     12  C   UNL d   1     -41.472  15.885  17.433  0.00  0.00     0.084 A 
ATOM     13  O   UNL d   1     -41.052  15.817  19.022  0.00  0.00    -0.266 OA
ATOM     14  C   UNL d   1     -40.609  15.058  16.308  0.00  0.00     0.038 A 
ATOM     15  C   UNL d   1     -41.682  15.922  16.648  0.00  0.00     0.019 A 
ATOM     16  C   UNL d   1     -41.249  15.506  16.083  0.00  0.00     0.005 A 
ENDROOT
BRANCH   3  17
ATOM     17  S   UNL d   1     -38.882  14.406  20.488  0.00  0.00     0.213 S 
ATOM     18  O   UNL d   1     -38.321  15.014  20.383  0.00  0.00    -0.217 OA
ATOM     19  O   UNL d   1     -39.441  13.798  20.598  0.00  0.00    -0.217 OA
BRANCH  17  20
ATOM     20  C   UNL d   1     -38.666  14.347  21.293  0.00  0.00     0.088 A 
ATOM     21  C   UNL d   1     -38.191  14.928  21.640  0.00  0.00     0.014 A 
ATOM     22  C   UNL d   1     -37.979  14.866  22.438  0.00  0.00     0.030 A 
ATOM     23  C   UNL d   1     -38.240  14.225  22.895  0.00  0.00     0.140 A 
ATOM     24  C   UNL d   1     -38.722  13.638  22.537  0.00  0.00     0.030 A 
ATOM     25  F   UNL d   1     -38.028  14.161  23.698  0.00  0.00    -0.204 F 
ATOM     26  C   UNL d   1     -38.934  13.700  21.740  0.00  0.00     0.014 A 
ENDBRANCH  17  20
ENDBRANCH   3  17
BRANCH   5  27
ATOM     27  C   UNL d   1     -38.461  13.660  17.755  0.00  0.00     0.083 C 
ATOM     28  C   UNL d   1     -38.425  12.823  17.804  0.00  0.00     0.021 C 
ENDBRANCH   5  27
TORSDOF 3
ENDMDL
MODEL 6
REMARK VINA RESULT:      -6.2      8.605     10.399
REMARK  3 active torsions:
REMARK  status: ('A' for Active; 'I' for Inactive)
REMARK    1  A    between atoms: S_5  and  C_3 
REMARK    2  A    between atoms: C_12  and  S_5 
REMARK    3  A    between atoms: C_23  and  N_6 
ROOT
ATOM      1  C   UNL d   1     -39.382  14.852  17.428  0.00  0.00     0.155 A 
ATOM      2  C   UNL d   1     -38.908  14.324  17.831  0.00  0.00     0.092 A 
ATOM      3  C   UNL d   1     -39.392  14.831  19.059  0.00  0.00     0.124 A 
ATOM      4  N   UNL d   1     -39.377  14.862  16.608  0.00  0.00    -0.210 NA
ATOM      5  N   UNL d   1     -39.858  15.366  17.828  0.00  0.00    -0.273 N 
ATOM      6  C   UNL d   1     -39.872  15.366  18.651  0.00  0.00     0.181 A 
ATOM      7  C   UNL d   1     -38.425  13.801  17.420  0.00  0.00     0.269 A 
ATOM      8  N   UNL d   1     -38.421  13.813  16.604  0.00  0.00    -0.258 N 
ATOM      9  C   UNL d   1     -38.912  14.312  18.647  0.00  0.00     0.022 A 
ATOM     10  C   UNL d   1     -38.900  14.347  16.197  0.00  0.00     0.152 A 
ATOM     11  N   UNL d   1     -40.363  15.897  19.064  0.00  0.00    -0.128 N 
ATOM     12  C   UNL d   1     -37.942  13.295  16.187  0.00  0.00     0.084 A 
ATOM     13  O   UNL d   1     -37.940  13.261  17.832  0.00  0.00    -0.266 OA
ATOM     14  C   UNL d   1     -38.895  14.357  15.378  0.00  0.00     0.038 A 
ATOM     15  C   UNL d   1     -37.940  13.308  15.374  0.00  0.00     0.019 A 
ATOM     16  C   UNL d   1     -38.419  13.842  14.967  0.00  0.00     0.005 A 
ENDROOT
BRANCH   3  17
ATOM     17  S   UNL d   1     -39.404  14.828  19.894  0.00  0.00     0.213 S 
ATOM     18  O   UNL d   1     -40.069  14.324  19.900  0.00  0.00    -0.217 OA
ATOM     19  O   UNL d   1     -38.740  15.331  19.893  0.00  0.00    -0.217 OA
BRANCH  17  20
ATOM     20  C   UNL d   1     -39.402  14.835  20.730  0.00  0.00     0.088 A 
ATOM     21  C   UNL d   1     -39.131  15.502  21.138  0.00  0.00     0.014 A 
ATOM     22  C   UNL d   1     -39.131  15.505  21.966  0.00  0.00     0.030 A 
ATOM     23  C   UNL d   1     -39.400  14.846  22.391  0.00  0.00     0.140 A 
ATOM     24  C   UNL d   1     -39.674  14.173  21.971  0.00  0.00     0.030 A 
ATOM     25  F   UNL d   1     -39.400  14.848  23.225  0.00  0.00    -0.204 F 
ATOM     26  C   UNL d   1     -39.674  14.169  21.144  0.00  0.00     0.014 A 
ENDBRANCH  17  20
ENDBRANCH   3  17
BRANCH   5  27
ATOM     27  C   UNL d   1     -40.345  15.909  17.414  0.00  0.00     0.083 C 
ATOM     28  C   UNL d   1     -41.179  15.823  17.457  0.00  0.00     0.021 C 
ENDBRANCH   5  27
TORSDOF 3
ENDMDL
