MODEL 1
REMARK VINA RESULT:       1.8      0.000      0.000
REMARK  3 active torsions:
REMARK  status: ('A' for Active; 'I' for Inactive)
REMARK    1  A    between atoms: C_4  and  C_1 
REMARK    2  A    between atoms: C_12  and  N_3 
REMARK    3  A    between atoms: C_14  and  C_7 
ROOT
ATOM      1  N   UNL d   1      32.671  18.348 -23.422  0.00  0.00    -0.165 NA
ATOM      2  N   UNL d   1      32.261  17.716 -23.723  0.00  0.00    -0.230 N 
ATOM      3  C   UNL d   1      32.193  18.981 -23.349  0.00  0.00     0.108 A 
ATOM      4  C   UNL d   1      31.462  17.978 -23.848  0.00  0.00     0.084 A 
ATOM      5  C   UNL d   1      31.421  18.765 -23.615  0.00  0.00     0.040 A 
ENDROOT
BRANCH   3   6
ATOM      6  C   UNL d   1      32.450  19.702 -23.060  0.00  0.00     0.083 A 
ATOM      7  C   UNL d   1      32.776  20.259 -23.584  0.00  0.00     0.302 A 
ATOM      8  O   UNL d   1      33.038  20.994 -23.291  0.00  0.00    -0.273 OA
ATOM      9  O   UNL d   1      32.836  20.075 -24.394  0.00  0.00    -0.259 OA
ATOM     10  C   UNL d   1      32.975  21.169 -22.492  0.00  0.00     0.103 A 
ATOM     11  C   UNL d   1      32.649  20.612 -21.968  0.00  0.00     0.023 A 
ATOM     12  C   UNL d   1      33.235  21.890 -22.215  0.00  0.00     0.025 A 
ATOM     13  C   UNL d   1      32.389  19.886 -22.250  0.00  0.00     0.009 A 
ATOM     14  C   UNL d   1      32.586  20.783 -21.174  0.00  0.00     0.002 A 
ATOM     15  C   UNL d   1      32.846  21.508 -20.893  0.00  0.00     0.000 A 
ATOM     16  C   UNL d   1      33.172  22.065 -21.416  0.00  0.00     0.002 A 
ENDBRANCH   3   6
BRANCH   2  17
ATOM     17  C   UNL d   1      32.585  16.979 -23.867  0.00  0.00     0.083 A 
ATOM     18  C   UNL d   1      32.699  16.727 -24.644  0.00  0.00     0.019 A 
ATOM     19  C   UNL d   1      33.027  15.981 -24.799  0.00  0.00     0.002 A 
ATOM     20  C   UNL d   1      33.241  15.487 -24.155  0.00  0.00     0.000 A 
ATOM     21  C   UNL d   1      33.126  15.740 -23.378  0.00  0.00     0.002 A 
ATOM     22  C   UNL d   1      32.795  16.494 -23.227  0.00  0.00     0.019 A 
ENDBRANCH   2  17
BRANCH   4  23
ATOM     23  C   UNL d   1      30.846  17.541 -24.141  0.00  0.00     0.018 A 
ATOM     24  C   UNL d   1      30.425  17.793 -24.793  0.00  0.00     0.002 A 
ATOM     25  C   UNL d   1      29.801  17.350 -25.089  0.00  0.00     0.000 A 
ATOM     26  C   UNL d   1      29.587  16.636 -24.733  0.00  0.00     0.000 A 
ATOM     27  C   UNL d   1      30.012  16.375 -24.070  0.00  0.00     0.000 A 
ATOM     28  C   UNL d   1      30.643  16.831 -23.775  0.00  0.00     0.002 A 
ENDBRANCH   4  23
TORSDOF 3
ENDMDL
MODEL 2
REMARK VINA RESULT:       4.4      1.718      4.976
REMARK  3 active torsions:
REMARK  status: ('A' for Active; 'I' for Inactive)
REMARK    1  A    between atoms: C_4  and  C_1 
REMARK    2  A    between atoms: C_12  and  N_3 
REMARK    3  A    between atoms: C_14  and  C_7 
ROOT
ATOM      1  N   UNL d   1      32.773  20.035 -22.649  0.00  0.00    -0.165 NA
ATOM      2  N   UNL d   1      32.725  20.825 -22.472  0.00  0.00    -0.230 N 
ATOM      3  C   UNL d   1      32.910  19.932 -23.426  0.00  0.00     0.108 A 
ATOM      4  C   UNL d   1      32.843  21.248 -23.200  0.00  0.00     0.084 A 
ATOM      5  C   UNL d   1      32.958  20.691 -23.794  0.00  0.00     0.040 A 
ENDROOT
BRANCH   3   6
ATOM      6  C   UNL d   1      32.986  19.193 -23.771  0.00  0.00     0.083 A 
ATOM      7  C   UNL d   1      33.080  19.135 -24.594  0.00  0.00     0.302 A 
ATOM      8  O   UNL d   1      33.157  18.383 -24.947  0.00  0.00    -0.273 OA
ATOM      9  O   UNL d   1      33.096  19.828 -25.057  0.00  0.00    -0.259 OA
ATOM     10  C   UNL d   1      33.141  17.705 -24.485  0.00  0.00     0.103 A 
ATOM     11  C   UNL d   1      33.047  17.764 -23.662  0.00  0.00     0.023 A 
ATOM     12  C   UNL d   1      33.217  16.975 -24.839  0.00  0.00     0.025 A 
ATOM     13  C   UNL d   1      32.970  18.500 -23.308  0.00  0.00     0.009 A 
ATOM     14  C   UNL d   1      33.030  17.091 -23.201  0.00  0.00     0.002 A 
ATOM     15  C   UNL d   1      33.107  16.355 -23.555  0.00  0.00     0.000 A 
ATOM     16  C   UNL d   1      33.201  16.296 -24.378  0.00  0.00     0.002 A 
ENDBRANCH   3   6
BRANCH   2  17
ATOM     17  C   UNL d   1      32.589  21.126 -21.724  0.00  0.00     0.083 A 
ATOM     18  C   UNL d   1      31.817  21.292 -21.483  0.00  0.00     0.019 A 
ATOM     19  C   UNL d   1      31.671  21.597 -20.726  0.00  0.00     0.002 A 
ATOM     20  C   UNL d   1      32.317  21.735 -20.209  0.00  0.00     0.000 A 
ATOM     21  C   UNL d   1      33.089  21.569 -20.450  0.00  0.00     0.002 A 
ATOM     22  C   UNL d   1      33.231  21.261 -21.215  0.00  0.00     0.019 A 
ENDBRANCH   2  17
BRANCH   4  23
ATOM     23  C   UNL d   1      32.843  22.052 -23.303  0.00  0.00     0.018 A 
ATOM     24  C   UNL d   1      33.241  22.542 -22.786  0.00  0.00     0.002 A 
ATOM     25  C   UNL d   1      33.241  23.355 -22.891  0.00  0.00     0.000 A 
ATOM     26  C   UNL d   1      32.835  23.696 -23.525  0.00  0.00     0.000 A 
ATOM     27  C   UNL d   1      32.429  23.203 -24.053  0.00  0.00     0.000 A 
ATOM     28  C   UNL d   1      32.434  22.378 -23.940  0.00  0.00     0.002 A 
ENDBRANCH   4  23
TORSDOF 3
ENDMDL
