MODEL 1
REMARK VINA RESULT:      49.0      0.000      0.000
REMARK  4 active torsions:
REMARK  status: ('A' for Active; 'I' for Inactive)
REMARK    1  A    between atoms: N_15  and  C_2 
REMARK    2  A    between atoms: C_3  and  C_9 
REMARK    3  A    between atoms: C_11  and  C_7 
REMARK       I    between atoms: C_9  and  N_14 
REMARK    4  A    between atoms: N_14  and  N_15 
ROOT
ATOM      1  C   UNL d   1      45.743 -14.111  43.937  0.00  0.00     0.062 A 
ATOM      2  N   UNL d   1      44.629 -13.448  42.918  0.00  0.00    -0.245 NA
ATOM      3  C   UNL d   1      45.440 -13.388  42.741  0.00  0.00     0.087 A 
ATOM      4  C   UNL d   1      45.991 -13.724  43.260  0.00  0.00     0.025 A 
ATOM      5  C   UNL d   1      44.929 -14.163  44.098  0.00  0.00     0.022 A 
ATOM      6  C   UNL d   1      44.381 -13.835  43.595  0.00  0.00     0.082 A 
ATOM      7  C   UNL d   1      44.691 -14.556  44.785  0.00  0.00     0.002 A 
ATOM      8  C   UNL d   1      43.586 -13.891  43.761  0.00  0.00     0.019 A 
ATOM      9  C   UNL d   1      43.882 -14.613  44.955  0.00  0.00     0.000 A 
ATOM     10  C   UNL d   1      43.336 -14.281  44.445  0.00  0.00     0.002 A 
ENDROOT
BRANCH   1  11
ATOM     11  C   UNL d   1      46.300 -14.441  44.442  0.00  0.00     0.297 C 
ATOM     12  N   UNL d   1      46.407 -15.245  44.342  0.00  0.00    -0.104 NA
ATOM     13  O   UNL d   1      46.639 -13.879  44.954  0.00  0.00    -0.264 OA
BRANCH  12  14
ATOM     14  N   UNL d   1      45.973 -15.644  43.773  0.00  0.00    -0.118 NA
BRANCH  14  15
ATOM     15  C   UNL d   1      46.060 -16.465  43.678  0.00  0.00     0.215 A 
ATOM     16  N   UNL d   1      46.213 -16.856  42.974  0.00  0.00    -0.219 NA
ATOM     17  C   UNL d   1      46.258 -17.661  43.120  0.00  0.00     0.090 A 
ATOM     18  C   UNL d   1      46.130 -17.768  43.934  0.00  0.00     0.050 A 
ATOM     19  C   UNL d   1      46.396 -18.309  42.637  0.00  0.00     0.018 A 
ATOM     20  C   UNL d   1      46.140 -18.524  44.266  0.00  0.00     0.008 A 
ATOM     21  S   UNL d   1      46.009 -17.031  44.273  0.00  0.00    -0.045 SA
ATOM     22  C   UNL d   1      46.280 -19.173  43.765  0.00  0.00     0.001 A 
ATOM     23  C   UNL d   1      46.407 -19.067  42.960  0.00  0.00     0.002 A 
ATOM     24  C   UNL d   1      46.523 -18.198  41.826  0.00  0.00     0.002 C 
ENDBRANCH  14  15
ENDBRANCH  12  14
ENDBRANCH   1  11
BRANCH   3  25
ATOM     25  C   UNL d   1      45.692 -12.995  42.054  0.00  0.00     0.047 A 
ATOM     26  S   UNL d   1      45.241 -12.379  41.741  0.00  0.00    -0.085 SA
ATOM     27  C   UNL d   1      45.619 -12.092  41.064  0.00  0.00     0.035 A 
ATOM     28  C   UNL d   1      46.289 -12.526  40.967  0.00  0.00     0.007 A 
ATOM     29  C   UNL d   1      46.351 -13.093  41.573  0.00  0.00     0.009 A 
ENDBRANCH   3  25
TORSDOF 4
ENDMDL
MODEL 2
REMARK VINA RESULT:      50.4      2.002      5.345
REMARK  4 active torsions:
REMARK  status: ('A' for Active; 'I' for Inactive)
REMARK    1  A    between atoms: N_15  and  C_2 
REMARK    2  A    between atoms: C_3  and  C_9 
REMARK    3  A    between atoms: C_11  and  C_7 
REMARK       I    between atoms: C_9  and  N_14 
REMARK    4  A    between atoms: N_14  and  N_15 
ROOT
ATOM      1  C   UNL d   1      45.129 -18.123  42.313  0.00  0.00     0.062 A 
ATOM      2  N   UNL d   1      46.391 -19.183  42.326  0.00  0.00    -0.245 NA
ATOM      3  C   UNL d   1      45.947 -19.059  43.019  0.00  0.00     0.087 A 
ATOM      4  C   UNL d   1      45.315 -18.525  43.001  0.00  0.00     0.025 A 
ATOM      5  C   UNL d   1      45.583 -18.258  41.630  0.00  0.00     0.022 A 
ATOM      6  C   UNL d   1      46.206 -18.781  41.638  0.00  0.00     0.082 A 
ATOM      7  C   UNL d   1      45.386 -17.846  40.942  0.00  0.00     0.002 A 
ATOM      8  C   UNL d   1      46.645 -18.907  40.964  0.00  0.00     0.019 A 
ATOM      9  C   UNL d   1      45.832 -17.973  40.256  0.00  0.00     0.000 A 
ATOM     10  C   UNL d   1      46.457 -18.501  40.270  0.00  0.00     0.002 A 
ENDROOT
BRANCH   1  11
ATOM     11  C   UNL d   1      44.500 -17.595  42.310  0.00  0.00     0.297 C 
ATOM     12  N   UNL d   1      44.670 -16.870  42.648  0.00  0.00    -0.104 NA
ATOM     13  O   UNL d   1      43.816 -17.914  41.959  0.00  0.00    -0.264 OA
BRANCH  12  14
ATOM     14  N   UNL d   1      45.418 -16.730  42.950  0.00  0.00    -0.118 NA
BRANCH  14  15
ATOM     15  C   UNL d   1      45.572 -16.040  43.388  0.00  0.00     0.215 A 
ATOM     16  N   UNL d   1      45.114 -15.360  43.393  0.00  0.00    -0.219 NA
ATOM     17  C   UNL d   1      45.458 -14.812  43.896  0.00  0.00     0.090 A 
ATOM     18  C   UNL d   1      46.143 -15.163  44.208  0.00  0.00     0.050 A 
ATOM     19  C   UNL d   1      45.250 -14.049  44.115  0.00  0.00     0.018 A 
ATOM     20  C   UNL d   1      46.622 -14.751  44.740  0.00  0.00     0.008 A 
ATOM     21  S   UNL d   1      46.209 -15.918  43.893  0.00  0.00    -0.045 SA
ATOM     22  C   UNL d   1      46.400 -13.979  44.955  0.00  0.00     0.001 A 
ATOM     23  C   UNL d   1      45.722 -13.631  44.646  0.00  0.00     0.002 A 
ATOM     24  C   UNL d   1      44.565 -13.703  43.802  0.00  0.00     0.002 C 
ENDBRANCH  14  15
ENDBRANCH  12  14
ENDBRANCH   1  11
BRANCH   3  25
ATOM     25  C   UNL d   1      46.136 -19.468  43.717  0.00  0.00     0.047 A 
ATOM     26  S   UNL d   1      46.523 -19.077  44.332  0.00  0.00    -0.085 SA
ATOM     27  C   UNL d   1      46.640 -19.611  44.952  0.00  0.00     0.035 A 
ATOM     28  C   UNL d   1      46.329 -20.315  44.718  0.00  0.00     0.007 A 
ATOM     29  C   UNL d   1      46.011 -20.245  43.952  0.00  0.00     0.009 A 
ENDBRANCH   3  25
TORSDOF 4
ENDMDL
