MODEL 1
REMARK VINA RESULT:       8.7      0.000      0.000
REMARK  5 active torsions:
REMARK  status: ('A' for Active; 'I' for Inactive)
REMARK    1  A    between atoms: C_9  and  C_1 
REMARK    2  A    between atoms: S_2  and  N_8 
REMARK    3  A    between atoms: C_10  and  S_2 
REMARK    4  A    between atoms: C_14  and  C_3 
REMARK    5  A    between atoms: N_8  and  C_9 
ROOT
ATOM      1  C   UNL d   1     -42.216-123.118 -50.801  0.00  0.00     0.078 A 
ATOM      2  C   UNL d   1     -42.629-122.876 -50.119  0.00  0.00     0.008 A 
ATOM      3  C   UNL d   1     -41.538-123.575 -50.731  0.00  0.00     0.281 A 
ATOM      4  C   UNL d   1     -42.350-123.100 -49.380  0.00  0.00     0.019 A 
ATOM      5  N   UNL d   1     -41.259-123.800 -49.979  0.00  0.00    -0.208 NA
ATOM      6  C   UNL d   1     -41.671-123.558 -49.311  0.00  0.00     0.085 A 
ATOM      7  C   UNL d   1     -42.761-122.859 -48.708  0.00  0.00     0.013 A 
ATOM      8  O   UNL d   1     -41.123-123.817 -51.424  0.00  0.00    -0.265 OA
ATOM      9  C   UNL d   1     -41.392-123.783 -48.568  0.00  0.00     0.020 A 
ATOM     10  C   UNL d   1     -42.483-123.083 -47.955  0.00  0.00     0.058 A 
ATOM     11  C   UNL d   1     -41.805-123.541 -47.885  0.00  0.00     0.013 A 
ATOM     12 CL   UNL d   1     -42.897-122.841 -47.263  0.00  0.00    -0.082 Cl
ENDROOT
BRANCH   1  13
ATOM     13  C   UNL d   1     -42.494-122.893 -51.554  0.00  0.00     0.117 C 
BRANCH  13  14
ATOM     14  N   UNL d   1     -42.521-123.454 -52.164  0.00  0.00    -0.157 NA
BRANCH  14  15
ATOM     15  S   UNL d   1     -42.386-123.037 -52.877  0.00  0.00     0.285 S 
ATOM     16  O   UNL d   1     -42.231-122.346 -52.444  0.00  0.00    -0.198 OA
ATOM     17  O   UNL d   1     -42.544-123.736 -53.303  0.00  0.00    -0.198 OA
BRANCH  15  18
ATOM     18  C   UNL d   1     -42.252-122.625 -53.584  0.00  0.00     0.105 A 
ATOM     19  C   UNL d   1     -41.583-122.786 -54.042  0.00  0.00     0.013 A 
ATOM     20  C   UNL d   1     -41.442-122.384 -54.742  0.00  0.00     0.001 A 
ATOM     21  C   UNL d   1     -41.985-121.800 -54.998  0.00  0.00     0.000 A 
ATOM     22  C   UNL d   1     -42.655-121.638 -54.541  0.00  0.00     0.001 A 
ATOM     23  C   UNL d   1     -41.853-121.391 -55.699  0.00  0.00     0.000 C 
ATOM     24  C   UNL d   1     -42.789-122.051 -53.833  0.00  0.00     0.013 A 
ENDBRANCH  15  18
ENDBRANCH  14  15
ENDBRANCH  13  14
ENDBRANCH   1  13
BRANCH   2  25
ATOM     25  C   UNL d   1     -43.308-122.418 -50.189  0.00  0.00     0.000 A 
ATOM     26  C   UNL d   1     -43.256-121.602 -50.259  0.00  0.00     0.000 A 
ATOM     27  C   UNL d   1     -43.935-121.144 -50.328  0.00  0.00     0.000 A 
ATOM     28  C   UNL d   1     -44.677-121.494 -50.329  0.00  0.00     0.000 A 
ATOM     29  C   UNL d   1     -44.740-122.326 -50.258  0.00  0.00     0.000 A 
ATOM     30  C   UNL d   1     -44.058-122.780 -50.189  0.00  0.00     0.000 A 
ENDBRANCH   2  25
TORSDOF 5
ENDMDL
MODEL 2
REMARK VINA RESULT:      10.2      2.177      4.808
REMARK  5 active torsions:
REMARK  status: ('A' for Active; 'I' for Inactive)
REMARK    1  A    between atoms: C_9  and  C_1 
REMARK    2  A    between atoms: S_2  and  N_8 
REMARK    3  A    between atoms: C_10  and  S_2 
REMARK    4  A    between atoms: C_14  and  C_3 
REMARK    5  A    between atoms: N_8  and  C_9 
ROOT
ATOM      1  C   UNL d   1     -41.665-122.554 -52.036  0.00  0.00     0.078 A 
ATOM      2  C   UNL d   1     -41.626-122.108 -52.739  0.00  0.00     0.008 A 
ATOM      3  C   UNL d   1     -41.589-123.371 -52.061  0.00  0.00     0.281 A 
ATOM      4  C   UNL d   1     -41.510-122.496 -53.454  0.00  0.00     0.019 A 
ATOM      5  N   UNL d   1     -41.472-123.758 -52.789  0.00  0.00    -0.208 NA
ATOM      6  C   UNL d   1     -41.434-123.313 -53.479  0.00  0.00     0.085 A 
ATOM      7  C   UNL d   1     -41.472-122.051 -54.147  0.00  0.00     0.013 A 
ATOM      8  O   UNL d   1     -41.629-123.817 -51.348  0.00  0.00    -0.265 OA
ATOM      9  C   UNL d   1     -41.318-123.701 -54.198  0.00  0.00     0.020 A 
ATOM     10  C   UNL d   1     -41.355-122.438 -54.876  0.00  0.00     0.058 A 
ATOM     11  C   UNL d   1     -41.278-123.255 -54.901  0.00  0.00     0.013 A 
ATOM     12 CL   UNL d   1     -41.315-121.992 -55.588  0.00  0.00    -0.082 Cl
ENDROOT
BRANCH   1  13
ATOM     13  C   UNL d   1     -41.782-122.167 -51.308  0.00  0.00     0.117 C 
BRANCH  13  14
ATOM     14  N   UNL d   1     -42.526-122.197 -50.943  0.00  0.00    -0.157 NA
BRANCH  14  15
ATOM     15  S   UNL d   1     -42.388-122.351 -50.132  0.00  0.00     0.285 S 
ATOM     16  O   UNL d   1     -43.116-122.746 -50.082  0.00  0.00    -0.198 OA
ATOM     17  O   UNL d   1     -41.658-121.952 -50.191  0.00  0.00    -0.198 OA
BRANCH  15  18
ATOM     18  C   UNL d   1     -42.250-122.503 -49.328  0.00  0.00     0.105 A 
ATOM     19  C   UNL d   1     -41.478-122.584 -49.044  0.00  0.00     0.013 A 
ATOM     20  C   UNL d   1     -41.331-122.735 -48.252  0.00  0.00     0.001 A 
ATOM     21  C   UNL d   1     -41.975-122.807 -47.721  0.00  0.00     0.000 A 
ATOM     22  C   UNL d   1     -42.748-122.726 -48.004  0.00  0.00     0.001 A 
ATOM     23  C   UNL d   1     -41.839-122.958 -46.924  0.00  0.00     0.000 C 
ATOM     24  C   UNL d   1     -42.886-122.574 -48.808  0.00  0.00     0.013 A 
ENDBRANCH  15  18
ENDBRANCH  14  15
ENDBRANCH  13  14
ENDBRANCH   1  13
BRANCH   2  25
ATOM     25  C   UNL d   1     -41.703-121.290 -52.714  0.00  0.00     0.000 A 
ATOM     26  C   UNL d   1     -41.123-120.827 -52.364  0.00  0.00     0.000 A 
ATOM     27  C   UNL d   1     -41.199-120.009 -52.339  0.00  0.00     0.000 A 
ATOM     28  C   UNL d   1     -41.857-119.640 -52.663  0.00  0.00     0.000 A 
ATOM     29  C   UNL d   1     -42.454-120.105 -53.022  0.00  0.00     0.000 A 
ATOM     30  C   UNL d   1     -42.373-120.923 -53.045  0.00  0.00     0.000 A 
ENDBRANCH   2  25
TORSDOF 5
ENDMDL
