MODEL 1
REMARK VINA RESULT:      -6.3      0.000      0.000
REMARK  3 active torsions:
REMARK  status: ('A' for Active; 'I' for Inactive)
REMARK    1  A    between atoms: S_6  and  C_1 
REMARK    2  A    between atoms: C_9  and  S_6 
REMARK    3  A    between atoms: C_7  and  C_9 
ROOT
ATOM      1  C   UNL d   1     -48.027  13.905  22.790  0.00  0.00     0.191 A 
ATOM      2  N   UNL d   1     -48.698  13.542  23.073  0.00  0.00    -0.220 NA
ATOM      3  N   UNL d   1     -48.167  14.698  22.700  0.00  0.00    -0.220 NA
ATOM      4  C   UNL d   1     -49.257  14.126  23.157  0.00  0.00     0.101 A 
ATOM      5  C   UNL d   1     -48.927  14.845  22.925  0.00  0.00     0.101 A 
ATOM      6  C   UNL d   1     -50.040  14.091  23.421  0.00  0.00     0.021 A 
ATOM      7  C   UNL d   1     -49.384  15.520  22.959  0.00  0.00     0.021 A 
ATOM      8  C   UNL d   1     -50.160  15.506  23.218  0.00  0.00     0.002 A 
ATOM      9  C   UNL d   1     -50.490  14.787  23.450  0.00  0.00     0.002 A 
ENDROOT
BRANCH   1  10
ATOM     10  S   UNL d   1     -47.319  13.525  22.621  0.00  0.00    -0.064 SA
BRANCH  10  11
ATOM     11  C   UNL d   1     -46.676  13.601  23.131  0.00  0.00     0.162 C 
BRANCH  11  12
ATOM     12  C   UNL d   1     -45.971  13.169  22.989  0.00  0.00     0.197 C 
ATOM     13  O   UNL d   1     -45.454  13.420  22.406  0.00  0.00    -0.647 OA
ATOM     14  O   UNL d   1     -45.811  12.497  23.442  0.00  0.00    -0.647 OA
ENDBRANCH  11  12
ENDBRANCH  10  11
ENDBRANCH   1  10
TORSDOF 3
ENDMDL
MODEL 2
REMARK VINA RESULT:      -6.3      2.329      3.542
REMARK  3 active torsions:
REMARK  status: ('A' for Active; 'I' for Inactive)
REMARK    1  A    between atoms: S_6  and  C_1 
REMARK    2  A    between atoms: C_9  and  S_6 
REMARK    3  A    between atoms: C_7  and  C_9 
ROOT
ATOM      1  C   UNL d   1     -48.385  13.707  22.956  0.00  0.00     0.191 A 
ATOM      2  N   UNL d   1     -48.659  12.961  23.131  0.00  0.00    -0.220 NA
ATOM      3  N   UNL d   1     -47.577  13.720  23.021  0.00  0.00    -0.220 NA
ATOM      4  C   UNL d   1     -48.005  12.511  23.306  0.00  0.00     0.101 A 
ATOM      5  C   UNL d   1     -47.332  12.983  23.237  0.00  0.00     0.101 A 
ATOM      6  C   UNL d   1     -47.938  11.716  23.523  0.00  0.00     0.021 A 
ATOM      7  C   UNL d   1     -46.600  12.654  23.386  0.00  0.00     0.021 A 
ATOM      8  C   UNL d   1     -46.514  11.869  23.602  0.00  0.00     0.002 A 
ATOM      9  C   UNL d   1     -47.187  11.398  23.670  0.00  0.00     0.002 A 
ENDROOT
BRANCH   1  10
ATOM     10  S   UNL d   1     -48.855  14.347  22.747  0.00  0.00    -0.064 SA
BRANCH  10  11
ATOM     11  C   UNL d   1     -49.455  14.604  23.250  0.00  0.00     0.162 C 
BRANCH  11  12
ATOM     12  C   UNL d   1     -49.849  15.329  23.102  0.00  0.00     0.197 C 
ATOM     13  O   UNL d   1     -49.862  15.908  23.681  0.00  0.00    -0.647 OA
ATOM     14  O   UNL d   1     -50.218  15.448  22.373  0.00  0.00    -0.647 OA
ENDBRANCH  11  12
ENDBRANCH  10  11
ENDBRANCH   1  10
TORSDOF 3
ENDMDL
MODEL 3
REMARK VINA RESULT:      -6.1      1.301      1.726
REMARK  3 active torsions:
REMARK  status: ('A' for Active; 'I' for Inactive)
REMARK    1  A    between atoms: S_6  and  C_1 
REMARK    2  A    between atoms: C_9  and  S_6 
REMARK    3  A    between atoms: C_7  and  C_9 
ROOT
ATOM      1  C   UNL d   1     -48.315  12.743  22.987  0.00  0.00     0.191 A 
ATOM      2  N   UNL d   1     -48.695  12.034  23.110  0.00  0.00    -0.220 NA
ATOM      3  N   UNL d   1     -48.834  13.353  23.109  0.00  0.00    -0.220 NA
ATOM      4  C   UNL d   1     -49.462  12.217  23.311  0.00  0.00     0.101 A 
ATOM      5  C   UNL d   1     -49.548  13.037  23.311  0.00  0.00     0.101 A 
ATOM      6  C   UNL d   1     -50.102  11.729  23.498  0.00  0.00     0.021 A 
ATOM      7  C   UNL d   1     -50.274  13.359  23.497  0.00  0.00     0.021 A 
ATOM      8  C   UNL d   1     -50.920  12.893  23.684  0.00  0.00     0.002 A 
ATOM      9  C   UNL d   1     -50.833  12.072  23.685  0.00  0.00     0.002 A 
ENDROOT
BRANCH   1  10
ATOM     10  S   UNL d   1     -47.527  12.826  22.772  0.00  0.00    -0.064 SA
BRANCH  10  11
ATOM     11  C   UNL d   1     -46.958  13.006  23.341  0.00  0.00     0.162 C 
BRANCH  11  12
ATOM     12  C   UNL d   1     -46.145  13.023  23.135  0.00  0.00     0.197 C 
ATOM     13  O   UNL d   1     -45.837  13.683  22.762  0.00  0.00    -0.647 OA
ATOM     14  O   UNL d   1     -45.670  12.372  23.313  0.00  0.00    -0.647 OA
ENDBRANCH  11  12
ENDBRANCH  10  11
ENDBRANCH   1  10
TORSDOF 3
ENDMDL
MODEL 4
REMARK VINA RESULT:      -4.6      8.560      9.403
REMARK  3 active torsions:
REMARK  status: ('A' for Active; 'I' for Inactive)
REMARK    1  A    between atoms: S_6  and  C_1 
REMARK    2  A    between atoms: C_9  and  S_6 
REMARK    3  A    between atoms: C_7  and  C_9 
ROOT
ATOM      1  C   UNL d   1     -40.280  14.516  18.804  0.00  0.00     0.191 A 
ATOM      2  N   UNL d   1     -40.758  14.593  19.458  0.00  0.00    -0.220 NA
ATOM      3  N   UNL d   1     -39.530  14.320  19.039  0.00  0.00    -0.220 NA
ATOM      4  C   UNL d   1     -40.288  14.440  20.104  0.00  0.00     0.101 A 
ATOM      5  C   UNL d   1     -39.524  14.271  19.843  0.00  0.00     0.101 A 
ATOM      6  C   UNL d   1     -40.465  14.435  20.912  0.00  0.00     0.021 A 
ATOM      7  C   UNL d   1     -38.947  14.098  20.393  0.00  0.00     0.021 A 
ATOM      8  C   UNL d   1     -39.102  14.088  21.196  0.00  0.00     0.002 A 
ATOM      9  C   UNL d   1     -39.866  14.257  21.457  0.00  0.00     0.002 A 
ENDROOT
BRANCH   1  10
ATOM     10  S   UNL d   1     -40.523  14.621  18.026  0.00  0.00    -0.064 SA
BRANCH  10  11
ATOM     11  C   UNL d   1     -40.712  15.373  17.749  0.00  0.00     0.162 C 
BRANCH  11  12
ATOM     12  C   UNL d   1     -40.863  15.497  16.933  0.00  0.00     0.197 C 
ATOM     13  O   UNL d   1     -41.546  15.196  16.598  0.00  0.00    -0.647 OA
ATOM     14  O   UNL d   1     -40.317  15.921  16.481  0.00  0.00    -0.647 OA
ENDBRANCH  11  12
ENDBRANCH  10  11
ENDBRANCH   1  10
TORSDOF 3
ENDMDL
