MODEL 1
REMARK VINA RESULT:      52.7      0.000      0.000
REMARK  3 active torsions:
REMARK  status: ('A' for Active; 'I' for Inactive)
REMARK    1  A    between atoms: C_2  and  S_1 
REMARK    2  A    between atoms: N_3  and  S_1 
REMARK    3  A    between atoms: C_12  and  N_3 
ROOT
ATOM      1  S   UNL d   1     -47.112  31.043  35.322  0.00  0.00     0.285 S 
ATOM      2  O   UNL d   1     -47.261  31.405  35.964  0.00  0.00    -0.198 OA
ATOM      3  O   UNL d   1     -46.882  30.859  34.606  0.00  0.00    -0.198 OA
ENDROOT
BRANCH   1   4
ATOM      4  C   UNL d   1     -47.406  30.284  35.507  0.00  0.00     0.105 A 
ATOM      5  C   UNL d   1     -47.247  29.946  36.247  0.00  0.00     0.012 A 
ATOM      6  C   UNL d   1     -47.538  29.194  36.430  0.00  0.00     0.001 A 
ATOM      7  C   UNL d   1     -46.786  30.378  36.802  0.00  0.00     0.001 C 
ATOM      8  C   UNL d   1     -47.988  28.785  35.873  0.00  0.00     0.000 A 
ATOM      9  C   UNL d   1     -48.155  29.116  35.127  0.00  0.00     0.001 A 
ATOM     10  C   UNL d   1     -47.863  29.868  34.944  0.00  0.00     0.013 A 
ATOM     11  C   UNL d   1     -48.611  28.695  34.569  0.00  0.00     0.000 C 
ENDBRANCH   1   4
BRANCH   1  12
ATOM     12  N   UNL d   1     -46.869  31.742  35.222  0.00  0.00    -0.158 NA
BRANCH  12  13
ATOM     13  C   UNL d   1     -47.318  32.096  34.832  0.00  0.00     0.095 A 
ATOM     14  C   UNL d   1     -47.084  32.578  34.392  0.00  0.00     0.040 A 
ATOM     15  C   UNL d   1     -47.536  32.920  34.013  0.00  0.00     0.089 A 
ATOM     16  N   UNL d   1     -47.450  33.415  33.544  0.00  0.00    -0.236 NA
ATOM     17  C   UNL d   1     -48.207  32.798  34.058  0.00  0.00     0.049 A 
ATOM     18  C   UNL d   1     -48.076  33.592  33.306  0.00  0.00     0.135 A 
ATOM     19  S   UNL d   1     -48.532  33.211  33.623  0.00  0.00    -0.064 SA
ATOM     20  C   UNL d   1     -48.430  32.312  34.503  0.00  0.00     0.010 A 
ATOM     21  C   UNL d   1     -47.984  31.959  34.892  0.00  0.00     0.021 A 
ENDBRANCH  12  13
ENDBRANCH   1  12
TORSDOF 3
ENDMDL
MODEL 2
REMARK VINA RESULT:      54.9      1.043      3.493
REMARK  3 active torsions:
REMARK  status: ('A' for Active; 'I' for Inactive)
REMARK    1  A    between atoms: C_2  and  S_1 
REMARK    2  A    between atoms: N_3  and  S_1 
REMARK    3  A    between atoms: C_12  and  N_3 
ROOT
ATOM      1  S   UNL d   1     -47.158  31.976  34.891  0.00  0.00     0.285 S 
ATOM      2  O   UNL d   1     -47.329  32.306  35.543  0.00  0.00    -0.198 OA
ATOM      3  O   UNL d   1     -46.871  31.507  34.343  0.00  0.00    -0.198 OA
ENDROOT
BRANCH   1   4
ATOM      4  C   UNL d   1     -47.583  32.462  34.362  0.00  0.00     0.105 A 
ATOM      5  C   UNL d   1     -47.177  32.956  33.834  0.00  0.00     0.012 A 
ATOM      6  C   UNL d   1     -47.597  33.438  33.311  0.00  0.00     0.001 A 
ATOM      7  C   UNL d   1     -46.335  32.957  33.842  0.00  0.00     0.001 C 
ATOM      8  C   UNL d   1     -48.422  33.424  33.317  0.00  0.00     0.000 A 
ATOM      9  C   UNL d   1     -48.840  32.932  33.843  0.00  0.00     0.001 A 
ATOM     10  C   UNL d   1     -48.419  32.450  34.367  0.00  0.00     0.013 A 
ATOM     11  C   UNL d   1     -49.675  32.924  33.843  0.00  0.00     0.000 C 
ENDBRANCH   1   4
BRANCH   1  12
ATOM     12  N   UNL d   1     -46.803  31.582  35.416  0.00  0.00    -0.158 NA
BRANCH  12  13
ATOM     13  C   UNL d   1     -47.047  30.934  35.432  0.00  0.00     0.095 A 
ATOM     14  C   UNL d   1     -47.300  30.677  36.025  0.00  0.00     0.040 A 
ATOM     15  C   UNL d   1     -47.537  30.039  36.028  0.00  0.00     0.089 A 
ATOM     16  N   UNL d   1     -47.811  29.661  36.534  0.00  0.00    -0.236 NA
ATOM     17  C   UNL d   1     -47.531  29.650  35.466  0.00  0.00     0.049 A 
ATOM     18  C   UNL d   1     -47.971  29.040  36.271  0.00  0.00     0.135 A 
ATOM     19  S   UNL d   1     -47.797  29.042  35.619  0.00  0.00    -0.064 SA
ATOM     20  C   UNL d   1     -47.275  29.919  34.877  0.00  0.00     0.010 A 
ATOM     21  C   UNL d   1     -47.032  30.563  34.859  0.00  0.00     0.021 A 
ENDBRANCH  12  13
ENDBRANCH   1  12
TORSDOF 3
ENDMDL
MODEL 3
REMARK VINA RESULT:      55.1      5.196      7.033
REMARK  3 active torsions:
REMARK  status: ('A' for Active; 'I' for Inactive)
REMARK    1  A    between atoms: C_2  and  S_1 
REMARK    2  A    between atoms: N_3  and  S_1 
REMARK    3  A    between atoms: C_12  and  N_3 
ROOT
ATOM      1  S   UNL d   1     -50.571  26.411  34.003  0.00  0.00     0.285 S 
ATOM      2  O   UNL d   1     -51.278  26.628  33.870  0.00  0.00    -0.198 OA
ATOM      3  O   UNL d   1     -49.857  26.114  33.943  0.00  0.00    -0.198 OA
ENDROOT
BRANCH   1   4
ATOM      4  C   UNL d   1     -50.476  26.685  34.786  0.00  0.00     0.105 A 
ATOM      5  C   UNL d   1     -49.809  27.132  34.990  0.00  0.00     0.012 A 
ATOM      6  C   UNL d   1     -49.714  27.404  35.766  0.00  0.00     0.001 A 
ATOM      7  C   UNL d   1     -49.235  27.303  34.400  0.00  0.00     0.001 C 
ATOM      8  C   UNL d   1     -50.287  27.226  36.332  0.00  0.00     0.000 A 
ATOM      9  C   UNL d   1     -50.960  26.778  36.137  0.00  0.00     0.001 A 
ATOM     10  C   UNL d   1     -51.055  26.506  35.362  0.00  0.00     0.013 A 
ATOM     11  C   UNL d   1     -51.536  26.602  36.717  0.00  0.00     0.000 C 
ENDBRANCH   1   4
BRANCH   1  12
ATOM     12  N   UNL d   1     -50.723  26.192  33.306  0.00  0.00    -0.158 NA
BRANCH  12  13
ATOM     13  C   UNL d   1     -50.948  25.537  33.306  0.00  0.00     0.095 A 
ATOM     14  C   UNL d   1     -51.630  25.409  33.306  0.00  0.00     0.040 A 
ATOM     15  C   UNL d   1     -51.839  24.761  33.307  0.00  0.00     0.089 A 
ATOM     16  N   UNL d   1     -52.472  24.490  33.307  0.00  0.00    -0.236 NA
ATOM     17  C   UNL d   1     -51.397  24.240  33.307  0.00  0.00     0.049 A 
ATOM     18  C   UNL d   1     -52.406  23.800  33.307  0.00  0.00     0.135 A 
ATOM     19  S   UNL d   1     -51.748  23.656  33.308  0.00  0.00    -0.064 SA
ATOM     20  C   UNL d   1     -50.715  24.381  33.308  0.00  0.00     0.010 A 
ATOM     21  C   UNL d   1     -50.489  25.032  33.307  0.00  0.00     0.021 A 
ENDBRANCH  12  13
ENDBRANCH   1  12
TORSDOF 3
ENDMDL
