MODEL 1
REMARK VINA RESULT:      19.8      0.000      0.000
REMARK  5 active torsions:
REMARK  status: ('A' for Active; 'I' for Inactive)
REMARK    1  A    between atoms: C_4  and  N_1 
REMARK    2  A    between atoms: C_8  and  C_2 
REMARK    3  A    between atoms: C_13  and  C_6 
REMARK    4  A    between atoms: C_7  and  C_8 
REMARK    5  A    between atoms: O_24  and  C_22 
ROOT
ATOM      1  N   UNL d   1     -41.737-122.401 -54.056  0.00  0.00    -0.255 N 
ATOM      2  C   UNL d   1     -41.564-122.271 -52.733  0.00  0.00     0.101 A 
ATOM      3  C   UNL d   1     -41.481-123.128 -53.756  0.00  0.00     0.305 A 
ATOM      4  C   UNL d   1     -41.376-123.048 -52.946  0.00  0.00     0.256 A 
ATOM      5  C   UNL d   1     -41.788-121.870 -53.420  0.00  0.00     0.075 A 
ATOM      6  O   UNL d   1     -41.355-123.815 -54.197  0.00  0.00    -0.263 OA
ATOM      7  O   UNL d   1     -41.123-123.645 -52.428  0.00  0.00    -0.281 OA
ENDROOT
BRANCH   2   8
ATOM      8  C   UNL d   1     -41.534-121.953 -51.970  0.00  0.00     0.223 C 
ATOM      9  O   UNL d   1     -41.164-121.228 -51.847  0.00  0.00    -0.284 OA
BRANCH   8  10
ATOM     10  C   UNL d   1     -41.872-122.359 -51.340  0.00  0.00     0.139 A 
ATOM     11  O   UNL d   1     -42.676-122.396 -51.166  0.00  0.00    -0.304 OA
ATOM     12  C   UNL d   1     -42.768-122.863 -50.485  0.00  0.00     0.100 A 
ATOM     13  C   UNL d   1     -43.433-123.091 -50.060  0.00  0.00     0.025 A 
ATOM     14  C   UNL d   1     -42.017-123.107 -50.251  0.00  0.00     0.025 A 
ATOM     15  C   UNL d   1     -43.353-123.566 -49.396  0.00  0.00     0.002 A 
ATOM     16  C   UNL d   1     -42.599-123.817 -49.152  0.00  0.00     0.000 A 
ATOM     17  C   UNL d   1     -41.937-123.588 -49.579  0.00  0.00     0.002 A 
ATOM     18  C   UNL d   1     -41.466-122.800 -50.774  0.00  0.00     0.030 A 
ENDBRANCH   8  10
ENDBRANCH   2   8
BRANCH   5  19
ATOM     19  C   UNL d   1     -42.022-121.079 -53.469  0.00  0.00     0.018 A 
ATOM     20  C   UNL d   1     -41.460-120.485 -53.477  0.00  0.00     0.026 A 
ATOM     21  C   UNL d   1     -41.691-119.697 -53.526  0.00  0.00     0.094 A 
ATOM     22  C   UNL d   1     -42.498-119.507 -53.568  0.00  0.00     0.024 A 
ATOM     23  C   UNL d   1     -43.062-120.116 -53.560  0.00  0.00     0.002 A 
ATOM     24  C   UNL d   1     -42.826-120.898 -53.511  0.00  0.00     0.002 A 
BRANCH  21  25
ATOM     25  O   UNL d   1     -41.123-119.096 -53.534  0.00  0.00    -0.328 OA
ATOM     26  C   UNL d   1     -41.333-118.323 -53.344  0.00  0.00     0.181 C 
ENDBRANCH  21  25
ENDBRANCH   5  19
BRANCH   1  27
ATOM     27  C   UNL d   1     -41.911-122.233 -54.850  0.00  0.00     0.179 A 
ATOM     28  N   UNL d   1     -41.409-121.852 -55.384  0.00  0.00    -0.108 NA
ATOM     29  O   UNL d   1     -41.805-121.803 -56.104  0.00  0.00    -0.210 OA
ATOM     30  C   UNL d   1     -42.542-122.148 -56.020  0.00  0.00     0.128 A 
ATOM     31  C   UNL d   1     -42.616-122.418 -55.243  0.00  0.00     0.067 A 
ATOM     32  C   UNL d   1     -43.122-122.218 -56.611  0.00  0.00     0.029 C 
ENDBRANCH   1  27
TORSDOF 5
ENDMDL
