MODEL 1
REMARK VINA RESULT:      -7.6      0.000      0.000
REMARK  5 active torsions:
REMARK  status: ('A' for Active; 'I' for Inactive)
REMARK    1  A    between atoms: N_2  and  S_1 
REMARK    2  A    between atoms: C_10  and  S_1 
REMARK    3  A    between atoms: S_6  and  C_3 
REMARK    4  A    between atoms: C_4  and  C_7 
REMARK    5  A    between atoms: C_7  and  S_6 
ROOT
ATOM      1  N   UNL d   1     -49.749  12.756  22.536  0.00  0.00    -0.208 N 
ATOM      2  C   UNL d   1     -49.153  12.459  23.035  0.00  0.00     0.189 A 
ATOM      3  N   UNL d   1     -49.516  12.112  23.698  0.00  0.00    -0.219 NA
ATOM      4  C   UNL d   1     -50.481  12.591  22.893  0.00  0.00     0.114 A 
ATOM      5  C   UNL d   1     -50.335  12.196  23.606  0.00  0.00     0.121 A 
ENDROOT
BRANCH   2   6
ATOM      6  S   UNL d   1     -48.337  12.505  22.890  0.00  0.00    -0.049 SA
BRANCH   6   7
ATOM      7  C   UNL d   1     -47.807  12.248  23.470  0.00  0.00     0.041 C 
BRANCH   7   8
ATOM      8  C   UNL d   1     -47.000  12.154  23.364  0.00  0.00     0.045 A 
ATOM      9  C   UNL d   1     -46.529  12.795  23.152  0.00  0.00     0.141 A 
ATOM     10  F   UNL d   1     -46.868  13.548  23.045  0.00  0.00    -0.204 F 
ATOM     11  C   UNL d   1     -45.711  12.699  23.045  0.00  0.00     0.030 A 
ATOM     12  C   UNL d   1     -45.372  11.946  23.153  0.00  0.00     0.003 A 
ATOM     13  C   UNL d   1     -45.843  11.305  23.364  0.00  0.00     0.012 A 
ATOM     14  C   UNL d   1     -46.661  11.406  23.470  0.00  0.00     0.060 A 
ATOM     15 CL   UNL d   1     -47.122  10.757  23.682  0.00  0.00    -0.082 Cl
ENDBRANCH   7   8
ENDBRANCH   6   7
ENDBRANCH   2   6
BRANCH   1  16
ATOM     16  S   UNL d   1     -49.638  13.146  21.814  0.00  0.00     0.273 S 
ATOM     17  O   UNL d   1     -49.324  12.436  21.529  0.00  0.00    -0.200 OA
ATOM     18  O   UNL d   1     -49.432  13.301  21.027  0.00  0.00    -0.200 OA
BRANCH  16  19
ATOM     19  C   UNL d   1     -49.946  13.861  22.079  0.00  0.00     0.104 A 
ATOM     20  C   UNL d   1     -50.759  13.956  22.127  0.00  0.00     0.013 A 
ATOM     21  C   UNL d   1     -51.064  14.673  22.393  0.00  0.00     0.001 A 
ATOM     22  C   UNL d   1     -50.565  15.288  22.609  0.00  0.00     0.000 A 
ATOM     23  C   UNL d   1     -49.744  15.183  22.557  0.00  0.00     0.001 A 
ATOM     24  C   UNL d   1     -49.438  14.466  22.292  0.00  0.00     0.013 A 
ENDBRANCH  16  19
ENDBRANCH   1  16
TORSDOF 5
ENDMDL
MODEL 2
REMARK VINA RESULT:      -7.2      1.836      4.082
REMARK  5 active torsions:
REMARK  status: ('A' for Active; 'I' for Inactive)
REMARK    1  A    between atoms: N_2  and  S_1 
REMARK    2  A    between atoms: C_10  and  S_1 
REMARK    3  A    between atoms: S_6  and  C_3 
REMARK    4  A    between atoms: C_4  and  C_7 
REMARK    5  A    between atoms: C_7  and  S_6 
ROOT
ATOM      1  N   UNL d   1     -46.959  12.437  23.318  0.00  0.00    -0.208 N 
ATOM      2  C   UNL d   1     -47.678  12.101  23.068  0.00  0.00     0.189 A 
ATOM      3  N   UNL d   1     -47.678  11.296  23.276  0.00  0.00    -0.219 NA
ATOM      4  C   UNL d   1     -46.515  11.834  23.681  0.00  0.00     0.114 A 
ATOM      5  C   UNL d   1     -46.959  11.136  23.654  0.00  0.00     0.121 A 
ENDROOT
BRANCH   2   6
ATOM      6  S   UNL d   1     -48.288  12.507  22.678  0.00  0.00    -0.049 SA
BRANCH   6   7
ATOM      7  C   UNL d   1     -49.007  12.124  22.541  0.00  0.00     0.041 C 
BRANCH   7   8
ATOM      8  C   UNL d   1     -49.685  12.482  22.248  0.00  0.00     0.045 A 
ATOM      9  C   UNL d   1     -49.685  12.827  21.501  0.00  0.00     0.141 A 
ATOM     10  F   UNL d   1     -48.996  12.816  21.033  0.00  0.00    -0.204 F 
ATOM     11  C   UNL d   1     -50.371  13.189  21.205  0.00  0.00     0.030 A 
ATOM     12  C   UNL d   1     -51.060  13.199  21.673  0.00  0.00     0.003 A 
ATOM     13  C   UNL d   1     -51.060  12.855  22.420  0.00  0.00     0.012 A 
ATOM     14  C   UNL d   1     -50.371  12.494  22.712  0.00  0.00     0.060 A 
ATOM     15 CL   UNL d   1     -50.382  12.152  23.461  0.00  0.00    -0.082 Cl
ENDBRANCH   7   8
ENDBRANCH   6   7
ENDBRANCH   2   6
BRANCH   1  16
ATOM     16  S   UNL d   1     -46.724  13.224  23.224  0.00  0.00     0.273 S 
ATOM     17  O   UNL d   1     -47.370  13.428  23.697  0.00  0.00    -0.200 OA
ATOM     18  O   UNL d   1     -46.699  14.050  23.281  0.00  0.00    -0.200 OA
BRANCH  16  19
ATOM     19  C   UNL d   1     -46.076  13.042  22.751  0.00  0.00     0.104 A 
ATOM     20  C   UNL d   1     -45.413  12.698  23.091  0.00  0.00     0.013 A 
ATOM     21  C   UNL d   1     -44.766  12.517  22.615  0.00  0.00     0.001 A 
ATOM     22  C   UNL d   1     -44.780  12.676  21.810  0.00  0.00     0.000 A 
ATOM     23  C   UNL d   1     -45.454  13.024  21.474  0.00  0.00     0.001 A 
ATOM     24  C   UNL d   1     -46.101  13.205  21.950  0.00  0.00     0.013 A 
ENDBRANCH  16  19
ENDBRANCH   1  16
TORSDOF 5
ENDMDL
MODEL 3
REMARK VINA RESULT:      -6.8      9.218     10.375
REMARK  5 active torsions:
REMARK  status: ('A' for Active; 'I' for Inactive)
REMARK    1  A    between atoms: N_2  and  S_1 
REMARK    2  A    between atoms: C_10  and  S_1 
REMARK    3  A    between atoms: S_6  and  C_3 
REMARK    4  A    between atoms: C_4  and  C_7 
REMARK    5  A    between atoms: C_7  and  S_6 
ROOT
ATOM      1  N   UNL d   1     -40.210  14.761  17.886  0.00  0.00    -0.208 N 
ATOM      2  C   UNL d   1     -40.284  15.104  18.641  0.00  0.00     0.189 A 
ATOM      3  N   UNL d   1     -40.716  15.811  18.566  0.00  0.00    -0.219 NA
ATOM      4  C   UNL d   1     -40.599  15.260  17.346  0.00  0.00     0.114 A 
ATOM      5  C   UNL d   1     -40.908  15.902  17.766  0.00  0.00     0.121 A 
ENDROOT
BRANCH   2   6
ATOM      6  S   UNL d   1     -39.975  14.789  19.344  0.00  0.00    -0.049 SA
BRANCH   6   7
ATOM      7  C   UNL d   1     -40.053  15.216  20.048  0.00  0.00     0.041 C 
BRANCH   7   8
ATOM      8  C   UNL d   1     -39.750  14.987  20.775  0.00  0.00     0.045 A 
ATOM      9  C   UNL d   1     -40.130  14.410  21.222  0.00  0.00     0.141 A 
ATOM     10  F   UNL d   1     -40.827  14.051  20.941  0.00  0.00    -0.204 F 
ATOM     11  C   UNL d   1     -39.823  14.179  21.958  0.00  0.00     0.030 A 
ATOM     12  C   UNL d   1     -39.126  14.537  22.239  0.00  0.00     0.003 A 
ATOM     13  C   UNL d   1     -38.746  15.115  21.792  0.00  0.00     0.012 A 
ATOM     14  C   UNL d   1     -39.057  15.342  21.056  0.00  0.00     0.060 A 
ATOM     15 CL   UNL d   1     -38.669  15.921  20.617  0.00  0.00    -0.082 Cl
ENDBRANCH   7   8
ENDBRANCH   6   7
ENDBRANCH   2   6
BRANCH   1  16
ATOM     16  S   UNL d   1     -39.822  14.054  17.702  0.00  0.00     0.273 S 
ATOM     17  O   UNL d   1     -40.384  13.674  18.175  0.00  0.00    -0.200 OA
ATOM     18  O   UNL d   1     -39.622  13.251  17.672  0.00  0.00    -0.200 OA
BRANCH  16  19
ATOM     19  C   UNL d   1     -39.254  14.414  17.229  0.00  0.00     0.104 A 
ATOM     20  C   UNL d   1     -39.441  14.614  16.456  0.00  0.00     0.013 A 
ATOM     21  C   UNL d   1     -38.870  14.975  15.985  0.00  0.00     0.001 A 
ATOM     22  C   UNL d   1     -38.121  15.134  16.280  0.00  0.00     0.000 A 
ATOM     23  C   UNL d   1     -37.940  14.928  17.063  0.00  0.00     0.001 A 
ATOM     24  C   UNL d   1     -38.511  14.568  17.535  0.00  0.00     0.013 A 
ENDBRANCH  16  19
ENDBRANCH   1  16
TORSDOF 5
ENDMDL
MODEL 4
REMARK VINA RESULT:      -6.7      8.883     10.462
REMARK  5 active torsions:
REMARK  status: ('A' for Active; 'I' for Inactive)
REMARK    1  A    between atoms: N_2  and  S_1 
REMARK    2  A    between atoms: C_10  and  S_1 
REMARK    3  A    between atoms: S_6  and  C_3 
REMARK    4  A    between atoms: C_4  and  C_7 
REMARK    5  A    between atoms: C_7  and  S_6 
ROOT
ATOM      1  N   UNL d   1     -39.847  14.844  20.555  0.00  0.00    -0.208 N 
ATOM      2  C   UNL d   1     -40.092  14.600  19.798  0.00  0.00     0.189 A 
ATOM      3  N   UNL d   1     -40.881  14.341  19.849  0.00  0.00    -0.219 NA
ATOM      4  C   UNL d   1     -40.488  14.734  21.073  0.00  0.00     0.114 A 
ATOM      5  C   UNL d   1     -41.120  14.425  20.637  0.00  0.00     0.121 A 
ENDROOT
BRANCH   2   6
ATOM      6  S   UNL d   1     -39.624  14.616  19.113  0.00  0.00    -0.049 SA
BRANCH   6   7
ATOM      7  C   UNL d   1     -39.944  14.356  18.397  0.00  0.00     0.041 C 
BRANCH   7   8
ATOM      8  C   UNL d   1     -39.526  14.268  17.697  0.00  0.00     0.045 A 
ATOM      9  C   UNL d   1     -39.071  13.596  17.563  0.00  0.00     0.141 A 
ATOM     10  F   UNL d   1     -39.029  12.996  18.139  0.00  0.00    -0.204 F 
ATOM     11  C   UNL d   1     -38.648  13.509  16.854  0.00  0.00     0.030 A 
ATOM     12  C   UNL d   1     -38.690  14.109  16.278  0.00  0.00     0.003 A 
ATOM     13  C   UNL d   1     -39.145  14.781  16.412  0.00  0.00     0.012 A 
ATOM     14  C   UNL d   1     -39.566  14.864  17.123  0.00  0.00     0.060 A 
ATOM     15 CL   UNL d   1     -40.019  15.542  17.246  0.00  0.00    -0.082 Cl
ENDBRANCH   7   8
ENDBRANCH   6   7
ENDBRANCH   2   6
BRANCH   1  16
ATOM     16  S   UNL d   1     -39.103  15.142  20.760  0.00  0.00     0.273 S 
ATOM     17  O   UNL d   1     -39.255  15.761  20.234  0.00  0.00    -0.200 OA
ATOM     18  O   UNL d   1     -38.430  15.624  20.793  0.00  0.00    -0.200 OA
BRANCH  16  19
ATOM     19  C   UNL d   1     -38.933  14.534  21.287  0.00  0.00     0.104 A 
ATOM     20  C   UNL d   1     -39.236  14.564  22.048  0.00  0.00     0.013 A 
ATOM     21  C   UNL d   1     -39.064  13.954  22.574  0.00  0.00     0.001 A 
ATOM     22  C   UNL d   1     -38.596  13.320  22.342  0.00  0.00     0.000 A 
ATOM     23  C   UNL d   1     -38.294  13.297  21.570  0.00  0.00     0.001 A 
ATOM     24  C   UNL d   1     -38.465  13.908  21.045  0.00  0.00     0.013 A 
ENDBRANCH  16  19
ENDBRANCH   1  16
TORSDOF 5
ENDMDL
MODEL 5
REMARK VINA RESULT:      -6.2      2.048      4.326
REMARK  5 active torsions:
REMARK  status: ('A' for Active; 'I' for Inactive)
REMARK    1  A    between atoms: N_2  and  S_1 
REMARK    2  A    between atoms: C_10  and  S_1 
REMARK    3  A    between atoms: S_6  and  C_3 
REMARK    4  A    between atoms: C_4  and  C_7 
REMARK    5  A    between atoms: C_7  and  S_6 
ROOT
ATOM      1  N   UNL d   1     -47.241  13.180  22.285  0.00  0.00    -0.208 N 
ATOM      2  C   UNL d   1     -47.975  13.526  22.099  0.00  0.00     0.189 A 
ATOM      3  N   UNL d   1     -48.224  13.232  21.362  0.00  0.00    -0.219 NA
ATOM      4  C   UNL d   1     -47.039  12.671  21.659  0.00  0.00     0.114 A 
ATOM      5  C   UNL d   1     -47.643  12.705  21.095  0.00  0.00     0.121 A 
ENDROOT
BRANCH   2   6
ATOM      6  S   UNL d   1     -48.383  14.071  22.574  0.00  0.00    -0.049 SA
BRANCH   6   7
ATOM      7  C   UNL d   1     -49.024  14.485  22.256  0.00  0.00     0.041 C 
BRANCH   7   8
ATOM      8  C   UNL d   1     -49.663  14.768  22.684  0.00  0.00     0.045 A 
ATOM      9  C   UNL d   1     -50.400  14.406  22.624  0.00  0.00     0.141 A 
ATOM     10  F   UNL d   1     -50.504  13.747  22.126  0.00  0.00    -0.204 F 
ATOM     11  C   UNL d   1     -51.046  14.693  23.059  0.00  0.00     0.030 A 
ATOM     12  C   UNL d   1     -50.942  15.352  23.557  0.00  0.00     0.003 A 
ATOM     13  C   UNL d   1     -50.205  15.715  23.617  0.00  0.00     0.012 A 
ATOM     14  C   UNL d   1     -49.561  15.423  23.180  0.00  0.00     0.060 A 
ATOM     15 CL   UNL d   1     -48.829  15.794  23.248  0.00  0.00    -0.082 Cl
ENDBRANCH   7   8
ENDBRANCH   6   7
ENDBRANCH   2   6
BRANCH   1  16
ATOM     16  S   UNL d   1     -46.792  13.314  22.967  0.00  0.00     0.273 S 
ATOM     17  O   UNL d   1     -46.807  14.116  22.766  0.00  0.00    -0.200 OA
ATOM     18  O   UNL d   1     -46.363  13.694  23.564  0.00  0.00    -0.200 OA
BRANCH  16  19
ATOM     19  C   UNL d   1     -46.767  12.521  23.184  0.00  0.00     0.104 A 
ATOM     20  C   UNL d   1     -46.066  12.103  23.101  0.00  0.00     0.013 A 
ATOM     21  C   UNL d   1     -46.044  11.309  23.319  0.00  0.00     0.001 A 
ATOM     22  C   UNL d   1     -46.713  10.936  23.616  0.00  0.00     0.000 A 
ATOM     23  C   UNL d   1     -47.417  11.367  23.697  0.00  0.00     0.001 A 
ATOM     24  C   UNL d   1     -47.439  12.160  23.479  0.00  0.00     0.013 A 
ENDBRANCH  16  19
ENDBRANCH   1  16
TORSDOF 5
ENDMDL
MODEL 6
REMARK VINA RESULT:      -6.0      9.275     10.064
REMARK  5 active torsions:
REMARK  status: ('A' for Active; 'I' for Inactive)
REMARK    1  A    between atoms: N_2  and  S_1 
REMARK    2  A    between atoms: C_10  and  S_1 
REMARK    3  A    between atoms: S_6  and  C_3 
REMARK    4  A    between atoms: C_4  and  C_7 
REMARK    5  A    between atoms: C_7  and  S_6 
ROOT
ATOM      1  N   UNL d   1     -39.748  15.582  19.636  0.00  0.00    -0.208 N 
ATOM      2  C   UNL d   1     -39.889  15.379  20.430  0.00  0.00     0.189 A 
ATOM      3  N   UNL d   1     -40.672  15.589  20.620  0.00  0.00    -0.219 NA
ATOM      4  C   UNL d   1     -40.447  15.919  19.336  0.00  0.00     0.114 A 
ATOM      5  C   UNL d   1     -41.011  15.922  19.942  0.00  0.00     0.121 A 
ENDROOT
BRANCH   2   6
ATOM      6  S   UNL d   1     -39.338  15.026  20.941  0.00  0.00    -0.049 SA
BRANCH   6   7
ATOM      7  C   UNL d   1     -39.562  14.845  21.716  0.00  0.00     0.041 C 
BRANCH   7   8
ATOM      8  C   UNL d   1     -39.083  14.478  22.272  0.00  0.00     0.045 A 
ATOM      9  C   UNL d   1     -38.941  13.668  22.232  0.00  0.00     0.141 A 
ATOM     10  F   UNL d   1     -39.283  13.212  21.625  0.00  0.00    -0.204 F 
ATOM     11  C   UNL d   1     -38.457  13.299  22.796  0.00  0.00     0.030 A 
ATOM     12  C   UNL d   1     -38.115  13.755  23.402  0.00  0.00     0.003 A 
ATOM     13  C   UNL d   1     -38.257  14.565  23.442  0.00  0.00     0.012 A 
ATOM     14  C   UNL d   1     -38.743  14.931  22.876  0.00  0.00     0.060 A 
ATOM     15 CL   UNL d   1     -38.878  15.742  22.926  0.00  0.00    -0.082 Cl
ENDBRANCH   7   8
ENDBRANCH   6   7
ENDBRANCH   2   6
BRANCH   1  16
ATOM     16  S   UNL d   1     -39.044  15.471  19.216  0.00  0.00     0.273 S 
ATOM     17  O   UNL d   1     -38.675  15.922  19.803  0.00  0.00    -0.200 OA
ATOM     18  O   UNL d   1     -38.247  15.505  18.995  0.00  0.00    -0.200 OA
BRANCH  16  19
ATOM     19  C   UNL d   1     -39.393  15.021  18.623  0.00  0.00     0.104 A 
ATOM     20  C   UNL d   1     -39.805  15.396  18.022  0.00  0.00     0.013 A 
ATOM     21  C   UNL d   1     -40.153  14.942  17.430  0.00  0.00     0.001 A 
ATOM     22  C   UNL d   1     -40.090  14.124  17.437  0.00  0.00     0.000 A 
ATOM     23  C   UNL d   1     -39.671  13.752  18.048  0.00  0.00     0.001 A 
ATOM     24  C   UNL d   1     -39.323  14.206  18.641  0.00  0.00     0.013 A 
ENDBRANCH  16  19
ENDBRANCH   1  16
TORSDOF 5
ENDMDL
