MODEL 1
REMARK VINA RESULT:      58.4      0.000      0.000
REMARK  6 active torsions:
REMARK  status: ('A' for Active; 'I' for Inactive)
REMARK    1  A    between atoms: C_7  and  S_1 
REMARK    2  A    between atoms: N_11  and  S_1 
REMARK    3  A    between atoms: C_5  and  C_21 
REMARK    4  A    between atoms: C_22  and  N_11 
REMARK    5  A    between atoms: C_20  and  C_13 
REMARK    6  A    between atoms: C_21  and  C_22 
ROOT
ATOM      1  S   UNL d   1     -50.501  27.970  33.591  0.00  0.00     0.285 S 
ATOM      2  O   UNL d   1     -50.232  28.751  33.626  0.00  0.00    -0.198 OA
ATOM      3  O   UNL d   1     -51.228  28.236  33.306  0.00  0.00    -0.198 OA
ENDROOT
BRANCH   1   4
ATOM      4  C   UNL d   1     -50.771  27.197  33.555  0.00  0.00     0.105 A 
ATOM      5  C   UNL d   1     -50.225  26.580  33.456  0.00  0.00     0.013 A 
ATOM      6  C   UNL d   1     -50.504  25.798  33.420  0.00  0.00     0.001 A 
ATOM      7  C   UNL d   1     -51.303  25.637  33.482  0.00  0.00     0.000 A 
ATOM      8  C   UNL d   1     -51.845  26.256  33.581  0.00  0.00     0.001 A 
ATOM      9  C   UNL d   1     -51.578  27.036  33.618  0.00  0.00     0.013 A 
BRANCH   7  10
ATOM     10  C   UNL d   1     -51.578  24.866  33.447  0.00  0.00     0.000 A 
ATOM     11  C   UNL d   1     -51.056  24.234  33.514  0.00  0.00     0.000 A 
ATOM     12  C   UNL d   1     -51.344  23.462  33.477  0.00  0.00     0.000 A 
ATOM     13  C   UNL d   1     -52.149  23.323  33.374  0.00  0.00     0.000 A 
ATOM     14  C   UNL d   1     -52.675  23.958  33.307  0.00  0.00     0.000 A 
ATOM     15  C   UNL d   1     -52.382  24.728  33.344  0.00  0.00     0.000 A 
ENDBRANCH   7  10
ENDBRANCH   1   4
BRANCH   1  16
ATOM     16  N   UNL d   1     -49.773  27.708  33.876  0.00  0.00    -0.157 NA
BRANCH  16  17
ATOM     17  C   UNL d   1     -49.175  28.240  34.024  0.00  0.00     0.114 C 
BRANCH  17  18
ATOM     18  C   UNL d   1     -48.506  28.009  34.459  0.00  0.00     0.042 C 
BRANCH  18  19
ATOM     19  C   UNL d   1     -48.152  28.554  34.985  0.00  0.00     0.102 A 
ATOM     20  N   UNL d   1     -47.470  28.990  34.844  0.00  0.00    -0.227 NA
ATOM     21  C   UNL d   1     -47.311  29.459  35.503  0.00  0.00     0.148 A 
ATOM     22  C   UNL d   1     -46.715  29.995  35.672  0.00  0.00     0.037 A 
ATOM     23  N   UNL d   1     -47.903  29.315  36.067  0.00  0.00    -0.288 N 
ATOM     24  C   UNL d   1     -46.701  30.393  36.401  0.00  0.00     0.005 A 
ATOM     25  C   UNL d   1     -47.284  30.251  36.956  0.00  0.00     0.019 A 
ATOM     26  C   UNL d   1     -47.888  29.713  36.795  0.00  0.00     0.082 A 
ATOM     27  C   UNL d   1     -48.428  28.755  35.755  0.00  0.00     0.101 A 
ENDBRANCH  18  19
ENDBRANCH  17  18
ENDBRANCH  16  17
ENDBRANCH   1  16
TORSDOF 6
ENDMDL
MODEL 2
REMARK VINA RESULT:      60.0      2.192      6.236
REMARK  6 active torsions:
REMARK  status: ('A' for Active; 'I' for Inactive)
REMARK    1  A    between atoms: C_7  and  S_1 
REMARK    2  A    between atoms: N_11  and  S_1 
REMARK    3  A    between atoms: C_5  and  C_21 
REMARK    4  A    between atoms: C_22  and  N_11 
REMARK    5  A    between atoms: C_20  and  C_13 
REMARK    6  A    between atoms: C_21  and  C_22 
ROOT
ATOM      1  S   UNL d   1     -48.334  28.855  35.208  0.00  0.00     0.285 S 
ATOM      2  O   UNL d   1     -48.424  28.082  35.487  0.00  0.00    -0.198 OA
ATOM      3  O   UNL d   1     -47.786  29.005  35.805  0.00  0.00    -0.198 OA
ENDROOT
BRANCH   1   4
ATOM      4  C   UNL d   1     -48.243  29.622  34.933  0.00  0.00     0.105 A 
ATOM      5  C   UNL d   1     -48.766  29.913  34.357  0.00  0.00     0.013 A 
ATOM      6  C   UNL d   1     -48.669  30.691  34.082  0.00  0.00     0.001 A 
ATOM      7  C   UNL d   1     -48.070  31.164  34.372  0.00  0.00     0.000 A 
ATOM      8  C   UNL d   1     -47.550  30.870  34.946  0.00  0.00     0.001 A 
ATOM      9  C   UNL d   1     -47.637  30.099  35.227  0.00  0.00     0.013 A 
BRANCH   7  10
ATOM     10  C   UNL d   1     -47.974  31.931  34.100  0.00  0.00     0.000 A 
ATOM     11  C   UNL d   1     -47.249  32.311  34.172  0.00  0.00     0.000 A 
ATOM     12  C   UNL d   1     -47.165  33.083  33.895  0.00  0.00     0.000 A 
ATOM     13  C   UNL d   1     -47.801  33.473  33.549  0.00  0.00     0.000 A 
ATOM     14  C   UNL d   1     -48.532  33.092  33.476  0.00  0.00     0.000 A 
ATOM     15  C   UNL d   1     -48.612  32.320  33.754  0.00  0.00     0.000 A 
ENDBRANCH   7  10
ENDBRANCH   1   4
BRANCH   1  16
ATOM     16  N   UNL d   1     -48.883  28.701  34.611  0.00  0.00    -0.157 NA
BRANCH  16  17
ATOM     17  C   UNL d   1     -49.080  27.934  34.423  0.00  0.00     0.114 C 
BRANCH  17  18
ATOM     18  C   UNL d   1     -49.375  27.750  33.669  0.00  0.00     0.042 C 
BRANCH  18  19
ATOM     19  C   UNL d   1     -49.930  27.130  33.587  0.00  0.00     0.102 A 
ATOM     20  N   UNL d   1     -50.748  27.212  33.569  0.00  0.00    -0.227 NA
ATOM     21  C   UNL d   1     -51.089  26.467  33.482  0.00  0.00     0.148 A 
ATOM     22  C   UNL d   1     -51.867  26.214  33.431  0.00  0.00     0.037 A 
ATOM     23  N   UNL d   1     -50.476  25.908  33.444  0.00  0.00    -0.288 N 
ATOM     24  C   UNL d   1     -52.044  25.408  33.342  0.00  0.00     0.005 A 
ATOM     25  C   UNL d   1     -51.440  24.858  33.306  0.00  0.00     0.019 A 
ATOM     26  C   UNL d   1     -50.653  25.102  33.356  0.00  0.00     0.082 A 
ATOM     27  C   UNL d   1     -49.754  26.310  33.509  0.00  0.00     0.101 A 
ENDBRANCH  18  19
ENDBRANCH  17  18
ENDBRANCH  16  17
ENDBRANCH   1  16
TORSDOF 6
ENDMDL
