MODEL 1
REMARK VINA RESULT:      42.2      0.000      0.000
REMARK  4 active torsions:
REMARK  status: ('A' for Active; 'I' for Inactive)
REMARK    1  A    between atoms: N_5  and  C_1 
REMARK    2  A    between atoms: S_2  and  N_5 
REMARK    3  A    between atoms: C_7  and  S_2 
REMARK    4  A    between atoms: N_10  and  C_3 
ROOT
ATOM      1  C   UNL d   1      13.792  13.205  -2.819  0.00  0.00     0.146 A 
ATOM      2  C   UNL d   1      13.693  13.921  -3.217  0.00  0.00     0.105 A 
ATOM      3  C   UNL d   1      13.412  13.916  -3.990  0.00  0.00     0.208 A 
ATOM      4  C   UNL d   1      13.612  12.487  -3.188  0.00  0.00     0.215 A 
ATOM      5  C   UNL d   1      13.231  13.211  -4.363  0.00  0.00     0.043 A 
ATOM      6  C   UNL d   1      13.330  12.495  -3.964  0.00  0.00     0.044 A 
ATOM      7  O   UNL d   1      13.313  14.632  -4.388  0.00  0.00    -0.285 OA
ATOM      8  O   UNL d   1      13.716  11.780  -2.777  0.00  0.00    -0.285 OA
ATOM      9  C   UNL d   1      12.950  13.205  -5.136  0.00  0.00     0.003 A 
ATOM     10  C   UNL d   1      13.150  11.790  -4.337  0.00  0.00     0.003 A 
ATOM     11  C   UNL d   1      12.769  12.491  -5.507  0.00  0.00     0.000 A 
ATOM     12  C   UNL d   1      12.869  11.784  -5.110  0.00  0.00     0.000 A 
ENDROOT
BRANCH   1  13
ATOM     13  N   UNL d   1      14.075  13.200  -2.039  0.00  0.00    -0.154 NA
BRANCH  13  14
ATOM     14  S   UNL d   1      13.935  12.553  -1.546  0.00  0.00     0.291 S 
ATOM     15  O   UNL d   1      13.406  12.246  -2.100  0.00  0.00    -0.198 OA
ATOM     16  O   UNL d   1      13.792  11.905  -1.056  0.00  0.00    -0.198 OA
BRANCH  14  17
ATOM     17  C   UNL d   1      14.465  12.863  -0.995  0.00  0.00     0.135 A 
ATOM     18  S   UNL d   1      14.394  13.336  -0.327  0.00  0.00    -0.073 SA
ATOM     19  C   UNL d   1      15.152  13.450  -0.015  0.00  0.00     0.036 A 
ATOM     20  C   UNL d   1      15.688  13.047  -0.490  0.00  0.00     0.008 A 
ATOM     21  C   UNL d   1      15.265  12.681  -1.101  0.00  0.00     0.020 A 
ENDBRANCH  14  17
ENDBRANCH  13  14
ENDBRANCH   1  13
BRANCH   2  22
ATOM     22  N   UNL d   1      13.876  14.630  -2.838  0.00  0.00    -0.201 NA
ATOM     23  C   UNL d   1      14.228  15.147  -3.039  0.00  0.00     0.082 A 
ATOM     24  C   UNL d   1      14.467  16.036  -2.583  0.00  0.00     0.136 A 
ATOM     25  O   UNL d   1      14.939  16.346  -3.273  0.00  0.00    -0.301 OA
ATOM     26  C   UNL d   1      14.571  15.841  -3.025  0.00  0.00     0.136 A 
ATOM     27  C   UNL d   1      14.300  14.879  -3.488  0.00  0.00     0.082 A 
ENDBRANCH   2  22
TORSDOF 4
ENDMDL
