MODEL 1
REMARK VINA RESULT:       1.4      0.000      0.000
REMARK  3 active torsions:
REMARK  status: ('A' for Active; 'I' for Inactive)
REMARK    1  A    between atoms: N_5  and  S_1 
REMARK    2  A    between atoms: C_6  and  S_1 
REMARK    3  A    between atoms: C_2  and  C_9 
ROOT
ATOM      1  C   UNL d   1     -41.846-122.683 -53.414  0.00  0.00     0.104 A 
ATOM      2  C   UNL d   1     -41.902-123.003 -52.024  0.00  0.00     0.025 A 
ATOM      3  C   UNL d   1     -42.123-122.522 -52.651  0.00  0.00     0.015 A 
ATOM      4  C   UNL d   1     -41.346-123.333 -53.543  0.00  0.00     0.013 A 
ATOM      5  C   UNL d   1     -41.402-123.653 -52.154  0.00  0.00     0.002 A 
ATOM      6  C   UNL d   1     -41.123-123.817 -52.918  0.00  0.00     0.001 A 
ENDROOT
BRANCH   2   7
ATOM      7  C   UNL d   1     -42.179-122.841 -51.261  0.00  0.00     0.111 A 
ATOM      8  N   UNL d   1     -42.863-122.435 -51.081  0.00  0.00    -0.239 NA
ATOM      9  C   UNL d   1     -42.926-122.401 -50.261  0.00  0.00     0.088 A 
ATOM     10  C   UNL d   1     -43.486-122.070 -49.765  0.00  0.00     0.020 A 
ATOM     11  C   UNL d   1     -42.274-122.790 -49.938  0.00  0.00     0.049 A 
ATOM     12  C   UNL d   1     -43.403-122.122 -48.952  0.00  0.00     0.002 A 
ATOM     13  C   UNL d   1     -42.751-122.512 -48.629  0.00  0.00     0.001 A 
ATOM     14  C   UNL d   1     -42.186-122.846 -49.131  0.00  0.00     0.008 A 
ATOM     15  S   UNL d   1     -41.810-123.064 -50.561  0.00  0.00    -0.066 SA
ENDBRANCH   2   7
BRANCH   1  16
ATOM     16  S   UNL d   1     -42.066-122.201 -54.044  0.00  0.00     0.271 S 
ATOM     17  O   UNL d   1     -42.453-122.777 -54.436  0.00  0.00    -0.200 OA
ATOM     18  O   UNL d   1     -41.595-121.532 -53.551  0.00  0.00    -0.200 OA
BRANCH  16  19
ATOM     19  N   UNL d   1     -42.344-121.830 -54.721  0.00  0.00    -0.229 N 
ATOM     20  C   UNL d   1     -43.133-121.632 -54.888  0.00  0.00     0.092 A 
ATOM     21  C   UNL d   1     -43.155-121.267 -55.630  0.00  0.00     0.021 A 
ATOM     22  C   UNL d   1     -42.391-121.236 -55.927  0.00  0.00     0.021 A 
ATOM     23  C   UNL d   1     -41.891-121.582 -55.368  0.00  0.00     0.092 A 
ENDBRANCH  16  19
ENDBRANCH   1  16
TORSDOF 3
ENDMDL
MODEL 2
REMARK VINA RESULT:       1.8      1.725      4.753
REMARK  3 active torsions:
REMARK  status: ('A' for Active; 'I' for Inactive)
REMARK    1  A    between atoms: N_5  and  S_1 
REMARK    2  A    between atoms: C_6  and  S_1 
REMARK    3  A    between atoms: C_2  and  C_9 
ROOT
ATOM      1  C   UNL d   1     -41.513-121.732 -50.753  0.00  0.00     0.104 A 
ATOM      2  C   UNL d   1     -41.551-121.626 -52.176  0.00  0.00     0.025 A 
ATOM      3  C   UNL d   1     -41.660-122.069 -51.495  0.00  0.00     0.015 A 
ATOM      4  C   UNL d   1     -41.254-120.945 -50.701  0.00  0.00     0.013 A 
ATOM      5  C   UNL d   1     -41.292-120.839 -52.124  0.00  0.00     0.002 A 
ATOM      6  C   UNL d   1     -41.144-120.498 -51.382  0.00  0.00     0.001 A 
ENDROOT
BRANCH   2   7
ATOM      7  C   UNL d   1     -41.698-121.963 -52.917  0.00  0.00     0.111 A 
ATOM      8  N   UNL d   1     -42.432-122.178 -53.203  0.00  0.00    -0.239 NA
ATOM      9  C   UNL d   1     -42.325-122.488 -53.958  0.00  0.00     0.088 A 
ATOM     10  C   UNL d   1     -42.849-122.790 -54.508  0.00  0.00     0.020 A 
ATOM     11  C   UNL d   1     -41.519-122.463 -54.134  0.00  0.00     0.049 A 
ATOM     12  C   UNL d   1     -42.581-123.067 -55.230  0.00  0.00     0.002 A 
ATOM     13  C   UNL d   1     -41.775-123.042 -55.407  0.00  0.00     0.001 A 
ATOM     14  C   UNL d   1     -41.245-122.736 -54.850  0.00  0.00     0.008 A 
ATOM     15  S   UNL d   1     -41.130-122.136 -53.486  0.00  0.00    -0.066 SA
ENDBRANCH   2   7
BRANCH   1  16
ATOM     16  S   UNL d   1     -41.622-122.176 -50.068  0.00  0.00     0.271 S 
ATOM     17  O   UNL d   1     -41.571-122.881 -50.437  0.00  0.00    -0.200 OA
ATOM     18  O   UNL d   1     -41.679-121.317 -49.655  0.00  0.00    -0.200 OA
BRANCH  16  19
ATOM     19  N   UNL d   1     -41.719-122.724 -49.466  0.00  0.00    -0.229 N 
ATOM     20  C   UNL d   1     -41.285-123.425 -49.359  0.00  0.00     0.092 A 
ATOM     21  C   UNL d   1     -41.572-123.804 -48.682  0.00  0.00     0.021 A 
ATOM     22  C   UNL d   1     -42.178-123.350 -48.367  0.00  0.00     0.021 A 
ATOM     23  C   UNL d   1     -42.270-122.685 -48.849  0.00  0.00     0.092 A 
ENDBRANCH  16  19
ENDBRANCH   1  16
TORSDOF 3
ENDMDL
