MODEL 1
REMARK VINA RESULT:      -9.4      0.000      0.000
REMARK  3 active torsions:
REMARK  status: ('A' for Active; 'I' for Inactive)
REMARK    1  A    between atoms: C_2  and  C_1 
REMARK    2  A    between atoms: C_3  and  C_2 
REMARK       I    between atoms: N_5  and  C_3 
REMARK    3  A    between atoms: C_10  and  N_8 
ROOT
ATOM      1  C   UNL d   1      51.745  33.828  52.629  0.00  0.00     0.304 C 
ATOM      2  N   UNL d   1      50.998  34.149  52.501  0.00  0.00    -0.266 N 
ATOM      3  N   UNL d   1      49.498  34.791  52.239  0.00  0.00    -0.301 N 
ATOM      4  O   UNL d   1      52.178  33.528  51.997  0.00  0.00    -0.263 OA
ATOM      5  C   UNL d   1      50.684  34.168  51.740  0.00  0.00     0.102 A 
ATOM      6  C   UNL d   1      50.571  34.447  53.136  0.00  0.00     0.102 A 
ATOM      7  C   UNL d   1      49.823  34.767  53.004  0.00  0.00     0.100 A 
ATOM      8  C   UNL d   1      49.939  34.487  51.606  0.00  0.00     0.100 A 
ENDROOT
BRANCH   1   9
ATOM      9  C   UNL d   1      52.063  33.808  53.397  0.00  0.00     0.253 C 
ATOM     10  O   UNL d   1      51.835  34.378  53.950  0.00  0.00    -0.281 OA
BRANCH   9  11
ATOM     11  C   UNL d   1      52.601  33.224  53.601  0.00  0.00     0.064 A 
ATOM     12  C   UNL d   1      52.594  32.434  53.358  0.00  0.00     0.102 A 
ATOM     13  N   UNL d   1      53.235  32.043  53.693  0.00  0.00    -0.244 NA
ATOM     14  C   UNL d   1      53.649  32.592  54.150  0.00  0.00     0.082 A 
ATOM     15  C   UNL d   1      53.259  33.320  54.094  0.00  0.00     0.022 A 
ATOM     16  C   UNL d   1      54.329  32.525  54.610  0.00  0.00     0.019 A 
ATOM     17  C   UNL d   1      53.550  33.975  54.496  0.00  0.00     0.002 A 
ATOM     18  C   UNL d   1      54.238  33.905  54.961  0.00  0.00     0.000 A 
ATOM     19  C   UNL d   1      54.621  33.180  55.013  0.00  0.00     0.002 A 
ENDBRANCH   9  11
ENDBRANCH   1   9
BRANCH   3  20
ATOM     20  C   UNL d   1      48.756  35.108  52.103  0.00  0.00     0.064 A 
ATOM     21  C   UNL d   1      48.359  34.958  51.397  0.00  0.00     0.020 A 
ATOM     22  C   UNL d   1      47.607  35.285  51.271  0.00  0.00     0.031 A 
ATOM     23  C   UNL d   1      47.255  35.760  51.851  0.00  0.00     0.140 A 
ATOM     24  C   UNL d   1      47.657  35.910  52.563  0.00  0.00     0.031 A 
ATOM     25  F   UNL d   1      46.507  36.081  51.719  0.00  0.00    -0.204 F 
ATOM     26  C   UNL d   1      48.401  35.585  52.685  0.00  0.00     0.020 A 
ENDBRANCH   3  20
TORSDOF 3
ENDMDL
MODEL 2
REMARK VINA RESULT:      -9.1      0.959      1.829
REMARK  3 active torsions:
REMARK  status: ('A' for Active; 'I' for Inactive)
REMARK    1  A    between atoms: C_2  and  C_1 
REMARK    2  A    between atoms: C_3  and  C_2 
REMARK       I    between atoms: N_5  and  C_3 
REMARK    3  A    between atoms: C_10  and  N_8 
ROOT
ATOM      1  C   UNL d   1      52.014  33.597  53.415  0.00  0.00     0.304 C 
ATOM      2  N   UNL d   1      51.313  33.914  53.124  0.00  0.00    -0.266 N 
ATOM      3  N   UNL d   1      49.903  34.553  52.542  0.00  0.00    -0.301 N 
ATOM      4  O   UNL d   1      52.256  33.771  54.182  0.00  0.00    -0.263 OA
ATOM      5  C   UNL d   1      50.853  34.405  53.600  0.00  0.00     0.102 A 
ATOM      6  C   UNL d   1      51.076  33.737  52.357  0.00  0.00     0.102 A 
ATOM      7  C   UNL d   1      50.373  34.056  52.069  0.00  0.00     0.100 A 
ATOM      8  C   UNL d   1      50.152  34.724  53.314  0.00  0.00     0.100 A 
ENDROOT
BRANCH   1   9
ATOM      9  C   UNL d   1      52.478  33.101  52.935  0.00  0.00     0.253 C 
ATOM     10  O   UNL d   1      52.362  33.099  52.117  0.00  0.00    -0.281 OA
BRANCH   9  11
ATOM     11  C   UNL d   1      53.047  32.619  53.275  0.00  0.00     0.064 A 
ATOM     12  C   UNL d   1      53.716  32.860  53.697  0.00  0.00     0.102 A 
ATOM     13  N   UNL d   1      54.135  32.196  53.939  0.00  0.00    -0.244 NA
ATOM     14  C   UNL d   1      53.727  31.532  53.668  0.00  0.00     0.082 A 
ATOM     15  C   UNL d   1      53.056  31.793  53.258  0.00  0.00     0.022 A 
ATOM     16  C   UNL d   1      53.877  30.726  53.739  0.00  0.00     0.019 A 
ATOM     17  C   UNL d   1      52.541  31.246  52.923  0.00  0.00     0.002 A 
ATOM     18  C   UNL d   1      52.695  30.431  52.997  0.00  0.00     0.000 A 
ATOM     19  C   UNL d   1      53.362  30.179  53.404  0.00  0.00     0.002 A 
ENDBRANCH   9  11
ENDBRANCH   1   9
BRANCH   3  20
ATOM     20  C   UNL d   1      49.204  34.872  52.260  0.00  0.00     0.064 A 
ATOM     21  C   UNL d   1      48.773  35.406  52.715  0.00  0.00     0.020 A 
ATOM     22  C   UNL d   1      48.067  35.722  52.418  0.00  0.00     0.031 A 
ATOM     23  C   UNL d   1      47.794  35.504  51.668  0.00  0.00     0.140 A 
ATOM     24  C   UNL d   1      48.230  34.964  51.209  0.00  0.00     0.031 A 
ATOM     25  F   UNL d   1      47.090  35.823  51.379  0.00  0.00    -0.204 F 
ATOM     26  C   UNL d   1      48.929  34.653  51.506  0.00  0.00     0.020 A 
ENDBRANCH   3  20
TORSDOF 3
ENDMDL
MODEL 3
REMARK VINA RESULT:      -9.1      2.192      5.549
REMARK  3 active torsions:
REMARK  status: ('A' for Active; 'I' for Inactive)
REMARK    1  A    between atoms: C_2  and  C_1 
REMARK    2  A    between atoms: C_3  and  C_2 
REMARK       I    between atoms: N_5  and  C_3 
REMARK    3  A    between atoms: C_10  and  N_8 
ROOT
ATOM      1  C   UNL d   1      50.365  33.878  52.879  0.00  0.00     0.304 C 
ATOM      2  N   UNL d   1      51.132  33.813  53.169  0.00  0.00    -0.266 N 
ATOM      3  N   UNL d   1      52.673  33.677  53.753  0.00  0.00    -0.301 N 
ATOM      4  O   UNL d   1      49.934  33.200  52.701  0.00  0.00    -0.263 OA
ATOM      5  C   UNL d   1      51.468  33.069  53.282  0.00  0.00     0.102 A 
ATOM      6  C   UNL d   1      51.558  34.493  53.344  0.00  0.00     0.102 A 
ATOM      7  C   UNL d   1      52.326  34.424  53.635  0.00  0.00     0.100 A 
ATOM      8  C   UNL d   1      52.233  32.998  53.572  0.00  0.00     0.100 A 
ENDROOT
BRANCH   1   9
ATOM      9  C   UNL d   1      50.026  34.629  52.764  0.00  0.00     0.253 C 
ATOM     10  O   UNL d   1      50.264  35.262  53.239  0.00  0.00    -0.281 OA
BRANCH   9  11
ATOM     11  C   UNL d   1      49.458  34.735  52.183  0.00  0.00     0.064 A 
ATOM     12  C   UNL d   1      49.466  34.428  51.416  0.00  0.00     0.102 A 
ATOM     13  N   UNL d   1      48.789  34.672  51.020  0.00  0.00    -0.244 NA
ATOM     14  C   UNL d   1      48.350  35.138  51.542  0.00  0.00     0.082 A 
ATOM     15  C   UNL d   1      48.763  35.177  52.259  0.00  0.00     0.022 A 
ATOM     16  C   UNL d   1      47.632  35.531  51.458  0.00  0.00     0.019 A 
ATOM     17  C   UNL d   1      48.453  35.608  52.888  0.00  0.00     0.002 A 
ATOM     18  C   UNL d   1      47.726  36.005  52.801  0.00  0.00     0.000 A 
ATOM     19  C   UNL d   1      47.323  35.962  52.087  0.00  0.00     0.002 A 
ENDBRANCH   9  11
ENDBRANCH   1   9
BRANCH   3  20
ATOM     20  C   UNL d   1      53.436  33.604  54.041  0.00  0.00     0.064 A 
ATOM     21  C   UNL d   1      54.001  33.171  53.626  0.00  0.00     0.020 A 
ATOM     22  C   UNL d   1      54.770  33.105  53.929  0.00  0.00     0.031 A 
ATOM     23  C   UNL d   1      54.971  33.469  54.644  0.00  0.00     0.140 A 
ATOM     24  C   UNL d   1      54.399  33.905  55.062  0.00  0.00     0.031 A 
ATOM     25  F   UNL d   1      55.738  33.398  54.939  0.00  0.00    -0.204 F 
ATOM     26  C   UNL d   1      53.639  33.970  54.759  0.00  0.00     0.020 A 
ENDBRANCH   3  20
TORSDOF 3
ENDMDL
