MODEL 1
REMARK VINA RESULT:      87.0      0.000      0.000
REMARK  4 active torsions:
REMARK  status: ('A' for Active; 'I' for Inactive)
REMARK    1  A    between atoms: C_4  and  N_1 
REMARK    2  A    between atoms: C_8  and  C_2 
REMARK    3  A    between atoms: C_17  and  C_6 
REMARK    4  A    between atoms: C_7  and  C_8 
ROOT
ATOM      1  N   UNL d   1     -51.289  26.509  33.572  0.00  0.00    -0.255 N 
ATOM      2  C   UNL d   1     -50.047  26.976  33.680  0.00  0.00     0.101 A 
ATOM      3  C   UNL d   1     -51.328  27.342  33.571  0.00  0.00     0.305 A 
ATOM      4  C   UNL d   1     -50.562  27.630  33.637  0.00  0.00     0.256 A 
ATOM      5  C   UNL d   1     -50.504  26.297  33.639  0.00  0.00     0.075 A 
ATOM      6  O   UNL d   1     -52.013  27.798  33.513  0.00  0.00    -0.263 OA
ATOM      7  O   UNL d   1     -50.344  28.426  33.658  0.00  0.00    -0.281 OA
ENDROOT
BRANCH   2   8
ATOM      8  C   UNL d   1     -49.225  27.012  33.750  0.00  0.00     0.223 C 
ATOM      9  O   UNL d   1     -48.754  26.446  33.396  0.00  0.00    -0.284 OA
BRANCH   8  10
ATOM     10  C   UNL d   1     -48.874  27.623  34.181  0.00  0.00     0.139 A 
ATOM     11  O   UNL d   1     -48.420  27.533  34.866  0.00  0.00    -0.304 OA
ATOM     12  C   UNL d   1     -48.183  28.282  35.107  0.00  0.00     0.100 A 
ATOM     13  C   UNL d   1     -47.727  28.535  35.745  0.00  0.00     0.025 A 
ATOM     14  C   UNL d   1     -48.484  28.835  34.580  0.00  0.00     0.025 A 
ATOM     15  C   UNL d   1     -47.576  29.326  35.854  0.00  0.00     0.002 A 
ATOM     16  C   UNL d   1     -47.881  29.883  35.320  0.00  0.00     0.000 A 
ATOM     17  C   UNL d   1     -48.332  29.635  34.687  0.00  0.00     0.002 A 
ATOM     18  C   UNL d   1     -48.911  28.428  34.007  0.00  0.00     0.030 A 
ENDBRANCH   8  10
ENDBRANCH   2   8
BRANCH   5  19
ATOM     19  C   UNL d   1     -50.205  25.523  33.663  0.00  0.00     0.017 A 
ATOM     20  C   UNL d   1     -50.637  24.905  33.333  0.00  0.00     0.001 A 
ATOM     21  C   UNL d   1     -50.340  24.135  33.356  0.00  0.00     0.000 A 
ATOM     22  C   UNL d   1     -49.609  23.990  33.712  0.00  0.00     0.000 A 
ATOM     23  C   UNL d   1     -49.175  24.613  34.045  0.00  0.00     0.000 A 
ATOM     24  C   UNL d   1     -49.307  23.218  33.738  0.00  0.00     0.000 C 
ATOM     25  C   UNL d   1     -49.481  25.384  34.017  0.00  0.00     0.001 A 
ENDBRANCH   5  19
BRANCH   1  26
ATOM     26  C   UNL d   1     -51.936  25.993  33.516  0.00  0.00     0.179 A 
ATOM     27  N   UNL d   1     -52.698  26.206  33.309  0.00  0.00    -0.108 NA
ATOM     28  O   UNL d   1     -53.162  25.519  33.322  0.00  0.00    -0.210 OA
ATOM     29  C   UNL d   1     -52.682  24.889  33.537  0.00  0.00     0.128 A 
ATOM     30  C   UNL d   1     -51.910  25.182  33.660  0.00  0.00     0.067 A 
ATOM     31  C   UNL d   1     -52.907  24.101  33.622  0.00  0.00     0.029 C 
ENDBRANCH   1  26
TORSDOF 4
ENDMDL
