MODEL 1
REMARK VINA RESULT:     250.8      0.000      0.000
REMARK  6 active torsions:
REMARK  status: ('A' for Active; 'I' for Inactive)
REMARK    1  A    between atoms: S_12  and  C_5 
REMARK    2  A    between atoms: C_14  and  C_6 
REMARK    3  A    between atoms: C_10  and  C_13 
REMARK    4  A    between atoms: C_21  and  S_12 
REMARK    5  A    between atoms: C_15  and  C_21 
REMARK       I    between atoms: N_16  and  C_15 
REMARK    6  A    between atoms: C_18  and  N_16 
ROOT
ATOM      1  C   UNL d   1     -56.917-100.137 -42.189  0.00  0.00     0.186 A 
ATOM      2  C   UNL d   1     -57.192 -99.705 -42.844  0.00  0.00     0.065 A 
ATOM      3  N   UNL d   1     -57.302-100.079 -41.463  0.00  0.00    -0.203 NA
ATOM      4  N   UNL d   1     -58.234 -99.159 -42.047  0.00  0.00    -0.220 NA
ATOM      5  C   UNL d   1     -57.846 -99.223 -42.763  0.00  0.00     0.116 A 
ATOM      6  C   UNL d   1     -57.967 -99.588 -41.387  0.00  0.00     0.165 A 
ATOM      7  O   UNL d   1     -56.259-100.625 -42.259  0.00  0.00    -0.289 OA
ATOM      8  C   UNL d   1     -56.803 -99.766 -43.569  0.00  0.00     0.007 A 
ATOM      9  C   UNL d   1     -55.864-100.689 -42.988  0.00  0.00     0.102 A 
ATOM     10  C   UNL d   1     -56.137-100.260 -43.640  0.00  0.00     0.023 A 
ATOM     11  C   UNL d   1     -55.213-101.173 -43.058  0.00  0.00     0.025 A 
ATOM     12  C   UNL d   1     -55.750-100.321 -44.360  0.00  0.00     0.002 A 
ATOM     13  C   UNL d   1     -54.817-101.242 -43.776  0.00  0.00     0.002 A 
ATOM     14  C   UNL d   1     -55.087-100.814 -44.430  0.00  0.00     0.000 A 
ENDROOT
BRANCH   5  15
ATOM     15  S   UNL d   1     -58.121 -98.791 -43.419  0.00  0.00    -0.062 SA
BRANCH  15  16
ATOM     16  C   UNL d   1     -58.794 -99.035 -43.819  0.00  0.00     0.099 C 
BRANCH  16  17
ATOM     17  C   UNL d   1     -58.758 -99.186 -44.626  0.00  0.00     0.286 C 
ATOM     18  N   UNL d   1     -58.150 -99.655 -44.936  0.00  0.00    -0.208 NA
ATOM     19  O   UNL d   1     -59.324 -98.874 -45.136  0.00  0.00    -0.265 OA
BRANCH  18  20
ATOM     20  C   UNL d   1     -58.115 -99.805 -45.741  0.00  0.00     0.085 A 
ATOM     21  C   UNL d   1     -58.784 -99.703 -46.198  0.00  0.00     0.025 A 
ATOM     22  C   UNL d   1     -58.755 -99.851 -47.000  0.00  0.00     0.066 A 
ATOM     23  C   UNL d   1     -58.047-100.105 -47.353  0.00  0.00     0.006 A 
ATOM     24  C   UNL d   1     -57.378-100.206 -46.888  0.00  0.00     0.002 A 
ATOM     25  C   UNL d   1     -57.406-100.056 -46.076  0.00  0.00     0.019 A 
BRANCH  22  26
ATOM     26  C   UNL d   1     -59.428 -99.751 -47.472  0.00  0.00     0.211 C 
ATOM     27  O   UNL d   1     -59.666 -98.989 -47.676  0.00  0.00    -0.644 OA
ATOM     28  O   UNL d   1     -59.856-100.402 -47.736  0.00  0.00    -0.644 OA
ENDBRANCH  22  26
ENDBRANCH  18  20
ENDBRANCH  16  17
ENDBRANCH  15  16
ENDBRANCH   5  15
BRANCH   6  29
ATOM     29  C   UNL d   1     -58.354 -99.529 -40.660  0.00  0.00     0.036 A 
ATOM     30  C   UNL d   1     -59.116 -99.219 -40.629  0.00  0.00     0.005 A 
ATOM     31  C   UNL d   1     -59.509 -99.158 -39.903  0.00  0.00     0.030 A 
ATOM     32  C   UNL d   1     -59.136 -99.408 -39.208  0.00  0.00     0.140 A 
ATOM     33  C   UNL d   1     -58.361 -99.722 -39.241  0.00  0.00     0.030 A 
ATOM     34  F   UNL d   1     -59.522 -99.349 -38.486  0.00  0.00    -0.204 F 
ATOM     35  C   UNL d   1     -57.979 -99.778 -39.971  0.00  0.00     0.005 A 
ENDBRANCH   6  29
TORSDOF 6
ENDMDL
