MODEL 1
REMARK VINA RESULT:      13.9      0.000      0.000
REMARK  4 active torsions:
REMARK  status: ('A' for Active; 'I' for Inactive)
REMARK    1  A    between atoms: C_8  and  C_1 
REMARK    2  A    between atoms: S_4  and  N_7 
REMARK    3  A    between atoms: C_14  and  S_4 
REMARK    4  A    between atoms: N_7  and  C_13 
ROOT
ATOM      1  C   UNL d   1      45.616 -16.282  44.243  0.00  0.00     0.025 A 
ATOM      2  C   UNL d   1      46.049 -15.619  44.030  0.00  0.00     0.022 A 
ATOM      3  C   UNL d   1      45.814 -14.871  44.274  0.00  0.00     0.094 A 
ATOM      4  C   UNL d   1      44.933 -16.211  44.707  0.00  0.00     0.002 A 
ATOM      5  C   UNL d   1      44.689 -15.471  44.955  0.00  0.00     0.002 A 
ATOM      6  C   UNL d   1      45.135 -14.795  44.736  0.00  0.00     0.020 A 
ENDROOT
BRANCH   1   7
ATOM      7  C   UNL d   1      45.857 -17.035  43.995  0.00  0.00     0.112 A 
ATOM      8  S   UNL d   1      46.000 -17.690  44.491  0.00  0.00    -0.047 SA
ATOM      9  C   UNL d   1      46.232 -18.339  44.022  0.00  0.00     0.130 A 
ATOM     10  N   UNL d   1      46.439 -19.112  44.193  0.00  0.00    -0.236 NA
ATOM     11  C   UNL d   1      46.231 -18.077  43.226  0.00  0.00     0.106 A 
ATOM     12  C   UNL d   1      46.646 -19.631  43.592  0.00  0.00     0.100 A 
ATOM     13  C   UNL d   1      46.647 -19.379  42.806  0.00  0.00     0.022 A 
ATOM     14  C   UNL d   1      46.440 -18.605  42.621  0.00  0.00     0.023 A 
ATOM     15  N   UNL d   1      46.001 -17.278  43.208  0.00  0.00    -0.237 NA
ENDBRANCH   1   7
BRANCH   3  16
ATOM     16  N   UNL d   1      46.244 -14.207  44.063  0.00  0.00    -0.158 NA
BRANCH  16  17
ATOM     17  S   UNL d   1      45.912 -13.456  44.147  0.00  0.00     0.286 S 
ATOM     18  O   UNL d   1      46.262 -13.382  44.894  0.00  0.00    -0.198 OA
ATOM     19  O   UNL d   1      45.562 -13.528  43.403  0.00  0.00    -0.198 OA
BRANCH  17  20
ATOM     20  C   UNL d   1      45.578 -12.710  44.223  0.00  0.00     0.117 C 
ATOM     21  C   UNL d   1      45.984 -12.113  44.627  0.00  0.00     0.014 C 
ENDBRANCH  17  20
ENDBRANCH  16  17
ENDBRANCH   3  16
TORSDOF 4
ENDMDL
MODEL 2
REMARK VINA RESULT:      15.7      1.985      4.662
REMARK  4 active torsions:
REMARK  status: ('A' for Active; 'I' for Inactive)
REMARK    1  A    between atoms: C_8  and  C_1 
REMARK    2  A    between atoms: S_4  and  N_7 
REMARK    3  A    between atoms: C_14  and  S_4 
REMARK    4  A    between atoms: N_7  and  C_13 
ROOT
ATOM      1  C   UNL d   1      45.845 -16.603  44.300  0.00  0.00     0.025 A 
ATOM      2  C   UNL d   1      46.185 -16.955  43.643  0.00  0.00     0.022 A 
ATOM      3  C   UNL d   1      46.307 -17.766  43.620  0.00  0.00     0.094 A 
ATOM      4  C   UNL d   1      45.618 -17.058  44.955  0.00  0.00     0.002 A 
ATOM      5  C   UNL d   1      45.735 -17.868  44.944  0.00  0.00     0.002 A 
ATOM      6  C   UNL d   1      46.084 -18.224  44.269  0.00  0.00     0.020 A 
ENDROOT
BRANCH   1   7
ATOM      7  C   UNL d   1      45.723 -15.783  44.319  0.00  0.00     0.112 A 
ATOM      8  S   UNL d   1      45.058 -15.396  44.639  0.00  0.00    -0.047 SA
ATOM      9  C   UNL d   1      45.153 -14.573  44.546  0.00  0.00     0.130 A 
ATOM     10  N   UNL d   1      44.693 -13.927  44.747  0.00  0.00    -0.236 NA
ATOM     11  C   UNL d   1      45.889 -14.455  44.162  0.00  0.00     0.106 A 
ATOM     12  C   UNL d   1      44.948 -13.165  44.576  0.00  0.00     0.100 A 
ATOM     13  C   UNL d   1      45.671 -13.042  44.199  0.00  0.00     0.022 A 
ATOM     14  C   UNL d   1      46.141 -13.683  43.991  0.00  0.00     0.023 A 
ATOM     15  N   UNL d   1      46.238 -15.196  44.023  0.00  0.00    -0.237 NA
ENDBRANCH   1   7
BRANCH   3  16
ATOM     16  N   UNL d   1      46.647 -18.121  42.965  0.00  0.00    -0.158 NA
BRANCH  16  17
ATOM     17  S   UNL d   1      46.347 -18.835  42.680  0.00  0.00     0.286 S 
ATOM     18  O   UNL d   1      46.075 -18.450  41.998  0.00  0.00    -0.198 OA
ATOM     19  O   UNL d   1      46.616 -19.219  43.358  0.00  0.00    -0.198 OA
BRANCH  17  20
ATOM     20  C   UNL d   1      46.050 -19.548  42.402  0.00  0.00     0.117 C 
ATOM     21  C   UNL d   1      46.546 -20.078  42.006  0.00  0.00     0.014 C 
ENDBRANCH  17  20
ENDBRANCH  16  17
ENDBRANCH   3  16
TORSDOF 4
ENDMDL
