MODEL 1
REMARK VINA RESULT:      46.8      0.000      0.000
REMARK  5 active torsions:
REMARK  status: ('A' for Active; 'I' for Inactive)
REMARK    1  A    between atoms: S_6  and  C_3 
REMARK    2  A    between atoms: C_10  and  C_4 
REMARK    3  A    between atoms: C_5  and  C_7 
REMARK    4  A    between atoms: C_9  and  C_5 
REMARK    5  A    between atoms: C_7  and  S_6 
ROOT
ATOM      1  N   UNL d   1     -55.924-101.881 -40.546  0.00  0.00    -0.148 NA
ATOM      2  N   UNL d   1     -55.908-102.131 -39.758  0.00  0.00    -0.141 NA
ATOM      3  C   UNL d   1     -55.306-102.628 -39.491  0.00  0.00     0.133 A 
ATOM      4  C   UNL d   1     -55.332-102.133 -41.068  0.00  0.00     0.103 A 
ATOM      5  C   UNL d   1     -54.731-102.628 -40.809  0.00  0.00     0.023 A 
ATOM      6  C   UNL d   1     -54.711-102.879 -40.025  0.00  0.00     0.029 A 
ENDROOT
BRANCH   3   7
ATOM      7  S   UNL d   1     -55.293-102.874 -38.710  0.00  0.00    -0.062 SA
BRANCH   7   8
ATOM      8  C   UNL d   1     -55.682-102.433 -38.132  0.00  0.00     0.079 C 
BRANCH   8   9
ATOM      9  C   UNL d   1     -55.276-101.825 -37.724  0.00  0.00     0.202 C 
ATOM     10  O   UNL d   1     -55.043-101.154 -38.123  0.00  0.00    -0.286 OA
BRANCH   9  11
ATOM     11  C   UNL d   1     -55.116-101.912 -36.924  0.00  0.00     0.040 A 
ATOM     12  C   UNL d   1     -55.184-102.652 -36.568  0.00  0.00     0.003 A 
ATOM     13  C   UNL d   1     -55.026-102.750 -35.766  0.00  0.00     0.000 A 
ATOM     14  C   UNL d   1     -54.794-102.086 -35.316  0.00  0.00     0.000 A 
ATOM     15  C   UNL d   1     -54.726-101.345 -35.673  0.00  0.00     0.000 A 
ATOM     16  C   UNL d   1     -54.888-101.266 -36.477  0.00  0.00     0.003 A 
ENDBRANCH   9  11
ENDBRANCH   8   9
ENDBRANCH   7   8
ENDBRANCH   3   7
BRANCH   4  17
ATOM     17  C   UNL d   1     -55.349-101.882 -41.856  0.00  0.00     0.019 A 
ATOM     18  C   UNL d   1     -54.714-101.443 -42.168  0.00  0.00     0.002 A 
ATOM     19  C   UNL d   1     -54.731-101.192 -42.960  0.00  0.00     0.000 A 
ATOM     20  C   UNL d   1     -55.382-101.378 -43.443  0.00  0.00     0.000 A 
ATOM     21  C   UNL d   1     -56.006-101.810 -43.137  0.00  0.00     0.000 A 
ATOM     22  C   UNL d   1     -56.000-102.066 -42.346  0.00  0.00     0.002 A 
ENDBRANCH   4  17
TORSDOF 5
ENDMDL
