MODEL 1
REMARK VINA RESULT:      11.5      0.000      0.000
REMARK  1 active torsions:
REMARK  status: ('A' for Active; 'I' for Inactive)
REMARK    1  A    between atoms: C_5  and  C_1 
ROOT
ATOM      1  C   UNL d   1      13.633  12.352  -2.627  0.00  0.00     0.162 A 
ATOM      2  N   UNL d   1      14.347  12.619  -2.378  0.00  0.00    -0.225 NA
ATOM      3  N   UNL d   1      13.233  12.002  -2.033  0.00  0.00    -0.225 NA
ATOM      4  C   UNL d   1      14.411  12.425  -1.560  0.00  0.00     0.101 A 
ATOM      5  C   UNL d   1      13.720  12.043  -1.346  0.00  0.00     0.101 A 
ATOM      6  C   UNL d   1      15.014  12.557  -1.009  0.00  0.00     0.021 A 
ATOM      7  C   UNL d   1      13.612  11.781  -0.575  0.00  0.00     0.021 A 
ATOM      8  C   UNL d   1      14.207  11.907  -0.014  0.00  0.00     0.002 A 
ATOM      9  C   UNL d   1      14.899  12.289  -0.228  0.00  0.00     0.002 A 
ENDROOT
BRANCH   1  10
ATOM     10  C   UNL d   1      13.355  12.430  -3.389  0.00  0.00     0.036 A 
ATOM     11  C   UNL d   1      13.348  13.165  -3.760  0.00  0.00     0.003 A 
ATOM     12  C   UNL d   1      13.629  13.828  -3.347  0.00  0.00     0.000 C 
ATOM     13  C   UNL d   1      13.065  13.244  -4.532  0.00  0.00     0.000 A 
ATOM     14  C   UNL d   1      12.783  12.589  -4.951  0.00  0.00     0.000 A 
ATOM     15  C   UNL d   1      12.793  11.858  -4.573  0.00  0.00     0.000 A 
ATOM     16  C   UNL d   1      13.076  11.779  -3.801  0.00  0.00     0.003 A 
ENDBRANCH   1  10
TORSDOF 1
ENDMDL
