MODEL 1
REMARK VINA RESULT:      -6.2      0.000      0.000
REMARK  4 active torsions:
REMARK  status: ('A' for Active; 'I' for Inactive)
REMARK    1  A    between atoms: N_8  and  C_1 
REMARK    2  A    between atoms: C_13  and  N_4 
REMARK    3  A    between atoms: C_6  and  N_8 
REMARK    4  A    between atoms: C_14  and  C_9 
ROOT
ATOM      1  C   UNL d   1      58.814  -0.473  29.372  0.00  0.00     0.135 A 
ATOM      2  C   UNL d   1      58.838  -1.303  29.356  0.00  0.00     0.296 A 
ATOM      3  N   UNL d   1      60.060  -0.843  29.096  0.00  0.00    -0.238 N 
ATOM      4  N   UNL d   1      59.609  -1.529  29.185  0.00  0.00    -0.209 N 
ATOM      5  C   UNL d   1      59.565  -0.203  29.212  0.00  0.00     0.102 A 
ATOM      6  O   UNL d   1      58.204  -1.804  29.488  0.00  0.00    -0.264 OA
ATOM      7  C   UNL d   1      60.860  -0.812  28.922  0.00  0.00     0.120 C 
ATOM      8  C   UNL d   1      59.796   0.594  29.172  0.00  0.00     0.022 C 
ENDROOT
BRANCH   1   9
ATOM      9  N   UNL d   1      58.146  -0.013  29.524  0.00  0.00    -0.329 N 
ATOM     10  H   UNL d   1      57.721   0.314  28.893  0.00  0.00     0.168 HD
BRANCH   9  11
ATOM     11  C   UNL d   1      57.902   0.120  30.293  0.00  0.00     0.172 A 
ATOM     12  N   UNL d   1      57.292  -0.262  30.683  0.00  0.00    -0.222 NA
ATOM     13  C   UNL d   1      57.242   0.049  31.448  0.00  0.00     0.090 A 
ATOM     14  C   UNL d   1      57.822   0.620  31.524  0.00  0.00     0.057 A 
ATOM     15  S   UNL d   1      58.235   0.669  30.807  0.00  0.00    -0.048 SA
BRANCH  13  16
ATOM     16  C   UNL d   1      56.704  -0.182  32.024  0.00  0.00     0.018 A 
ATOM     17  C   UNL d   1      56.272   0.379  32.449  0.00  0.00     0.002 A 
ATOM     18  C   UNL d   1      55.735   0.137  33.024  0.00  0.00     0.000 A 
ATOM     19  C   UNL d   1      55.629  -0.661  33.173  0.00  0.00     0.000 A 
ATOM     20  C   UNL d   1      56.048  -1.219  32.760  0.00  0.00     0.000 A 
ATOM     21  C   UNL d   1      56.592  -0.993  32.180  0.00  0.00     0.002 A 
ENDBRANCH  13  16
ENDBRANCH   9  11
ENDBRANCH   1   9
BRANCH   4  22
ATOM     22  C   UNL d   1      59.886  -2.298  29.115  0.00  0.00     0.085 A 
ATOM     23  C   UNL d   1      59.600  -2.790  28.517  0.00  0.00     0.019 A 
ATOM     24  C   UNL d   1      59.885  -3.560  28.455  0.00  0.00     0.002 A 
ATOM     25  C   UNL d   1      60.452  -3.837  28.986  0.00  0.00     0.000 A 
ATOM     26  C   UNL d   1      60.738  -3.345  29.583  0.00  0.00     0.002 A 
ATOM     27  C   UNL d   1      60.457  -2.576  29.650  0.00  0.00     0.019 A 
ENDBRANCH   4  22
TORSDOF 4
ENDMDL
MODEL 2
REMARK VINA RESULT:      -5.4      1.109      4.642
REMARK  4 active torsions:
REMARK  status: ('A' for Active; 'I' for Inactive)
REMARK    1  A    between atoms: N_8  and  C_1 
REMARK    2  A    between atoms: C_13  and  N_4 
REMARK    3  A    between atoms: C_6  and  N_8 
REMARK    4  A    between atoms: C_14  and  C_9 
ROOT
ATOM      1  C   UNL d   1      58.140   0.534  30.978  0.00  0.00     0.135 A 
ATOM      2  C   UNL d   1      57.350   0.361  31.169  0.00  0.00     0.296 A 
ATOM      3  N   UNL d   1      58.063   0.366  32.294  0.00  0.00    -0.238 N 
ATOM      4  N   UNL d   1      57.306   0.257  31.983  0.00  0.00    -0.209 N 
ATOM      5  C   UNL d   1      58.565   0.534  31.672  0.00  0.00     0.102 A 
ATOM      6  O   UNL d   1      56.730   0.304  30.639  0.00  0.00    -0.264 OA
ATOM      7  C   UNL d   1      58.271   0.313  33.084  0.00  0.00     0.120 C 
ATOM      8  C   UNL d   1      59.381   0.681  31.740  0.00  0.00     0.022 C 
ENDROOT
BRANCH   1   9
ATOM      9  N   UNL d   1      58.431   0.678  30.220  0.00  0.00    -0.329 N 
ATOM     10  H   UNL d   1      58.594   1.454  29.983  0.00  0.00     0.168 HD
BRANCH   9  11
ATOM     11  C   UNL d   1      58.560   0.058  29.702  0.00  0.00     0.172 A 
ATOM     12  N   UNL d   1      58.965  -0.635  29.863  0.00  0.00    -0.222 NA
ATOM     13  C   UNL d   1      58.957  -1.102  29.180  0.00  0.00     0.090 A 
ATOM     14  C   UNL d   1      58.548  -0.693  28.602  0.00  0.00     0.057 A 
ATOM     15  S   UNL d   1      58.298   0.030  28.922  0.00  0.00    -0.048 SA
BRANCH  13  16
ATOM     16  C   UNL d   1      59.303  -1.843  29.103  0.00  0.00     0.018 A 
ATOM     17  C   UNL d   1      60.116  -1.922  28.986  0.00  0.00     0.002 A 
ATOM     18  C   UNL d   1      60.451  -2.669  28.911  0.00  0.00     0.000 A 
ATOM     19  C   UNL d   1      59.977  -3.336  28.952  0.00  0.00     0.000 A 
ATOM     20  C   UNL d   1      59.177  -3.268  29.067  0.00  0.00     0.000 A 
ATOM     21  C   UNL d   1      58.824  -2.524  29.145  0.00  0.00     0.002 A 
ENDBRANCH  13  16
ENDBRANCH   9  11
ENDBRANCH   1   9
BRANCH   4  22
ATOM     22  C   UNL d   1      56.631   0.079  32.415  0.00  0.00     0.085 A 
ATOM     23  C   UNL d   1      56.343  -0.694  32.433  0.00  0.00     0.019 A 
ATOM     24  C   UNL d   1      55.665  -0.864  32.869  0.00  0.00     0.002 A 
ATOM     25  C   UNL d   1      55.278  -0.266  33.284  0.00  0.00     0.000 A 
ATOM     26  C   UNL d   1      55.567   0.507  33.265  0.00  0.00     0.002 A 
ATOM     27  C   UNL d   1      56.243   0.682  32.832  0.00  0.00     0.019 A 
ENDBRANCH   4  22
TORSDOF 4
ENDMDL
