MODEL 1
REMARK VINA RESULT:      50.2      0.000      0.000
REMARK  3 active torsions:
REMARK  status: ('A' for Active; 'I' for Inactive)
REMARK    1  A    between atoms: C_8  and  C_2 
REMARK    2  A    between atoms: O_11  and  C_8 
REMARK    3  A    between atoms: C_12  and  O_11 
ROOT
ATOM      1  O   UNL d   1      59.944  49.708  50.179  0.00  0.00    -0.302 OA
ENDROOT
BRANCH   1   2
ATOM      2  C   UNL d   1      60.418  49.350  50.758  0.00  0.00     0.161 C 
BRANCH   2   3
ATOM      3  C   UNL d   1      60.756  48.612  50.613  0.00  0.00     0.188 A 
ATOM      4  N   UNL d   1      61.249  48.416  49.952  0.00  0.00    -0.224 NA
ATOM      5  C   UNL d   1      61.459  47.640  50.024  0.00  0.00     0.101 A 
ATOM      6  C   UNL d   1      61.099  47.335  50.736  0.00  0.00     0.101 A 
ATOM      7  C   UNL d   1      61.925  47.113  49.574  0.00  0.00     0.021 A 
ATOM      8  C   UNL d   1      61.218  46.549  50.955  0.00  0.00     0.021 A 
ATOM      9  N   UNL d   1      60.680  47.936  51.075  0.00  0.00    -0.224 NA
ATOM     10  C   UNL d   1      61.685  46.056  50.486  0.00  0.00     0.002 A 
ATOM     11  C   UNL d   1      62.033  46.350  49.797  0.00  0.00     0.002 A 
ENDBRANCH   2   3
ENDBRANCH   1   2
BRANCH   1  12
ATOM     12  C   UNL d   1      59.126  49.706  50.295  0.00  0.00     0.100 A 
ATOM     13  C   UNL d   1      58.600  49.703  49.688  0.00  0.00     0.025 A 
ATOM     14  C   UNL d   1      57.788  49.702  49.832  0.00  0.00     0.002 A 
ATOM     15  C   UNL d   1      57.252  49.699  49.177  0.00  0.00     0.000 A 
ATOM     16  C   UNL d   1      57.502  49.703  50.584  0.00  0.00     0.000 A 
ATOM     17  C   UNL d   1      56.439  49.697  49.321  0.00  0.00     0.000 A 
ATOM     18  C   UNL d   1      56.133  49.698  50.126  0.00  0.00     0.000 A 
ATOM     19  C   UNL d   1      56.689  49.701  50.728  0.00  0.00     0.000 A 
ATOM     20  C   UNL d   1      58.038  49.706  51.244  0.00  0.00     0.002 A 
ATOM     21  C   UNL d   1      58.851  49.707  51.100  0.00  0.00     0.025 A 
ENDBRANCH   1  12
TORSDOF 3
ENDMDL
