MODEL 1
REMARK VINA RESULT:      43.6      0.000      0.000
REMARK  4 active torsions:
REMARK  status: ('A' for Active; 'I' for Inactive)
REMARK    1  A    between atoms: S_3  and  C_1 
REMARK    2  A    between atoms: C_7  and  S_3 
REMARK    3  A    between atoms: S_11  and  C_4 
REMARK    4  A    between atoms: C_10  and  C_5 
ROOT
ATOM      1  C   UNL d   1      13.653  13.409  -3.594  0.00  0.00     0.199 A 
ATOM      2  N   UNL d   1      13.802  14.182  -3.838  0.00  0.00    -0.208 NA
ATOM      3  C   UNL d   1      13.220  13.035  -4.189  0.00  0.00     0.156 A 
ATOM      4  C   UNL d   1      13.462  14.287  -4.585  0.00  0.00     0.184 A 
ATOM      5  O   UNL d   1      13.105  13.575  -4.795  0.00  0.00    -0.281 OA
ENDROOT
BRANCH   1   6
ATOM      6  S   UNL d   1      13.896  13.078  -2.881  0.00  0.00     0.229 S 
ATOM      7  O   UNL d   1      13.451  12.420  -3.083  0.00  0.00    -0.215 OA
ATOM      8  O   UNL d   1      14.344  13.734  -2.673  0.00  0.00    -0.215 OA
BRANCH   6   9
ATOM      9  C   UNL d   1      14.145  12.754  -2.165  0.00  0.00     0.089 A 
ATOM     10  C   UNL d   1      14.842  13.024  -1.815  0.00  0.00     0.011 A 
ATOM     11  C   UNL d   1      15.089  12.700  -1.101  0.00  0.00     0.001 A 
ATOM     12  C   UNL d   1      14.650  12.111  -0.731  0.00  0.00     0.000 A 
ATOM     13  C   UNL d   1      13.951  11.841  -1.084  0.00  0.00     0.001 A 
ATOM     14  C   UNL d   1      14.900  11.787  -0.014  0.00  0.00     0.000 C 
ATOM     15  C   UNL d   1      13.704  12.161  -1.792  0.00  0.00     0.011 A 
ENDBRANCH   6   9
ENDBRANCH   1   6
BRANCH   3  16
ATOM     16  S   UNL d   1      12.954  12.257  -4.174  0.00  0.00    -0.086 SA
ATOM     17  C   UNL d   1      13.047  11.781  -4.840  0.00  0.00     0.076 C 
ENDBRANCH   3  16
BRANCH   4  18
ATOM     18  C   UNL d   1      13.479  14.981  -5.034  0.00  0.00     0.041 A 
ATOM     19  C   UNL d   1      12.786  15.426  -5.137  0.00  0.00     0.004 A 
ATOM     20  C   UNL d   1      12.808  16.117  -5.586  0.00  0.00     0.000 A 
ATOM     21  C   UNL d   1      13.507  16.362  -5.928  0.00  0.00     0.000 A 
ATOM     22  C   UNL d   1      14.202  15.922  -5.830  0.00  0.00     0.000 A 
ATOM     23  C   UNL d   1      14.188  15.238  -5.387  0.00  0.00     0.004 A 
ENDBRANCH   4  18
TORSDOF 4
ENDMDL
