MODEL 1
REMARK VINA RESULT:      83.4      0.000      0.000
REMARK  2 active torsions:
REMARK  status: ('A' for Active; 'I' for Inactive)
REMARK    1  A    between atoms: C_3  and  C_1 
REMARK       I    between atoms: N_6  and  C_3 
REMARK    2  A    between atoms: C_11  and  N_6 
ROOT
ATOM      1  C   UNL d   1      58.889  49.131  50.788  0.00  0.00     0.121 A 
ATOM      2  C   UNL d   1      58.538  49.350  51.519  0.00  0.00     0.305 A 
ATOM      3  C   UNL d   1      58.427  49.108  50.104  0.00  0.00     0.012 A 
ATOM      4  O   UNL d   1      57.728  49.544  51.560  0.00  0.00    -0.273 OA
ATOM      5  C   UNL d   1      57.624  49.301  50.148  0.00  0.00     0.023 A 
ATOM      6  C   UNL d   1      57.280  49.516  50.866  0.00  0.00     0.103 A 
ATOM      7  O   UNL d   1      58.976  49.387  52.246  0.00  0.00    -0.259 OA
ATOM      8  C   UNL d   1      57.184  49.272  49.460  0.00  0.00     0.002 A 
ATOM      9  C   UNL d   1      56.486  49.708  50.915  0.00  0.00     0.025 A 
ATOM     10  C   UNL d   1      56.034  49.680  50.219  0.00  0.00     0.002 A 
ATOM     11  C   UNL d   1      56.385  49.462  49.488  0.00  0.00     0.000 A 
ENDROOT
BRANCH   1  12
ATOM     12  C   UNL d   1      59.704  48.933  50.729  0.00  0.00     0.284 C 
ATOM     13  N   UNL d   1      59.938  48.179  50.491  0.00  0.00    -0.208 NA
ATOM     14  O   UNL d   1      60.261  49.524  50.920  0.00  0.00    -0.265 OA
BRANCH  13  15
ATOM     15  C   UNL d   1      60.747  47.998  50.437  0.00  0.00     0.085 A 
ATOM     16  C   UNL d   1      60.997  47.276  50.126  0.00  0.00     0.019 A 
ATOM     17  C   UNL d   1      61.782  47.110  50.079  0.00  0.00     0.002 A 
ATOM     18  C   UNL d   1      62.031  46.392  49.769  0.00  0.00     0.000 C 
ATOM     19  C   UNL d   1      62.340  47.651  50.337  0.00  0.00     0.000 A 
ATOM     20  C   UNL d   1      62.083  48.393  50.657  0.00  0.00     0.002 A 
ATOM     21  C   UNL d   1      63.156  47.461  50.280  0.00  0.00     0.000 C 
ATOM     22  C   UNL d   1      61.281  48.554  50.701  0.00  0.00     0.019 A 
ENDBRANCH  13  15
ENDBRANCH   1  12
TORSDOF 2
ENDMDL
