MODEL 1
REMARK VINA RESULT:      -8.7      0.000      0.000
REMARK  4 active torsions:
REMARK  status: ('A' for Active; 'I' for Inactive)
REMARK    1  A    between atoms: C_2  and  C_1 
REMARK       I    between atoms: N_6  and  C_2 
REMARK    2  A    between atoms: C_4  and  C_11 
REMARK    3  A    between atoms: N_8  and  N_6 
REMARK    4  A    between atoms: C_11  and  N_8 
ROOT
ATOM      1  C   UNL d   1      53.775  31.742  53.664  0.00  0.00     0.300 C 
ATOM      2  O   UNL d   1      54.097  30.984  53.705  0.00  0.00    -0.264 OA
ATOM      3  N   UNL d   1      53.085  31.881  53.223  0.00  0.00    -0.105 NA
ENDROOT
BRANCH   3   4
ATOM      4  N   UNL d   1      52.761  32.639  53.181  0.00  0.00    -0.143 NA
BRANCH   4   5
ATOM      5  C   UNL d   1      52.215  32.834  52.574  0.00  0.00     0.126 C 
BRANCH   5   6
ATOM      6  C   UNL d   1      51.600  33.356  52.724  0.00  0.00     0.060 A 
ATOM      7  C   UNL d   1      51.477  34.019  52.235  0.00  0.00     0.197 A 
ATOM      8  O   UNL d   1      51.978  34.148  51.600  0.00  0.00    -0.286 OA
ATOM      9  C   UNL d   1      50.863  34.540  52.384  0.00  0.00     0.042 A 
ATOM     10  C   UNL d   1      50.360  34.412  53.020  0.00  0.00     0.003 A 
ATOM     11  C   UNL d   1      50.476  33.742  53.522  0.00  0.00     0.000 A 
ATOM     12  C   UNL d   1      51.094  33.219  53.371  0.00  0.00     0.005 A 
ENDBRANCH   5   6
ENDBRANCH   4   5
ENDBRANCH   3   4
BRANCH   1  13
ATOM     13  C   UNL d   1      54.137  32.367  54.064  0.00  0.00     0.098 A 
ATOM     14  C   UNL d   1      54.049  32.426  54.883  0.00  0.00     0.200 A 
ATOM     15  O   UNL d   1      53.605  31.867  55.286  0.00  0.00    -0.286 OA
ATOM     16  C   UNL d   1      54.406  33.046  55.302  0.00  0.00     0.042 A 
ATOM     17  C   UNL d   1      54.851  33.606  54.898  0.00  0.00     0.003 A 
ATOM     18  C   UNL d   1      54.946  33.554  54.070  0.00  0.00     0.000 A 
ATOM     19  C   UNL d   1      54.594  32.942  53.650  0.00  0.00     0.008 A 
ENDBRANCH   1  13
TORSDOF 4
ENDMDL
MODEL 2
REMARK VINA RESULT:      -8.0      1.475      3.679
REMARK  4 active torsions:
REMARK  status: ('A' for Active; 'I' for Inactive)
REMARK    1  A    between atoms: C_2  and  C_1 
REMARK       I    between atoms: N_6  and  C_2 
REMARK    2  A    between atoms: C_4  and  C_11 
REMARK    3  A    between atoms: N_8  and  N_6 
REMARK    4  A    between atoms: C_11  and  N_8 
ROOT
ATOM      1  C   UNL d   1      52.802  33.949  53.948  0.00  0.00     0.300 C 
ATOM      2  O   UNL d   1      53.058  34.623  54.349  0.00  0.00    -0.264 OA
ATOM      3  N   UNL d   1      53.245  33.247  53.982  0.00  0.00    -0.105 NA
ENDROOT
BRANCH   3   4
ATOM      4  N   UNL d   1      52.990  32.572  53.582  0.00  0.00    -0.143 NA
BRANCH   4   5
ATOM      5  C   UNL d   1      53.539  31.979  53.357  0.00  0.00     0.126 C 
BRANCH   5   6
ATOM      6  C   UNL d   1      53.363  31.186  53.473  0.00  0.00     0.060 A 
ATOM      7  C   UNL d   1      53.085  30.717  52.843  0.00  0.00     0.197 A 
ATOM      8  O   UNL d   1      52.988  31.054  52.103  0.00  0.00    -0.286 OA
ATOM      9  C   UNL d   1      52.908  29.926  52.958  0.00  0.00     0.042 A 
ATOM     10  C   UNL d   1      53.004  29.586  53.700  0.00  0.00     0.003 A 
ATOM     11  C   UNL d   1      53.286  30.054  54.344  0.00  0.00     0.000 A 
ATOM     12  C   UNL d   1      53.463  30.849  54.228  0.00  0.00     0.005 A 
ENDBRANCH   5   6
ENDBRANCH   4   5
ENDBRANCH   3   4
BRANCH   1  13
ATOM     13  C   UNL d   1      52.102  33.970  53.512  0.00  0.00     0.098 A 
ATOM     14  C   UNL d   1      52.081  34.396  52.804  0.00  0.00     0.200 A 
ATOM     15  O   UNL d   1      52.752  34.790  52.547  0.00  0.00    -0.286 OA
ATOM     16  C   UNL d   1      51.387  34.430  52.352  0.00  0.00     0.042 A 
ATOM     17  C   UNL d   1      50.714  34.035  52.611  0.00  0.00     0.003 A 
ATOM     18  C   UNL d   1      50.726  33.601  53.324  0.00  0.00     0.000 A 
ATOM     19  C   UNL d   1      51.411  33.565  53.776  0.00  0.00     0.008 A 
ENDBRANCH   1  13
TORSDOF 4
ENDMDL
MODEL 3
REMARK VINA RESULT:      -7.9      1.155      1.822
REMARK  4 active torsions:
REMARK  status: ('A' for Active; 'I' for Inactive)
REMARK    1  A    between atoms: C_2  and  C_1 
REMARK       I    between atoms: N_6  and  C_2 
REMARK    2  A    between atoms: C_4  and  C_11 
REMARK    3  A    between atoms: N_8  and  N_6 
REMARK    4  A    between atoms: C_11  and  N_8 
ROOT
ATOM      1  C   UNL d   1      54.148  33.319  54.695  0.00  0.00     0.300 C 
ATOM      2  O   UNL d   1      54.781  33.450  55.208  0.00  0.00    -0.264 OA
ATOM      3  N   UNL d   1      53.603  33.926  54.538  0.00  0.00    -0.105 NA
ENDROOT
BRANCH   3   4
ATOM      4  N   UNL d   1      52.970  33.797  54.026  0.00  0.00    -0.143 NA
BRANCH   4   5
ATOM      5  C   UNL d   1      52.509  34.442  53.749  0.00  0.00     0.126 C 
BRANCH   5   6
ATOM      6  C   UNL d   1      51.840  34.307  53.294  0.00  0.00     0.060 A 
ATOM      7  C   UNL d   1      51.834  34.490  52.482  0.00  0.00     0.197 A 
ATOM      8  O   UNL d   1      52.506  34.808  52.137  0.00  0.00    -0.286 OA
ATOM      9  C   UNL d   1      51.166  34.356  52.028  0.00  0.00     0.042 A 
ATOM     10  C   UNL d   1      50.492  34.037  52.372  0.00  0.00     0.003 A 
ATOM     11  C   UNL d   1      50.488  33.847  53.195  0.00  0.00     0.000 A 
ATOM     12  C   UNL d   1      51.160  33.983  53.651  0.00  0.00     0.005 A 
ENDBRANCH   5   6
ENDBRANCH   4   5
ENDBRANCH   3   4
BRANCH   1  13
ATOM     13  C   UNL d   1      54.055  32.582  54.335  0.00  0.00     0.098 A 
ATOM     14  C   UNL d   1      54.509  32.399  53.670  0.00  0.00     0.200 A 
ATOM     15  O   UNL d   1      55.044  32.948  53.378  0.00  0.00    -0.286 OA
ATOM     16  C   UNL d   1      54.430  31.664  53.295  0.00  0.00     0.042 A 
ATOM     17  C   UNL d   1      53.894  31.114  53.587  0.00  0.00     0.003 A 
ATOM     18  C   UNL d   1      53.431  31.290  54.259  0.00  0.00     0.000 A 
ATOM     19  C   UNL d   1      53.506  32.018  54.635  0.00  0.00     0.008 A 
ENDBRANCH   1  13
TORSDOF 4
ENDMDL
MODEL 4
REMARK VINA RESULT:      -7.9      1.734      3.055
REMARK  4 active torsions:
REMARK  status: ('A' for Active; 'I' for Inactive)
REMARK    1  A    between atoms: C_2  and  C_1 
REMARK       I    between atoms: N_6  and  C_2 
REMARK    2  A    between atoms: C_4  and  C_11 
REMARK    3  A    between atoms: N_8  and  N_6 
REMARK    4  A    between atoms: C_11  and  N_8 
ROOT
ATOM      1  C   UNL d   1      53.168  33.651  53.281  0.00  0.00     0.300 C 
ATOM      2  O   UNL d   1      52.917  34.394  53.024  0.00  0.00    -0.264 OA
ATOM      3  N   UNL d   1      52.866  32.962  52.929  0.00  0.00    -0.105 NA
ENDROOT
BRANCH   3   4
ATOM      4  N   UNL d   1      53.117  32.218  53.185  0.00  0.00    -0.143 NA
BRANCH   4   5
ATOM      5  C   UNL d   1      52.806  31.521  52.834  0.00  0.00     0.126 C 
BRANCH   5   6
ATOM      6  C   UNL d   1      52.946  30.789  53.176  0.00  0.00     0.060 A 
ATOM      7  C   UNL d   1      52.314  30.318  53.445  0.00  0.00     0.197 A 
ATOM      8  O   UNL d   1      51.547  30.593  53.367  0.00  0.00    -0.286 OA
ATOM      9  C   UNL d   1      52.454  29.587  53.786  0.00  0.00     0.042 A 
ATOM     10  C   UNL d   1      53.223  29.310  53.865  0.00  0.00     0.003 A 
ATOM     11  C   UNL d   1      53.870  29.779  53.595  0.00  0.00     0.000 A 
ATOM     12  C   UNL d   1      53.730  30.515  53.253  0.00  0.00     0.005 A 
ENDBRANCH   5   6
ENDBRANCH   4   5
ENDBRANCH   3   4
BRANCH   1  13
ATOM     13  C   UNL d   1      53.722  33.591  53.889  0.00  0.00     0.098 A 
ATOM     14  C   UNL d   1      53.484  33.737  54.667  0.00  0.00     0.200 A 
ATOM     15  O   UNL d   1      52.704  33.939  54.822  0.00  0.00    -0.286 OA
ATOM     16  C   UNL d   1      54.026  33.683  55.291  0.00  0.00     0.042 A 
ATOM     17  C   UNL d   1      54.807  33.481  55.135  0.00  0.00     0.003 A 
ATOM     18  C   UNL d   1      55.057  33.331  54.353  0.00  0.00     0.000 A 
ATOM     19  C   UNL d   1      54.524  33.384  53.730  0.00  0.00     0.008 A 
ENDBRANCH   1  13
TORSDOF 4
ENDMDL
MODEL 5
REMARK VINA RESULT:      -7.7      1.221      3.525
REMARK  4 active torsions:
REMARK  status: ('A' for Active; 'I' for Inactive)
REMARK    1  A    between atoms: C_2  and  C_1 
REMARK       I    between atoms: N_6  and  C_2 
REMARK    2  A    between atoms: C_4  and  C_11 
REMARK    3  A    between atoms: N_8  and  N_6 
REMARK    4  A    between atoms: C_11  and  N_8 
ROOT
ATOM      1  C   UNL d   1      52.239  32.232  52.770  0.00  0.00     0.300 C 
ATOM      2  O   UNL d   1      51.820  31.655  52.354  0.00  0.00    -0.264 OA
ATOM      3  N   UNL d   1      52.953  32.041  53.149  0.00  0.00    -0.105 NA
ENDROOT
BRANCH   3   4
ATOM      4  N   UNL d   1      53.372  32.616  53.565  0.00  0.00    -0.143 NA
BRANCH   4   5
ATOM      5  C   UNL d   1      54.147  32.458  53.845  0.00  0.00     0.126 C 
BRANCH   5   6
ATOM      6  C   UNL d   1      54.481  32.929  54.428  0.00  0.00     0.060 A 
ATOM      7  C   UNL d   1      55.173  33.367  54.274  0.00  0.00     0.197 A 
ATOM      8  O   UNL d   1      55.520  33.324  53.534  0.00  0.00    -0.286 OA
ATOM      9  C   UNL d   1      55.506  33.837  54.856  0.00  0.00     0.042 A 
ATOM     10  C   UNL d   1      55.160  33.882  55.599  0.00  0.00     0.003 A 
ATOM     11  C   UNL d   1      54.458  33.442  55.764  0.00  0.00     0.000 A 
ATOM     12  C   UNL d   1      54.123  32.969  55.179  0.00  0.00     0.005 A 
ENDBRANCH   5   6
ENDBRANCH   4   5
ENDBRANCH   3   4
BRANCH   1  13
ATOM     13  C   UNL d   1      51.948  33.003  52.810  0.00  0.00     0.098 A 
ATOM     14  C   UNL d   1      51.266  33.154  53.252  0.00  0.00     0.200 A 
ATOM     15  O   UNL d   1      50.890  32.539  53.642  0.00  0.00    -0.286 OA
ATOM     16  C   UNL d   1      50.959  33.922  53.305  0.00  0.00     0.042 A 
ATOM     17  C   UNL d   1      51.336  34.538  52.913  0.00  0.00     0.003 A 
ATOM     18  C   UNL d   1      52.026  34.396  52.464  0.00  0.00     0.000 A 
ATOM     19  C   UNL d   1      52.334  33.636  52.409  0.00  0.00     0.008 A 
ENDBRANCH   1  13
TORSDOF 4
ENDMDL
MODEL 6
REMARK VINA RESULT:      -7.6      1.961      3.256
REMARK  4 active torsions:
REMARK  status: ('A' for Active; 'I' for Inactive)
REMARK    1  A    between atoms: C_2  and  C_1 
REMARK       I    between atoms: N_6  and  C_2 
REMARK    2  A    between atoms: C_4  and  C_11 
REMARK    3  A    between atoms: N_8  and  N_6 
REMARK    4  A    between atoms: C_11  and  N_8 
ROOT
ATOM      1  C   UNL d   1      53.003  30.560  52.576  0.00  0.00     0.300 C 
ATOM      2  O   UNL d   1      52.789  30.179  51.877  0.00  0.00    -0.264 OA
ATOM      3  N   UNL d   1      53.108  31.384  52.589  0.00  0.00    -0.105 NA
ENDROOT
BRANCH   3   4
ATOM      4  N   UNL d   1      53.322  31.767  53.288  0.00  0.00    -0.143 NA
BRANCH   4   5
ATOM      5  C   UNL d   1      53.299  32.605  53.337  0.00  0.00     0.126 C 
BRANCH   5   6
ATOM      6  C   UNL d   1      53.716  32.996  53.925  0.00  0.00     0.060 A 
ATOM      7  C   UNL d   1      53.321  33.487  54.469  0.00  0.00     0.197 A 
ATOM      8  O   UNL d   1      52.509  33.578  54.413  0.00  0.00    -0.286 OA
ATOM      9  C   UNL d   1      53.737  33.878  55.057  0.00  0.00     0.042 A 
ATOM     10  C   UNL d   1      54.551  33.789  55.115  0.00  0.00     0.003 A 
ATOM     11  C   UNL d   1      54.960  33.293  54.567  0.00  0.00     0.000 A 
ATOM     12  C   UNL d   1      54.542  32.900  53.977  0.00  0.00     0.005 A 
ENDBRANCH   5   6
ENDBRANCH   4   5
ENDBRANCH   3   4
BRANCH   1  13
ATOM     13  C   UNL d   1      53.113  30.123  53.267  0.00  0.00     0.098 A 
ATOM     14  C   UNL d   1      52.452  29.846  53.678  0.00  0.00     0.200 A 
ATOM     15  O   UNL d   1      51.700  30.010  53.396  0.00  0.00    -0.286 OA
ATOM     16  C   UNL d   1      52.542  29.406  54.374  0.00  0.00     0.042 A 
ATOM     17  C   UNL d   1      53.296  29.242  54.657  0.00  0.00     0.003 A 
ATOM     18  C   UNL d   1      53.970  29.517  54.248  0.00  0.00     0.000 A 
ATOM     19  C   UNL d   1      53.886  29.955  53.558  0.00  0.00     0.008 A 
ENDBRANCH   1  13
TORSDOF 4
ENDMDL
