MODEL 1
REMARK VINA RESULT:      55.0      0.000      0.000
REMARK  10 active torsions:
REMARK  status: ('A' for Active; 'I' for Inactive)
REMARK    1  A    between atoms: C_4  and  N_1 
REMARK    2  A    between atoms: C_10  and  C_2 
REMARK    3  A    between atoms: N_16  and  C_4 
REMARK    4  A    between atoms: O_22  and  C_8 
REMARK    5  A    between atoms: O_15  and  C_10 
REMARK    6  A    between atoms: O_23  and  C_11 
REMARK    7  A    between atoms: C_14  and  O_15 
REMARK    8  A    between atoms: C_25  and  N_16 
REMARK    9  A    between atoms: O_24  and  C_28 
REMARK   10  A    between atoms: C_28  and  C_25 
ROOT
ATOM      1  N   UNL d   1      45.447 -17.613  44.501  0.00  0.00    -0.280 N 
ATOM      2  C   UNL d   1      45.911 -17.123  44.026  0.00  0.00     0.091 A 
ATOM      3  C   UNL d   1      45.766 -16.320  44.009  0.00  0.00     0.020 A 
ATOM      4  C   UNL d   1      45.159 -15.997  44.463  0.00  0.00     0.005 A 
ATOM      5  C   UNL d   1      46.229 -15.834  43.536  0.00  0.00     0.028 A 
ATOM      6  C   UNL d   1      44.840 -17.291  44.955  0.00  0.00     0.082 A 
ATOM      7  C   UNL d   1      46.086 -15.022  43.515  0.00  0.00     0.116 A 
ATOM      8  C   UNL d   1      45.014 -15.189  44.445  0.00  0.00     0.026 A 
ATOM      9  C   UNL d   1      45.479 -14.699  43.970  0.00  0.00     0.116 A 
ATOM     10  C   UNL d   1      44.696 -16.478  44.935  0.00  0.00     0.019 A 
ENDROOT
BRANCH   2  11
ATOM     11  C   UNL d   1      46.519 -17.446  43.571  0.00  0.00     0.140 C 
BRANCH  11  12
ATOM     12  O   UNL d   1      46.644 -17.178  42.801  0.00  0.00    -0.304 OA
BRANCH  12  13
ATOM     13  C   UNL d   1      46.573 -17.700  42.166  0.00  0.00     0.100 A 
ATOM     14  C   UNL d   1      46.429 -17.410  41.408  0.00  0.00     0.025 A 
ATOM     15  C   UNL d   1      46.357 -17.932  40.773  0.00  0.00     0.002 A 
ATOM     16  C   UNL d   1      46.212 -17.647  40.008  0.00  0.00     0.000 C 
ATOM     17  C   UNL d   1      46.430 -18.744  40.898  0.00  0.00     0.000 A 
ATOM     18  C   UNL d   1      46.575 -19.035  41.656  0.00  0.00     0.002 A 
ATOM     19  C   UNL d   1      46.646 -18.512  42.291  0.00  0.00     0.025 A 
ATOM     20  C   UNL d   1      46.647 -19.856  41.770  0.00  0.00     0.000 C 
ENDBRANCH  12  13
ENDBRANCH  11  12
ENDBRANCH   2  11
BRANCH   1  21
ATOM     21  C   UNL d   1      45.588 -18.433  44.524  0.00  0.00     0.206 C 
ATOM     22  S   UNL d   1      46.363 -18.722  44.414  0.00  0.00    -0.038 SA
BRANCH  21  23
ATOM     23  N   UNL d   1      44.970 -18.951  44.653  0.00  0.00    -0.215 NA
BRANCH  23  24
ATOM     24  C   UNL d   1      44.936 -19.667  44.246  0.00  0.00     0.128 C 
BRANCH  24  25
ATOM     25  C   UNL d   1      44.215 -19.942  43.955  0.00  0.00     0.137 C 
BRANCH  25  26
ATOM     26  O   UNL d   1      44.185 -20.327  43.237  0.00  0.00    -0.325 OA
ATOM     27  C   UNL d   1      43.546 -20.214  42.735  0.00  0.00     0.182 C 
ENDBRANCH  25  26
ENDBRANCH  24  25
ENDBRANCH  23  24
ENDBRANCH  21  23
ENDBRANCH   1  21
BRANCH   7  28
ATOM     28  O   UNL d   1      46.551 -14.528  43.039  0.00  0.00    -0.326 OA
ATOM     29  C   UNL d   1      46.369 -13.719  42.964  0.00  0.00     0.181 C 
ENDBRANCH   7  28
BRANCH   9  30
ATOM     30  O   UNL d   1      45.336 -13.883  43.949  0.00  0.00    -0.326 OA
ATOM     31  C   UNL d   1      44.567 -13.592  43.810  0.00  0.00     0.181 C 
ENDBRANCH   9  30
TORSDOF 10
ENDMDL
