MODEL 1
REMARK VINA RESULT:      -4.0      0.000      0.000
REMARK  4 active torsions:
REMARK  status: ('A' for Active; 'I' for Inactive)
REMARK    1  A    between atoms: C_6  and  N_1 
REMARK    2  A    between atoms: C_12  and  C_6 
REMARK    3  A    between atoms: O_18  and  C_7 
REMARK    4  A    between atoms: O_19  and  C_10 
ROOT
ATOM      1  N   UNL d   1     -41.234-122.473 -51.700  0.00  0.00    -0.251 N 
ATOM      2  C   UNL d   1     -41.237-121.656 -51.525  0.00  0.00     0.378 A 
ATOM      3  C   UNL d   1     -41.368-122.559 -52.512  0.00  0.00     0.092 A 
ATOM      4  O   UNL d   1     -41.373-121.242 -52.230  0.00  0.00    -0.258 OA
ATOM      5  C   UNL d   1     -41.453-121.800 -52.839  0.00  0.00     0.121 A 
ATOM      6  O   UNL d   1     -41.124-121.327 -50.779  0.00  0.00    -0.237 OA
ATOM      7  C   UNL d   1     -41.422-123.228 -52.986  0.00  0.00     0.020 A 
ATOM      8  C   UNL d   1     -41.594-121.724 -53.651  0.00  0.00     0.026 A 
ATOM      9  C   UNL d   1     -41.562-123.140 -53.794  0.00  0.00     0.002 A 
ATOM     10  C   UNL d   1     -41.647-122.391 -54.125  0.00  0.00     0.002 A 
ATOM     11  C   UNL d   1     -41.615-123.818 -54.269  0.00  0.00     0.000 C 
ENDROOT
BRANCH   1  12
ATOM     12  C   UNL d   1     -41.123-123.111 -51.188  0.00  0.00     0.085 C 
BRANCH  12  13
ATOM     13  C   UNL d   1     -41.562-123.159 -50.490  0.00  0.00     0.020 A 
ATOM     14  C   UNL d   1     -42.366-123.293 -50.528  0.00  0.00     0.028 A 
ATOM     15  C   UNL d   1     -42.811-123.342 -49.841  0.00  0.00     0.116 A 
ATOM     16  C   UNL d   1     -42.436-123.254 -49.107  0.00  0.00     0.116 A 
ATOM     17  C   UNL d   1     -41.627-123.119 -49.071  0.00  0.00     0.026 A 
ATOM     18  C   UNL d   1     -41.187-123.071 -49.769  0.00  0.00     0.004 A 
BRANCH  15  19
ATOM     19  O   UNL d   1     -43.616-123.477 -49.875  0.00  0.00    -0.326 OA
ATOM     20  C   UNL d   1     -43.944-122.751 -50.089  0.00  0.00     0.181 C 
ENDBRANCH  15  19
BRANCH  16  21
ATOM     21  O   UNL d   1     -42.878-123.302 -48.415  0.00  0.00    -0.326 OA
ATOM     22  C   UNL d   1     -42.506-123.472 -47.707  0.00  0.00     0.181 C 
ENDBRANCH  16  21
ENDBRANCH  12  13
ENDBRANCH   1  12
TORSDOF 4
ENDMDL
MODEL 2
REMARK VINA RESULT:      -2.1      1.245      1.946
REMARK  4 active torsions:
REMARK  status: ('A' for Active; 'I' for Inactive)
REMARK    1  A    between atoms: C_6  and  N_1 
REMARK    2  A    between atoms: C_12  and  C_6 
REMARK    3  A    between atoms: O_18  and  C_7 
REMARK    4  A    between atoms: O_19  and  C_10 
ROOT
ATOM      1  N   UNL d   1     -41.541-122.595 -52.711  0.00  0.00    -0.251 N 
ATOM      2  C   UNL d   1     -41.305-123.396 -52.679  0.00  0.00     0.378 A 
ATOM      3  C   UNL d   1     -41.668-122.399 -53.505  0.00  0.00     0.092 A 
ATOM      4  O   UNL d   1     -41.288-123.690 -53.454  0.00  0.00    -0.258 OA
ATOM      5  C   UNL d   1     -41.512-123.074 -53.963  0.00  0.00     0.121 A 
ATOM      6  O   UNL d   1     -41.123-123.814 -51.994  0.00  0.00    -0.237 OA
ATOM      7  C   UNL d   1     -41.904-121.697 -53.860  0.00  0.00     0.020 A 
ATOM      8  C   UNL d   1     -41.597-123.033 -54.786  0.00  0.00     0.026 A 
ATOM      9  C   UNL d   1     -41.985-121.667 -54.681  0.00  0.00     0.002 A 
ATOM     10  C   UNL d   1     -41.833-122.332 -55.141  0.00  0.00     0.002 A 
ATOM     11  C   UNL d   1     -42.223-120.956 -55.035  0.00  0.00     0.000 C 
ENDROOT
BRANCH   1  12
ATOM     12  C   UNL d   1     -41.641-122.060 -52.090  0.00  0.00     0.085 C 
BRANCH  12  13
ATOM     13  C   UNL d   1     -42.035-122.298 -51.404  0.00  0.00     0.020 A 
ATOM     14  C   UNL d   1     -41.630-122.329 -50.696  0.00  0.00     0.028 A 
ATOM     15  C   UNL d   1     -42.012-122.564 -50.010  0.00  0.00     0.116 A 
ATOM     16  C   UNL d   1     -42.814-122.770 -50.041  0.00  0.00     0.116 A 
ATOM     17  C   UNL d   1     -43.220-122.738 -50.755  0.00  0.00     0.026 A 
ATOM     18  C   UNL d   1     -42.826-122.501 -51.440  0.00  0.00     0.004 A 
BRANCH  15  19
ATOM     19  O   UNL d   1     -41.610-122.595 -49.299  0.00  0.00    -0.326 OA
ATOM     20  C   UNL d   1     -41.123-121.930 -49.301  0.00  0.00     0.181 C 
ENDBRANCH  15  19
BRANCH  16  21
ATOM     21  O   UNL d   1     -43.202-123.006 -49.355  0.00  0.00    -0.326 OA
ATOM     22  C   UNL d   1     -43.676-123.672 -49.366  0.00  0.00     0.181 C 
ENDBRANCH  16  21
ENDBRANCH  12  13
ENDBRANCH   1  12
TORSDOF 4
ENDMDL
