MODEL 1
REMARK VINA RESULT:      -9.7      0.000      0.000
REMARK  0 active torsions:
REMARK  status: ('A' for Active; 'I' for Inactive)
ROOT
ATOM      1  C   UNL d   1      53.462  32.807  53.914  0.00  0.00     0.062 A 
ATOM      2  C   UNL d   1      52.859  33.202  53.507  0.00  0.00     0.116 A 
ATOM      3  C   UNL d   1      53.953  33.240  54.445  0.00  0.00     0.192 A 
ATOM      4  N   UNL d   1      53.815  34.058  54.546  0.00  0.00    -0.171 N 
ATOM      5  N   UNL d   1      52.740  34.012  53.622  0.00  0.00    -0.217 NA
ATOM      6  S   UNL d   1      52.500  32.614  53.046  0.00  0.00    -0.068 SA
ATOM      7  C   UNL d   1      53.474  32.022  53.715  0.00  0.00     0.011 A 
ATOM      8  N   UNL d   1      54.827  33.727  55.315  0.00  0.00    -0.022 NA
ATOM      9  N   UNL d   1      54.373  34.365  55.101  0.00  0.00    -0.037 NA
ATOM     10  N   UNL d   1      54.574  33.033  54.916  0.00  0.00    -0.108 NA
ATOM     11  C   UNL d   1      52.860  31.911  53.165  0.00  0.00     0.031 A 
ATOM     12  C   UNL d   1      53.208  34.430  54.130  0.00  0.00     0.204 A 
ATOM     13  C   UNL d   1      53.810  31.273  53.800  0.00  0.00     0.001 A 
ATOM     14  C   UNL d   1      52.830  31.136  52.933  0.00  0.00     0.006 A 
ATOM     15  C   UNL d   1      53.413  30.746  53.324  0.00  0.00     0.001 A 
ENDROOT
TORSDOF 0
ENDMDL
MODEL 2
REMARK VINA RESULT:      -9.7      1.648      2.657
REMARK  0 active torsions:
REMARK  status: ('A' for Active; 'I' for Inactive)
ROOT
ATOM      1  C   UNL d   1      53.377  32.692  53.864  0.00  0.00     0.062 A 
ATOM      2  C   UNL d   1      52.856  33.292  53.633  0.00  0.00     0.116 A 
ATOM      3  C   UNL d   1      53.292  31.922  53.531  0.00  0.00     0.192 A 
ATOM      4  N   UNL d   1      52.682  31.788  52.976  0.00  0.00    -0.171 N 
ATOM      5  N   UNL d   1      52.260  33.138  53.082  0.00  0.00    -0.217 NA
ATOM      6  S   UNL d   1      53.102  33.956  54.064  0.00  0.00    -0.068 SA
ATOM      7  C   UNL d   1      53.911  32.970  54.404  0.00  0.00     0.011 A 
ATOM      8  N   UNL d   1      53.332  30.657  53.134  0.00  0.00    -0.022 NA
ATOM      9  N   UNL d   1      52.710  30.981  52.725  0.00  0.00    -0.037 NA
ATOM     10  N   UNL d   1      53.693  31.230  53.631  0.00  0.00    -0.108 NA
ATOM     11  C   UNL d   1      53.727  33.772  54.524  0.00  0.00     0.031 A 
ATOM     12  C   UNL d   1      52.175  32.401  52.761  0.00  0.00     0.204 A 
ATOM     13  C   UNL d   1      54.558  32.834  54.899  0.00  0.00     0.001 A 
ATOM     14  C   UNL d   1      54.237  34.099  55.061  0.00  0.00     0.006 A 
ATOM     15  C   UNL d   1      54.746  33.521  55.290  0.00  0.00     0.001 A 
ENDROOT
TORSDOF 0
ENDMDL
MODEL 3
REMARK VINA RESULT:      -9.4      0.998      2.062
REMARK  0 active torsions:
REMARK  status: ('A' for Active; 'I' for Inactive)
ROOT
ATOM      1  C   UNL d   1      53.177  33.458  53.851  0.00  0.00     0.062 A 
ATOM      2  C   UNL d   1      53.134  32.675  53.590  0.00  0.00     0.116 A 
ATOM      3  C   UNL d   1      53.771  33.676  54.408  0.00  0.00     0.192 A 
ATOM      4  N   UNL d   1      54.302  33.090  54.680  0.00  0.00    -0.171 N 
ATOM      5  N   UNL d   1      53.668  32.111  53.872  0.00  0.00    -0.217 NA
ATOM      6  S   UNL d   1      52.497  32.668  53.059  0.00  0.00    -0.068 SA
ATOM      7  C   UNL d   1      52.601  33.908  53.502  0.00  0.00     0.011 A 
ATOM      8  N   UNL d   1      54.619  34.220  55.269  0.00  0.00    -0.022 NA
ATOM      9  N   UNL d   1      54.840  33.440  55.229  0.00  0.00    -0.037 NA
ATOM     10  N   UNL d   1      53.963  34.371  54.768  0.00  0.00    -0.108 NA
ATOM     11  C   UNL d   1      52.176  33.396  53.002  0.00  0.00     0.031 A 
ATOM     12  C   UNL d   1      54.240  32.315  54.406  0.00  0.00     0.204 A 
ATOM     13  C   UNL d   1      52.231  34.640  53.406  0.00  0.00     0.001 A 
ATOM     14  C   UNL d   1      51.584  33.800  52.627  0.00  0.00     0.006 A 
ATOM     15  C   UNL d   1      51.619  34.563  52.876  0.00  0.00     0.001 A 
ENDROOT
TORSDOF 0
ENDMDL
MODEL 4
REMARK VINA RESULT:      -9.1      1.711      2.685
REMARK  0 active torsions:
REMARK  status: ('A' for Active; 'I' for Inactive)
ROOT
ATOM      1  C   UNL d   1      53.111  33.313  53.730  0.00  0.00     0.062 A 
ATOM      2  C   UNL d   1      53.262  32.548  53.454  0.00  0.00     0.116 A 
ATOM      3  C   UNL d   1      52.458  33.743  53.414  0.00  0.00     0.192 A 
ATOM      4  N   UNL d   1      51.982  33.382  52.830  0.00  0.00    -0.171 N 
ATOM      5  N   UNL d   1      52.779  32.209  52.876  0.00  0.00    -0.217 NA
ATOM      6  S   UNL d   1      53.930  32.303  53.879  0.00  0.00    -0.068 SA
ATOM      7  C   UNL d   1      53.653  33.527  54.291  0.00  0.00     0.011 A 
ATOM      8  N   UNL d   1      51.495  34.581  53.056  0.00  0.00    -0.022 NA
ATOM      9  N   UNL d   1      51.369  33.919  52.604  0.00  0.00    -0.037 NA
ATOM     10  N   UNL d   1      52.162  34.480  53.556  0.00  0.00    -0.108 NA
ATOM     11  C   UNL d   1      54.168  32.879  54.378  0.00  0.00     0.031 A 
ATOM     12  C   UNL d   1      52.152  32.618  52.571  0.00  0.00     0.204 A 
ATOM     13  C   UNL d   1      53.941  34.088  54.824  0.00  0.00     0.001 A 
ATOM     14  C   UNL d   1      54.733  33.044  54.933  0.00  0.00     0.006 A 
ATOM     15  C   UNL d   1      54.593  33.786  55.205  0.00  0.00     0.001 A 
ENDROOT
TORSDOF 0
ENDMDL
