MODEL 1
REMARK VINA RESULT:      11.6      0.000      0.000
REMARK  8 active torsions:
REMARK  status: ('A' for Active; 'I' for Inactive)
REMARK    1  A    between atoms: O_4  and  C_1 
REMARK    2  A    between atoms: C_15  and  C_2 
REMARK    3  A    between atoms: C_5  and  O_4 
REMARK    4  A    between atoms: C_7  and  C_5 
REMARK    5  A    between atoms: O_21  and  C_8 
REMARK    6  A    between atoms: O_22  and  C_10 
REMARK    7  A    between atoms: O_23  and  C_11 
REMARK    8  A    between atoms: N_16  and  C_15 
ROOT
ATOM      1  C   UNL d   1     -41.878-121.791 -51.957  0.00  0.00     0.122 A 
ATOM      2  C   UNL d   1     -41.883-122.016 -52.751  0.00  0.00     0.043 A 
ATOM      3  C   UNL d   1     -41.627-121.034 -51.745  0.00  0.00     0.105 A 
ATOM      4  C   UNL d   1     -41.382-120.503 -52.325  0.00  0.00     0.030 A 
ATOM      5  C   UNL d   1     -41.390-120.734 -53.112  0.00  0.00     0.059 A 
ATOM      6  C   UNL d   1     -41.637-121.485 -53.331  0.00  0.00     0.015 A 
ATOM      7  N   UNL d   1     -41.624-120.815 -50.957  0.00  0.00    -0.242 NA
ATOM      8 CL   UNL d   1     -41.136-120.179 -53.683  0.00  0.00    -0.082 Cl
ATOM      9  C   UNL d   1     -41.136-119.759 -52.112  0.00  0.00     0.004 A 
ATOM     10  C   UNL d   1     -41.374-120.059 -50.745  0.00  0.00     0.099 A 
ATOM     11  C   UNL d   1     -41.128-119.528 -51.325  0.00  0.00     0.021 A 
ENDROOT
BRANCH   1  12
ATOM     12  O   UNL d   1     -42.099-122.265 -51.423  0.00  0.00    -0.271 OA
BRANCH  12  13
ATOM     13  C   UNL d   1     -41.809-123.061 -50.964  0.00  0.00     0.300 C 
ATOM     14  O   UNL d   1     -41.126-123.600 -51.466  0.00  0.00    -0.259 OA
BRANCH  13  15
ATOM     15  C   UNL d   1     -42.110-123.263 -50.224  0.00  0.00     0.068 A 
ATOM     16  C   UNL d   1     -42.921-123.409 -50.128  0.00  0.00     0.032 A 
ATOM     17  C   UNL d   1     -43.230-123.613 -49.381  0.00  0.00     0.118 A 
ATOM     18  C   UNL d   1     -42.724-123.671 -48.727  0.00  0.00     0.138 A 
ATOM     19  C   UNL d   1     -41.907-123.523 -48.823  0.00  0.00     0.118 A 
ATOM     20  C   UNL d   1     -41.599-123.319 -49.570  0.00  0.00     0.032 A 
BRANCH  17  21
ATOM     21  O   UNL d   1     -44.134-123.718 -49.550  0.00  0.00    -0.326 OA
ATOM     22  C   UNL d   1     -44.176-123.472 -50.179  0.00  0.00     0.181 C 
ENDBRANCH  17  21
BRANCH  18  23
ATOM     23  O   UNL d   1     -42.914-123.815 -48.179  0.00  0.00    -0.324 OA
ATOM     24  C   UNL d   1     -43.520-123.588 -47.798  0.00  0.00     0.182 C 
ENDBRANCH  18  23
BRANCH  19  25
ATOM     25  O   UNL d   1     -41.322-123.557 -48.223  0.00  0.00    -0.326 OA
ATOM     26  C   UNL d   1     -41.123-122.738 -48.167  0.00  0.00     0.181 C 
ENDBRANCH  19  25
ENDBRANCH  13  15
ENDBRANCH  12  13
ENDBRANCH   1  12
BRANCH   2  27
ATOM     27  C   UNL d   1     -42.119-122.789 -53.169  0.00  0.00     0.082 C 
BRANCH  27  28
ATOM     28  N   UNL d   1     -42.276-122.780 -53.974  0.00  0.00    -0.299 N 
ATOM     29  C   UNL d   1     -41.710-123.043 -54.500  0.00  0.00     0.107 A 
ATOM     30  C   UNL d   1     -41.854-123.040 -55.315  0.00  0.00     0.142 A 
ATOM     31  O   UNL d   1     -42.574-122.770 -55.588  0.00  0.00    -0.300 OA
ATOM     32  C   UNL d   1     -43.151-122.502 -55.056  0.00  0.00     0.142 A 
ATOM     33  C   UNL d   1     -42.992-122.512 -54.253  0.00  0.00     0.107 A 
ENDBRANCH  27  28
ENDBRANCH   2  27
TORSDOF 8
ENDMDL
MODEL 2
REMARK VINA RESULT:      13.2      1.275      4.685
REMARK  8 active torsions:
REMARK  status: ('A' for Active; 'I' for Inactive)
REMARK    1  A    between atoms: O_4  and  C_1 
REMARK    2  A    between atoms: C_15  and  C_2 
REMARK    3  A    between atoms: C_5  and  O_4 
REMARK    4  A    between atoms: C_7  and  C_5 
REMARK    5  A    between atoms: O_21  and  C_8 
REMARK    6  A    between atoms: O_22  and  C_10 
REMARK    7  A    between atoms: O_23  and  C_11 
REMARK    8  A    between atoms: N_16  and  C_15 
ROOT
ATOM      1  C   UNL d   1     -41.850-122.189 -51.446  0.00  0.00     0.122 A 
ATOM      2  C   UNL d   1     -41.852-122.580 -50.720  0.00  0.00     0.043 A 
ATOM      3  C   UNL d   1     -41.608-121.401 -51.488  0.00  0.00     0.105 A 
ATOM      4  C   UNL d   1     -41.369-121.006 -50.806  0.00  0.00     0.030 A 
ATOM      5  C   UNL d   1     -41.375-121.402 -50.088  0.00  0.00     0.059 A 
ATOM      6  C   UNL d   1     -41.614-122.184 -50.037  0.00  0.00     0.015 A 
ATOM      7  N   UNL d   1     -41.607-121.017 -52.210  0.00  0.00    -0.242 NA
ATOM      8 CL   UNL d   1     -41.128-120.980 -49.410  0.00  0.00    -0.082 Cl
ATOM      9  C   UNL d   1     -41.131-120.230 -50.852  0.00  0.00     0.004 A 
ATOM     10  C   UNL d   1     -41.365-120.229 -52.253  0.00  0.00     0.099 A 
ATOM     11  C   UNL d   1     -41.126-119.834 -51.570  0.00  0.00     0.021 A 
ENDROOT
BRANCH   1  12
ATOM     12  O   UNL d   1     -42.064-122.538 -52.071  0.00  0.00    -0.271 OA
BRANCH  12  13
ATOM     13  C   UNL d   1     -41.698-123.012 -52.826  0.00  0.00     0.300 C 
ATOM     14  O   UNL d   1     -41.128-123.800 -52.579  0.00  0.00    -0.259 OA
BRANCH  13  15
ATOM     15  C   UNL d   1     -41.854-122.772 -53.598  0.00  0.00     0.068 A 
ATOM     16  C   UNL d   1     -42.429-122.193 -53.749  0.00  0.00     0.032 A 
ATOM     17  C   UNL d   1     -42.590-121.948 -54.529  0.00  0.00     0.118 A 
ATOM     18  C   UNL d   1     -42.172-122.284 -55.162  0.00  0.00     0.138 A 
ATOM     19  C   UNL d   1     -41.592-122.866 -55.011  0.00  0.00     0.118 A 
ATOM     20  C   UNL d   1     -41.432-123.111 -54.230  0.00  0.00     0.032 A 
BRANCH  17  21
ATOM     21  O   UNL d   1     -43.254-121.312 -54.416  0.00  0.00    -0.326 OA
ATOM     22  C   UNL d   1     -43.763-121.599 -54.756  0.00  0.00     0.181 C 
ENDBRANCH  17  21
BRANCH  18  23
ATOM     23  O   UNL d   1     -42.263-122.129 -55.732  0.00  0.00    -0.324 OA
ATOM     24  C   UNL d   1     -42.525-121.490 -56.028  0.00  0.00     0.182 C 
ENDBRANCH  18  23
BRANCH  19  25
ATOM     25  O   UNL d   1     -41.123-123.260 -55.583  0.00  0.00    -0.326 OA
ATOM     26  C   UNL d   1     -41.687-123.817 -55.877  0.00  0.00     0.181 C 
ENDBRANCH  19  25
ENDBRANCH  13  15
ENDBRANCH  12  13
ENDBRANCH   1  12
BRANCH   2  27
ATOM     27  C   UNL d   1     -42.081-123.427 -50.480  0.00  0.00     0.082 C 
BRANCH  27  28
ATOM     28  N   UNL d   1     -42.693-123.545 -49.946  0.00  0.00    -0.299 N 
ATOM     29  C   UNL d   1     -43.465-123.564 -50.213  0.00  0.00     0.107 A 
ATOM     30  C   UNL d   1     -44.092-123.682 -49.687  0.00  0.00     0.142 A 
ATOM     31  O   UNL d   1     -43.930-123.778 -48.894  0.00  0.00    -0.300 OA
ATOM     32  C   UNL d   1     -43.148-123.759 -48.619  0.00  0.00     0.142 A 
ATOM     33  C   UNL d   1     -42.538-123.642 -49.154  0.00  0.00     0.107 A 
ENDBRANCH  27  28
ENDBRANCH   2  27
TORSDOF 8
ENDMDL
