MODEL 1
REMARK VINA RESULT:      34.5      0.000      0.000
REMARK  3 active torsions:
REMARK  status: ('A' for Active; 'I' for Inactive)
REMARK    1  A    between atoms: C_8  and  N_2 
REMARK    2  A    between atoms: C_6  and  C_3 
REMARK    3  A    between atoms: C_7  and  C_4 
ROOT
ATOM      1  N   UNL d   1     -57.011 -99.943 -43.959  0.00  0.00    -0.159 NA
ATOM      2  N   UNL d   1     -56.239 -99.953 -44.269  0.00  0.00    -0.234 N 
ATOM      3  C   UNL d   1     -57.341 -99.227 -44.134  0.00  0.00     0.167 A 
ATOM      4  C   UNL d   1     -56.107 -99.237 -44.632  0.00  0.00     0.062 A 
ATOM      5  C   UNL d   1     -56.787 -98.779 -44.553  0.00  0.00     0.042 A 
ENDROOT
BRANCH   2   6
ATOM      6  C   UNL d   1     -55.732-100.599 -44.196  0.00  0.00     0.083 A 
ATOM      7  C   UNL d   1     -55.338-100.741 -43.493  0.00  0.00     0.019 A 
ATOM      8  C   UNL d   1     -54.837-101.383 -43.427  0.00  0.00     0.002 A 
ATOM      9  C   UNL d   1     -54.727-101.886 -44.059  0.00  0.00     0.000 A 
ATOM     10  C   UNL d   1     -55.121-101.745 -44.762  0.00  0.00     0.002 A 
ATOM     11  C   UNL d   1     -55.628-101.098 -44.834  0.00  0.00     0.019 A 
ENDBRANCH   2   6
BRANCH   4  12
ATOM     12  C   UNL d   1     -55.409 -98.997 -45.021  0.00  0.00     0.036 C 
ATOM     13  C   UNL d   1     -54.711 -98.757 -45.408  0.00  0.00     0.006 C 
ATOM     14  C   UNL d   1     -55.037 -98.889 -44.282  0.00  0.00     0.006 C 
ATOM     15  C   UNL d   1     -55.785 -99.106 -45.756  0.00  0.00     0.006 C 
ENDBRANCH   4  12
BRANCH   3  16
ATOM     16  C   UNL d   1     -58.106 -98.982 -43.929  0.00  0.00     0.231 C 
ATOM     17  O   UNL d   1     -58.698 -98.949 -44.503  0.00  0.00    -0.643 OA
ATOM     18  O   UNL d   1     -58.268 -98.773 -43.151  0.00  0.00    -0.643 OA
ENDBRANCH   3  16
TORSDOF 3
ENDMDL
