MODEL 1
REMARK VINA RESULT:      29.3      0.000      0.000
REMARK  4 active torsions:
REMARK  status: ('A' for Active; 'I' for Inactive)
REMARK    1  A    between atoms: N_10  and  C_3 
REMARK    2  A    between atoms: C_14  and  C_5 
REMARK    3  A    between atoms: C_15  and  C_9 
REMARK       I    between atoms: C_11  and  N_12 
REMARK    4  A    between atoms: C_13  and  C_11 
ROOT
ATOM      1  N   UNL d   1     -42.127-122.130 -51.507  0.00  0.00    -0.196 N 
ATOM      2  C   UNL d   1     -42.062-121.934 -50.678  0.00  0.00     0.167 A 
ATOM      3  C   UNL d   1     -41.943-121.555 -52.059  0.00  0.00     0.152 A 
ATOM      4  N   UNL d   1     -42.552-123.451 -51.149  0.00  0.00    -0.163 NA
ATOM      5  C   UNL d   1     -42.242-122.495 -50.102  0.00  0.00     0.055 A 
ATOM      6  N   UNL d   1     -41.817-121.175 -50.447  0.00  0.00    -0.231 NA
ATOM      7  C   UNL d   1     -41.700-120.803 -51.840  0.00  0.00     0.052 A 
ATOM      8  C   UNL d   1     -42.488-123.259 -50.337  0.00  0.00     0.104 A 
ATOM      9  C   UNL d   1     -41.637-120.610 -51.024  0.00  0.00     0.063 A 
ATOM     10  C   UNL d   1     -42.667-123.817 -49.767  0.00  0.00     0.023 C 
ENDROOT
BRANCH   3  11
ATOM     11  N   UNL d   1     -42.007-121.750 -52.902  0.00  0.00    -0.286 N 
ATOM     12  C   UNL d   1     -42.469-121.468 -53.517  0.00  0.00     0.101 A 
ATOM     13  C   UNL d   1     -42.395-121.779 -54.276  0.00  0.00     0.102 A 
ATOM     14  N   UNL d   1     -41.850-122.378 -54.414  0.00  0.00    -0.267 N 
ATOM     15  C   UNL d   1     -41.765-122.696 -55.163  0.00  0.00     0.288 C 
ATOM     16  C   UNL d   1     -41.388-122.661 -53.804  0.00  0.00     0.102 A 
ATOM     17  O   UNL d   1     -41.221-123.296 -55.305  0.00  0.00    -0.264 OA
ATOM     18  C   UNL d   1     -41.469-122.344 -53.046  0.00  0.00     0.101 A 
BRANCH  15  19
ATOM     19  C   UNL d   1     -42.227-122.415 -55.777  0.00  0.00     0.156 A 
ATOM     20  O   UNL d   1     -43.019-122.637 -55.826  0.00  0.00    -0.300 OA
ATOM     21  C   UNL d   1     -43.481-122.355 -56.441  0.00  0.00     0.123 A 
ATOM     22  C   UNL d   1     -43.166-121.860 -57.000  0.00  0.00     0.029 A 
ATOM     23  C   UNL d   1     -41.912-121.920 -56.336  0.00  0.00     0.032 A 
ENDBRANCH  15  19
ENDBRANCH   3  11
BRANCH   9  24
ATOM     24  C   UNL d   1     -41.378-119.811 -50.785  0.00  0.00     0.036 C 
ATOM     25  C   UNL d   1     -41.123-119.016 -50.553  0.00  0.00     0.006 C 
ATOM     26  C   UNL d   1     -41.201-119.638 -49.952  0.00  0.00     0.006 C 
ATOM     27  C   UNL d   1     -41.299-119.187 -51.384  0.00  0.00     0.006 C 
ENDBRANCH   9  24
BRANCH   5  28
ATOM     28  C   UNL d   1     -42.179-122.305 -49.299  0.00  0.00     0.004 A 
ATOM     29  C   UNL d   1     -41.470-122.423 -48.902  0.00  0.00     0.001 A 
ATOM     30  C   UNL d   1     -41.407-122.231 -48.089  0.00  0.00     0.011 A 
ATOM     31  C   UNL d   1     -42.053-121.925 -47.686  0.00  0.00     0.058 A 
ATOM     32  C   UNL d   1     -42.775-121.806 -48.096  0.00  0.00     0.011 A 
ATOM     33 CL   UNL d   1     -41.987-121.726 -46.844  0.00  0.00    -0.082 Cl
ATOM     34  C   UNL d   1     -42.838-121.995 -48.896  0.00  0.00     0.001 A 
ENDBRANCH   5  28
TORSDOF 4
ENDMDL
