MODEL 1
REMARK VINA RESULT:      -4.9      0.000      0.000
REMARK  6 active torsions:
REMARK  status: ('A' for Active; 'I' for Inactive)
REMARK    1  A    between atoms: C_3  and  C_1 
REMARK    2  A    between atoms: C_2  and  C_4 
REMARK    3  A    between atoms: C_9  and  C_3 
REMARK    4  A    between atoms: C_4  and  C_10 
REMARK    5  A    between atoms: C_17  and  C_9 
REMARK    6  A    between atoms: C_10  and  C_17 
ROOT
ATOM      1  C   UNL d   1     -41.370-122.488 -51.268  0.00  0.00     0.006 C 
ATOM      2  C   UNL d   1     -41.183-121.668 -51.168  0.00  0.00     0.000 C 
ENDROOT
BRANCH   1   3
ATOM      3  C   UNL d   1     -41.481-122.942 -50.590  0.00  0.00     0.043 C 
BRANCH   3   4
ATOM      4  C   UNL d   1     -42.158-122.881 -50.134  0.00  0.00     0.202 C 
ATOM      5  O   UNL d   1     -42.829-122.453 -50.397  0.00  0.00    -0.286 OA
BRANCH   4   6
ATOM      6  C   UNL d   1     -42.197-123.245 -49.394  0.00  0.00     0.068 A 
ATOM      7  S   UNL d   1     -42.912-123.447 -49.029  0.00  0.00    -0.083 SA
ATOM      8  C   UNL d   1     -42.761-123.796 -48.305  0.00  0.00     0.035 A 
ATOM      9  C   UNL d   1     -41.935-123.816 -48.210  0.00  0.00     0.008 A 
ATOM     10  C   UNL d   1     -41.601-123.478 -48.878  0.00  0.00     0.010 A 
ENDBRANCH   4   6
ENDBRANCH   3   4
ENDBRANCH   1   3
BRANCH   1  11
ATOM     11  C   UNL d   1     -41.441-122.824 -52.014  0.00  0.00     0.043 C 
BRANCH  11  12
ATOM     12  C   UNL d   1     -41.320-122.347 -52.709  0.00  0.00     0.202 C 
ATOM     13  O   UNL d   1     -41.123-121.557 -52.633  0.00  0.00    -0.286 OA
BRANCH  12  14
ATOM     14  C   UNL d   1     -41.405-122.696 -53.468  0.00  0.00     0.068 A 
ATOM     15  S   UNL d   1     -41.773-122.335 -54.144  0.00  0.00    -0.083 SA
ATOM     16  C   UNL d   1     -41.736-122.869 -54.765  0.00  0.00     0.035 A 
ATOM     17  C   UNL d   1     -41.353-123.557 -54.494  0.00  0.00     0.008 A 
ATOM     18  C   UNL d   1     -41.156-123.450 -53.714  0.00  0.00     0.010 A 
ENDBRANCH  12  14
ENDBRANCH  11  12
ENDBRANCH   1  11
TORSDOF 6
ENDMDL
MODEL 2
REMARK VINA RESULT:      -4.7      0.320      4.381
REMARK  6 active torsions:
REMARK  status: ('A' for Active; 'I' for Inactive)
REMARK    1  A    between atoms: C_3  and  C_1 
REMARK    2  A    between atoms: C_2  and  C_4 
REMARK    3  A    between atoms: C_9  and  C_3 
REMARK    4  A    between atoms: C_4  and  C_10 
REMARK    5  A    between atoms: C_17  and  C_9 
REMARK    6  A    between atoms: C_10  and  C_17 
ROOT
ATOM      1  C   UNL d   1     -41.437-122.409 -51.479  0.00  0.00     0.006 C 
ATOM      2  C   UNL d   1     -41.591-121.577 -51.520  0.00  0.00     0.000 C 
ENDROOT
BRANCH   1   3
ATOM      3  C   UNL d   1     -41.254-122.802 -52.180  0.00  0.00     0.043 C 
BRANCH   3   4
ATOM      4  C   UNL d   1     -41.280-122.425 -52.906  0.00  0.00     0.202 C 
ATOM      5  O   UNL d   1     -41.277-121.588 -52.968  0.00  0.00    -0.286 OA
BRANCH   4   6
ATOM      6  C   UNL d   1     -41.309-122.864 -53.604  0.00  0.00     0.068 A 
ATOM      7  S   UNL d   1     -41.554-122.544 -54.327  0.00  0.00    -0.083 SA
ATOM      8  C   UNL d   1     -41.519-123.120 -54.907  0.00  0.00     0.035 A 
ATOM      9  C   UNL d   1     -41.248-123.817 -54.544  0.00  0.00     0.008 A 
ATOM     10  C   UNL d   1     -41.123-123.650 -53.751  0.00  0.00     0.010 A 
ENDBRANCH   4   6
ENDBRANCH   3   4
ENDBRANCH   1   3
BRANCH   1  11
ATOM     11  C   UNL d   1     -41.466-122.816 -50.766  0.00  0.00     0.043 C 
BRANCH  11  12
ATOM     12  C   UNL d   1     -42.116-122.688 -50.230  0.00  0.00     0.202 C 
ATOM     13  O   UNL d   1     -42.755-122.236 -50.464  0.00  0.00    -0.286 OA
BRANCH  12  14
ATOM     14  C   UNL d   1     -42.090-123.030 -49.464  0.00  0.00     0.068 A 
ATOM     15  S   UNL d   1     -42.736-123.070 -48.914  0.00  0.00    -0.083 SA
ATOM     16  C   UNL d   1     -42.467-123.447 -48.237  0.00  0.00     0.035 A 
ATOM     17  C   UNL d   1     -41.667-123.645 -48.350  0.00  0.00     0.008 A 
ATOM     18  C   UNL d   1     -41.443-123.392 -49.088  0.00  0.00     0.010 A 
ENDBRANCH  12  14
ENDBRANCH  11  12
ENDBRANCH   1  11
TORSDOF 6
ENDMDL
MODEL 3
REMARK VINA RESULT:      -2.5      1.402      2.188
REMARK  6 active torsions:
REMARK  status: ('A' for Active; 'I' for Inactive)
REMARK    1  A    between atoms: C_3  and  C_1 
REMARK    2  A    between atoms: C_2  and  C_4 
REMARK    3  A    between atoms: C_9  and  C_3 
REMARK    4  A    between atoms: C_4  and  C_10 
REMARK    5  A    between atoms: C_17  and  C_9 
REMARK    6  A    between atoms: C_10  and  C_17 
ROOT
ATOM      1  C   UNL d   1     -41.230-122.994 -53.107  0.00  0.00     0.006 C 
ATOM      2  C   UNL d   1     -41.125-123.817 -53.282  0.00  0.00     0.000 C 
ENDROOT
BRANCH   1   3
ATOM      3  C   UNL d   1     -41.166-122.757 -52.321  0.00  0.00     0.043 C 
BRANCH   3   4
ATOM      4  C   UNL d   1     -41.607-123.107 -51.726  0.00  0.00     0.202 C 
ATOM      5  O   UNL d   1     -42.092-123.776 -51.872  0.00  0.00    -0.286 OA
BRANCH   4   6
ATOM      6  C   UNL d   1     -41.585-122.806 -50.958  0.00  0.00     0.068 A 
ATOM      7  S   UNL d   1     -41.210-123.198 -50.332  0.00  0.00    -0.083 SA
ATOM      8  C   UNL d   1     -41.287-122.757 -49.648  0.00  0.00     0.035 A 
ATOM      9  C   UNL d   1     -41.720-122.073 -49.844  0.00  0.00     0.008 A 
ATOM     10  C   UNL d   1     -41.895-122.114 -50.644  0.00  0.00     0.010 A 
ENDBRANCH   4   6
ENDBRANCH   3   4
ENDBRANCH   1   3
BRANCH   1  11
ATOM     11  C   UNL d   1     -41.391-122.447 -53.698  0.00  0.00     0.043 C 
BRANCH  11  12
ATOM     12  C   UNL d   1     -41.620-122.714 -54.474  0.00  0.00     0.202 C 
ATOM     13  O   UNL d   1     -41.477-123.486 -54.699  0.00  0.00    -0.286 OA
BRANCH  12  14
ATOM     14  C   UNL d   1     -41.993-122.176 -55.000  0.00  0.00     0.068 A 
ATOM     15  S   UNL d   1     -41.754-122.015 -55.799  0.00  0.00    -0.083 SA
ATOM     16  C   UNL d   1     -42.269-121.457 -56.108  0.00  0.00     0.035 A 
ATOM     17  C   UNL d   1     -42.826-121.264 -55.521  0.00  0.00     0.008 A 
ATOM     18  C   UNL d   1     -42.657-121.698 -54.856  0.00  0.00     0.010 A 
ENDBRANCH  12  14
ENDBRANCH  11  12
ENDBRANCH   1  11
TORSDOF 6
ENDMDL
