MODEL 1
REMARK VINA RESULT:      42.2      0.000      0.000
REMARK  3 active torsions:
REMARK  status: ('A' for Active; 'I' for Inactive)
REMARK    1  A    between atoms: C_8  and  C_1 
REMARK    2  A    between atoms: O_13  and  C_6 
REMARK    3  A    between atoms: C_17  and  O_13 
ROOT
ATOM      1  C   UNL d   1      59.576  49.599  50.315  0.00  0.00     0.009 A 
ATOM      2  C   UNL d   1      59.909  49.626  51.073  0.00  0.00     0.046 A 
ATOM      3  C   UNL d   1      60.734  49.598  51.159  0.00  0.00     0.105 A 
ATOM      4  O   UNL d   1      61.215  49.545  50.494  0.00  0.00    -0.273 OA
ATOM      5  C   UNL d   1      60.055  49.545  49.649  0.00  0.00     0.069 A 
ATOM      6  C   UNL d   1      59.430  49.680  51.739  0.00  0.00     0.102 A 
ATOM      7  C   UNL d   1      60.875  49.518  49.735  0.00  0.00     0.300 A 
ATOM      8  C   UNL d   1      61.071  49.625  51.909  0.00  0.00     0.025 A 
ATOM      9  C   UNL d   1      59.764  49.706  52.492  0.00  0.00     0.025 A 
ATOM     10  O   UNL d   1      61.361  49.463  49.066  0.00  0.00    -0.259 OA
ATOM     11  C   UNL d   1      60.584  49.679  52.578  0.00  0.00     0.004 A 
ATOM     12  C   UNL d   1      60.926  49.706  53.325  0.00  0.00     0.000 C 
ENDROOT
BRANCH   1  13
ATOM     13  C   UNL d   1      58.752  49.626  50.229  0.00  0.00     0.000 A 
ATOM     14  C   UNL d   1      58.416  49.615  49.471  0.00  0.00     0.000 A 
ATOM     15  C   UNL d   1      57.583  49.643  49.384  0.00  0.00     0.000 A 
ATOM     16  C   UNL d   1      57.101  49.681  50.049  0.00  0.00     0.000 A 
ATOM     17  C   UNL d   1      57.449  49.691  50.810  0.00  0.00     0.000 A 
ATOM     18  C   UNL d   1      58.269  49.664  50.896  0.00  0.00     0.000 A 
ENDBRANCH   1  13
BRANCH   6  19
ATOM     19  O   UNL d   1      58.606  49.707  51.653  0.00  0.00    -0.305 OA
BRANCH  19  20
ATOM     20  C   UNL d   1      58.120  49.550  52.289  0.00  0.00     0.123 C 
ATOM     21  C   UNL d   1      57.306  49.635  52.209  0.00  0.00     0.029 C 
ENDBRANCH  19  20
ENDBRANCH   6  19
TORSDOF 3
ENDMDL
