MODEL 1
REMARK VINA RESULT:      -9.0      0.000      0.000
REMARK  3 active torsions:
REMARK  status: ('A' for Active; 'I' for Inactive)
REMARK    1  A    between atoms: C_15  and  N_1 
REMARK       I    between atoms: C_6  and  N_7 
REMARK    2  A    between atoms: C_11  and  C_6 
REMARK    3  A    between atoms: N_7  and  C_8 
ROOT
ATOM      1  N   UNL d   1     -46.111  12.928  22.796  0.00  0.00    -0.273 N 
ATOM      2  C   UNL d   1     -46.361  11.960  23.177  0.00  0.00     0.265 A 
ATOM      3  C   UNL d   1     -46.832  13.324  22.814  0.00  0.00     0.067 A 
ATOM      4  C   UNL d   1     -47.389  12.794  23.111  0.00  0.00     0.022 A 
ATOM      5  C   UNL d   1     -47.162  12.048  23.316  0.00  0.00     0.058 A 
ATOM      6  C   UNL d   1     -48.391  13.794  22.982  0.00  0.00     0.084 A 
ATOM      7  C   UNL d   1     -48.169  13.029  23.195  0.00  0.00     0.019 A 
ATOM      8  C   UNL d   1     -47.053  14.090  22.600  0.00  0.00     0.019 A 
ATOM      9  O   UNL d   1     -45.981  11.247  23.340  0.00  0.00    -0.267 OA
ATOM     10  C   UNL d   1     -47.833  14.325  22.685  0.00  0.00     0.021 A 
ATOM     11  C   UNL d   1     -47.719  11.517  23.614  0.00  0.00     0.005 A 
ATOM     12  C   UNL d   1     -48.721  12.517  23.485  0.00  0.00     0.002 A 
ATOM     13  C   UNL d   1     -48.499  11.752  23.698  0.00  0.00     0.000 A 
ENDROOT
BRANCH   6  14
ATOM     14  N   UNL d   1     -49.170  14.028  23.066  0.00  0.00    -0.212 NA
ATOM     15  C   UNL d   1     -49.386  14.804  22.888  0.00  0.00     0.255 C 
ATOM     16  O   UNL d   1     -48.826  15.326  22.632  0.00  0.00    -0.270 OA
BRANCH  15  17
ATOM     17  C   UNL d   1     -50.165  15.039  22.973  0.00  0.00     0.073 C 
ATOM     18  C   UNL d   1     -50.385  15.506  23.616  0.00  0.00     0.009 C 
ATOM     19  C   UNL d   1     -50.726  14.807  22.414  0.00  0.00     0.009 C 
ATOM     20  C   UNL d   1     -51.061  15.304  23.062  0.00  0.00     0.009 C 
ENDBRANCH  15  17
ENDBRANCH   6  14
BRANCH   1  21
ATOM     21  C   UNL d   1     -45.439  13.341  22.515  0.00  0.00     0.083 C 
ATOM     22  C   UNL d   1     -44.841  12.931  22.174  0.00  0.00     0.021 C 
ENDBRANCH   1  21
TORSDOF 3
ENDMDL
MODEL 2
REMARK VINA RESULT:      -8.5      1.418      4.058
REMARK  3 active torsions:
REMARK  status: ('A' for Active; 'I' for Inactive)
REMARK    1  A    between atoms: C_15  and  N_1 
REMARK       I    between atoms: C_6  and  N_7 
REMARK    2  A    between atoms: C_11  and  C_6 
REMARK    3  A    between atoms: N_7  and  C_8 
ROOT
ATOM      1  N   UNL d   1     -49.689  14.920  22.822  0.00  0.00    -0.273 N 
ATOM      2  C   UNL d   1     -50.276  14.260  22.218  0.00  0.00     0.265 A 
ATOM      3  C   UNL d   1     -48.929  14.614  22.743  0.00  0.00     0.067 A 
ATOM      4  C   UNL d   1     -48.986  13.960  22.244  0.00  0.00     0.022 A 
ATOM      5  C   UNL d   1     -49.703  13.745  21.945  0.00  0.00     0.058 A 
ATOM      6  C   UNL d   1     -47.584  13.760  22.368  0.00  0.00     0.084 A 
ATOM      7  C   UNL d   1     -48.313  13.532  22.057  0.00  0.00     0.019 A 
ATOM      8  C   UNL d   1     -48.200  14.843  23.054  0.00  0.00     0.019 A 
ATOM      9  O   UNL d   1     -51.064  14.169  21.996  0.00  0.00    -0.267 OA
ATOM     10  C   UNL d   1     -47.527  14.416  22.867  0.00  0.00     0.021 A 
ATOM     11  C   UNL d   1     -49.759  13.090  21.447  0.00  0.00     0.005 A 
ATOM     12  C   UNL d   1     -48.358  12.891  21.571  0.00  0.00     0.002 A 
ATOM     13  C   UNL d   1     -49.086  12.663  21.259  0.00  0.00     0.000 A 
ENDROOT
BRANCH   6  14
ATOM     14  N   UNL d   1     -46.911  13.334  22.181  0.00  0.00    -0.212 NA
ATOM     15  C   UNL d   1     -46.218  13.450  22.614  0.00  0.00     0.255 C 
ATOM     16  O   UNL d   1     -46.210  13.985  23.218  0.00  0.00    -0.270 OA
BRANCH  15  17
ATOM     17  C   UNL d   1     -45.546  13.024  22.427  0.00  0.00     0.073 C 
ATOM     18  C   UNL d   1     -45.366  12.337  22.847  0.00  0.00     0.009 C 
ATOM     19  C   UNL d   1     -45.052  13.283  21.819  0.00  0.00     0.009 C 
ATOM     20  C   UNL d   1     -44.772  12.540  22.205  0.00  0.00     0.009 C 
ENDBRANCH  15  17
ENDBRANCH   6  14
BRANCH   1  21
ATOM     21  C   UNL d   1     -49.795  15.596  23.305  0.00  0.00     0.083 C 
ATOM     22  C   UNL d   1     -50.528  15.773  23.576  0.00  0.00     0.021 C 
ENDBRANCH   1  21
TORSDOF 3
ENDMDL
MODEL 3
REMARK VINA RESULT:      -8.4      1.421      4.687
REMARK  3 active torsions:
REMARK  status: ('A' for Active; 'I' for Inactive)
REMARK    1  A    between atoms: C_15  and  N_1 
REMARK       I    between atoms: C_6  and  N_7 
REMARK    2  A    between atoms: C_11  and  C_6 
REMARK    3  A    between atoms: N_7  and  C_8 
ROOT
ATOM      1  N   UNL d   1     -48.605  12.699  23.407  0.00  0.00    -0.273 N 
ATOM      2  C   UNL d   1     -48.362  13.661  23.007  0.00  0.00     0.265 A 
ATOM      3  C   UNL d   1     -47.873  12.325  23.443  0.00  0.00     0.067 A 
ATOM      4  C   UNL d   1     -47.316  12.862  23.159  0.00  0.00     0.022 A 
ATOM      5  C   UNL d   1     -47.552  13.594  22.916  0.00  0.00     0.058 A 
ATOM      6  C   UNL d   1     -46.294  11.898  23.377  0.00  0.00     0.084 A 
ATOM      7  C   UNL d   1     -46.526  12.649  23.126  0.00  0.00     0.019 A 
ATOM      8  C   UNL d   1     -47.642  11.573  23.694  0.00  0.00     0.019 A 
ATOM      9  O   UNL d   1     -48.753  14.356  22.800  0.00  0.00    -0.267 OA
ATOM     10  C   UNL d   1     -46.852  11.360  23.661  0.00  0.00     0.021 A 
ATOM     11  C   UNL d   1     -46.995  14.131  22.632  0.00  0.00     0.005 A 
ATOM     12  C   UNL d   1     -45.973  13.167  22.850  0.00  0.00     0.002 A 
ATOM     13  C   UNL d   1     -46.205  13.918  22.599  0.00  0.00     0.000 A 
ENDROOT
BRANCH   6  14
ATOM     14  N   UNL d   1     -45.505  11.685  23.344  0.00  0.00    -0.212 NA
ATOM     15  C   UNL d   1     -45.291  10.892  23.418  0.00  0.00     0.255 C 
ATOM     16  O   UNL d   1     -45.863  10.332  23.523  0.00  0.00    -0.270 OA
BRANCH  15  17
ATOM     17  C   UNL d   1     -44.502  10.678  23.385  0.00  0.00     0.073 C 
ATOM     18  C   UNL d   1     -44.260   9.954  23.696  0.00  0.00     0.009 C 
ATOM     19  C   UNL d   1     -43.954  11.189  23.041  0.00  0.00     0.009 C 
ATOM     20  C   UNL d   1     -43.595  10.441  23.343  0.00  0.00     0.009 C 
ENDBRANCH  15  17
ENDBRANCH   6  14
BRANCH   1  21
ATOM     21  C   UNL d   1     -49.279  12.274  23.664  0.00  0.00     0.083 C 
ATOM     22  C   UNL d   1     -49.979  12.385  23.290  0.00  0.00     0.021 C 
ENDBRANCH   1  21
TORSDOF 3
ENDMDL
MODEL 4
REMARK VINA RESULT:      -8.4      1.362      4.226
REMARK  3 active torsions:
REMARK  status: ('A' for Active; 'I' for Inactive)
REMARK    1  A    between atoms: C_15  and  N_1 
REMARK       I    between atoms: C_6  and  N_7 
REMARK    2  A    between atoms: C_11  and  C_6 
REMARK    3  A    between atoms: N_7  and  C_8 
ROOT
ATOM      1  N   UNL d   1     -47.974  13.952  22.835  0.00  0.00    -0.273 N 
ATOM      2  C   UNL d   1     -48.856  13.380  23.031  0.00  0.00     0.265 A 
ATOM      3  C   UNL d   1     -47.370  13.415  22.988  0.00  0.00     0.067 A 
ATOM      4  C   UNL d   1     -47.729  12.708  23.214  0.00  0.00     0.022 A 
ATOM      5  C   UNL d   1     -48.533  12.660  23.246  0.00  0.00     0.058 A 
ATOM      6  C   UNL d   1     -46.445  12.119  23.367  0.00  0.00     0.084 A 
ATOM      7  C   UNL d   1     -47.266  12.060  23.404  0.00  0.00     0.019 A 
ATOM      8  C   UNL d   1     -46.547  13.475  22.952  0.00  0.00     0.019 A 
ATOM      9  O   UNL d   1     -49.673  13.487  23.016  0.00  0.00    -0.267 OA
ATOM     10  C   UNL d   1     -46.084  12.826  23.141  0.00  0.00     0.021 A 
ATOM     11  C   UNL d   1     -48.893  11.953  23.472  0.00  0.00     0.005 A 
ATOM     12  C   UNL d   1     -47.609  11.364  23.626  0.00  0.00     0.002 A 
ATOM     13  C   UNL d   1     -48.430  11.305  23.662  0.00  0.00     0.000 A 
ENDROOT
BRANCH   6  14
ATOM     14  N   UNL d   1     -45.983  11.471  23.557  0.00  0.00    -0.212 NA
ATOM     15  C   UNL d   1     -45.211  11.419  23.269  0.00  0.00     0.255 C 
ATOM     16  O   UNL d   1     -44.919  12.009  22.802  0.00  0.00    -0.270 OA
BRANCH  15  17
ATOM     17  C   UNL d   1     -44.749  10.772  23.459  0.00  0.00     0.073 C 
ATOM     18  C   UNL d   1     -43.927  10.826  23.411  0.00  0.00     0.009 C 
ATOM     19  C   UNL d   1     -45.108  10.068  23.697  0.00  0.00     0.009 C 
ATOM     20  C   UNL d   1     -44.226  10.023  23.678  0.00  0.00     0.009 C 
ENDBRANCH  15  17
ENDBRANCH   6  14
BRANCH   1  21
ATOM     21  C   UNL d   1     -47.764  14.725  22.592  0.00  0.00     0.083 C 
ATOM     22  C   UNL d   1     -48.340  15.271  22.481  0.00  0.00     0.021 C 
ENDBRANCH   1  21
TORSDOF 3
ENDMDL
MODEL 5
REMARK VINA RESULT:      -6.3      8.690      9.762
REMARK  3 active torsions:
REMARK  status: ('A' for Active; 'I' for Inactive)
REMARK    1  A    between atoms: C_15  and  N_1 
REMARK       I    between atoms: C_6  and  N_7 
REMARK    2  A    between atoms: C_11  and  C_6 
REMARK    3  A    between atoms: N_7  and  C_8 
ROOT
ATOM      1  N   UNL d   1     -40.506  15.348  17.526  0.00  0.00    -0.273 N 
ATOM      2  C   UNL d   1     -39.878  14.680  16.974  0.00  0.00     0.265 A 
ATOM      3  C   UNL d   1     -40.290  15.200  18.306  0.00  0.00     0.067 A 
ATOM      4  C   UNL d   1     -39.705  14.619  18.286  0.00  0.00     0.022 A 
ATOM      5  C   UNL d   1     -39.462  14.319  17.578  0.00  0.00     0.058 A 
ATOM      6  C   UNL d   1     -39.630  14.665  19.705  0.00  0.00     0.084 A 
ATOM      7  C   UNL d   1     -39.375  14.351  18.986  0.00  0.00     0.019 A 
ATOM      8  C   UNL d   1     -40.546  15.514  19.025  0.00  0.00     0.019 A 
ATOM      9  O   UNL d   1     -39.739  14.476  16.188  0.00  0.00    -0.267 OA
ATOM     10  C   UNL d   1     -40.216  15.246  19.725  0.00  0.00     0.021 A 
ATOM     11  C   UNL d   1     -38.877  13.738  17.559  0.00  0.00     0.005 A 
ATOM     12  C   UNL d   1     -38.802  13.783  18.978  0.00  0.00     0.002 A 
ATOM     13  C   UNL d   1     -38.547  13.470  18.259  0.00  0.00     0.000 A 
ENDROOT
BRANCH   6  14
ATOM     14  N   UNL d   1     -39.300  14.397  20.404  0.00  0.00    -0.212 NA
ATOM     15  C   UNL d   1     -39.648  14.599  21.125  0.00  0.00     0.255 C 
ATOM     16  O   UNL d   1     -40.311  15.059  21.134  0.00  0.00    -0.270 OA
BRANCH  15  17
ATOM     17  C   UNL d   1     -39.318  14.331  21.824  0.00  0.00     0.073 C 
ATOM     18  C   UNL d   1     -38.739  14.781  22.202  0.00  0.00     0.009 C 
ATOM     19  C   UNL d   1     -39.567  13.614  22.147  0.00  0.00     0.009 C 
ATOM     20  C   UNL d   1     -38.945  14.017  22.626  0.00  0.00     0.009 C 
ENDBRANCH  15  17
ENDBRANCH   6  14
BRANCH   1  21
ATOM     21  C   UNL d   1     -41.097  15.922  17.381  0.00  0.00     0.083 C 
ATOM     22  C   UNL d   1     -41.480  15.922  16.677  0.00  0.00     0.021 C 
ENDBRANCH   1  21
TORSDOF 3
ENDMDL
