MODEL 1
REMARK VINA RESULT:      -2.9      0.000      0.000
REMARK  0 active torsions:
REMARK  status: ('A' for Active; 'I' for Inactive)
ROOT
ATOM      1  N   UNL d   1      30.885  17.133 -24.356  0.00  0.00    -0.248 N 
ATOM      2  C   UNL d   1      31.289  16.617 -23.872  0.00  0.00     0.208 A 
ATOM      3  C   UNL d   1      30.036  17.103 -24.403  0.00  0.00     0.268 A 
ATOM      4  C   UNL d   1      29.638  16.566 -23.969  0.00  0.00     0.074 A 
ATOM      5  N   UNL d   1      30.851  16.061 -23.425  0.00  0.00    -0.218 NA
ATOM      6  C   UNL d   1      30.045  16.046 -23.482  0.00  0.00     0.088 A 
ATOM      7  S   UNL d   1      32.123  16.632 -23.812  0.00  0.00    -0.038 SA
ATOM      8  O   UNL d   1      29.625  17.629 -24.896  0.00  0.00    -0.267 OA
ATOM      9  C   UNL d   1      31.295  17.713 -24.825  0.00  0.00     0.104 C 
ATOM     10  C   UNL d   1      28.804  16.530 -24.010  0.00  0.00     0.006 A 
ATOM     11  C   UNL d   1      29.617  15.475 -23.021  0.00  0.00     0.019 A 
ATOM     12  C   UNL d   1      28.386  15.975 -23.563  0.00  0.00     0.000 A 
ATOM     13  C   UNL d   1      28.795  15.453 -23.073  0.00  0.00     0.002 A 
ENDROOT
TORSDOF 0
ENDMDL
MODEL 2
REMARK VINA RESULT:      -2.7      1.471      2.761
REMARK  0 active torsions:
REMARK  status: ('A' for Active; 'I' for Inactive)
ROOT
ATOM      1  N   UNL d   1      29.687  16.623 -24.294  0.00  0.00    -0.248 N 
ATOM      2  C   UNL d   1      29.763  17.332 -24.688  0.00  0.00     0.208 A 
ATOM      3  C   UNL d   1      30.353  16.287 -23.883  0.00  0.00     0.268 A 
ATOM      4  C   UNL d   1      31.051  16.671 -23.888  0.00  0.00     0.074 A 
ATOM      5  N   UNL d   1      30.506  17.718 -24.679  0.00  0.00    -0.218 NA
ATOM      6  C   UNL d   1      31.127  17.384 -24.284  0.00  0.00     0.088 A 
ATOM      7  S   UNL d   1      29.121  17.678 -25.097  0.00  0.00    -0.038 SA
ATOM      8  O   UNL d   1      30.276  15.565 -23.482  0.00  0.00    -0.267 OA
ATOM      9  C   UNL d   1      28.949  16.201 -24.280  0.00  0.00     0.104 C 
ATOM     10  C   UNL d   1      31.709  16.346 -23.487  0.00  0.00     0.006 A 
ATOM     11  C   UNL d   1      31.873  17.791 -24.286  0.00  0.00     0.019 A 
ATOM     12  C   UNL d   1      32.435  16.739 -23.487  0.00  0.00     0.000 A 
ATOM     13  C   UNL d   1      32.512  17.457 -23.886  0.00  0.00     0.002 A 
ENDROOT
TORSDOF 0
ENDMDL
MODEL 3
REMARK VINA RESULT:      -2.7      1.094      2.428
REMARK  0 active torsions:
REMARK  status: ('A' for Active; 'I' for Inactive)
ROOT
ATOM      1  N   UNL d   1      29.575  16.570 -24.109  0.00  0.00    -0.248 N 
ATOM      2  C   UNL d   1      29.879  16.024 -23.585  0.00  0.00     0.208 A 
ATOM      3  C   UNL d   1      30.086  17.144 -24.475  0.00  0.00     0.268 A 
ATOM      4  C   UNL d   1      30.863  17.144 -24.302  0.00  0.00     0.074 A 
ATOM      5  N   UNL d   1      30.699  16.043 -23.418  0.00  0.00    -0.218 NA
ATOM      6  C   UNL d   1      31.169  16.595 -23.776  0.00  0.00     0.088 A 
ATOM      7  S   UNL d   1      29.393  15.453 -23.216  0.00  0.00    -0.038 SA
ATOM      8  O   UNL d   1      29.776  17.699 -25.008  0.00  0.00    -0.267 OA
ATOM      9  C   UNL d   1      28.747  16.583 -24.304  0.00  0.00     0.104 C 
ATOM     10  C   UNL d   1      31.371  17.705 -24.658  0.00  0.00     0.006 A 
ATOM     11  C   UNL d   1      31.998  16.598 -23.594  0.00  0.00     0.019 A 
ATOM     12  C   UNL d   1      32.178  17.710 -24.483  0.00  0.00     0.000 A 
ATOM     13  C   UNL d   1      32.485  17.158 -23.953  0.00  0.00     0.002 A 
ENDROOT
TORSDOF 0
ENDMDL
MODEL 4
REMARK VINA RESULT:      -2.6      6.043      6.838
REMARK  0 active torsions:
REMARK  status: ('A' for Active; 'I' for Inactive)
ROOT
ATOM      1  N   UNL d   1      32.427  22.999 -21.178  0.00  0.00    -0.248 N 
ATOM      2  C   UNL d   1      32.551  23.001 -21.983  0.00  0.00     0.208 A 
ATOM      3  C   UNL d   1      32.539  22.286 -20.728  0.00  0.00     0.268 A 
ATOM      4  C   UNL d   1      32.767  21.619 -21.100  0.00  0.00     0.074 A 
ATOM      5  N   UNL d   1      32.790  22.289 -22.354  0.00  0.00    -0.218 NA
ATOM      6  C   UNL d   1      32.892  21.621 -21.911  0.00  0.00     0.088 A 
ATOM      7  S   UNL d   1      32.446  23.693 -22.442  0.00  0.00    -0.038 SA
ATOM      8  O   UNL d   1      32.413  22.284 -19.908  0.00  0.00    -0.267 OA
ATOM      9  C   UNL d   1      32.184  23.702 -20.765  0.00  0.00     0.104 C 
ATOM     10  C   UNL d   1      32.879  20.914 -20.665  0.00  0.00     0.006 A 
ATOM     11  C   UNL d   1      33.134  20.908 -22.304  0.00  0.00     0.019 A 
ATOM     12  C   UNL d   1      33.114  20.220 -21.045  0.00  0.00     0.000 A 
ATOM     13  C   UNL d   1      33.240  20.222 -21.860  0.00  0.00     0.002 A 
ENDROOT
TORSDOF 0
ENDMDL
MODEL 5
REMARK VINA RESULT:      -2.6      1.171      1.804
REMARK  0 active torsions:
REMARK  status: ('A' for Active; 'I' for Inactive)
ROOT
ATOM      1  N   UNL d   1      31.564  16.661 -23.753  0.00  0.00    -0.248 N 
ATOM      2  C   UNL d   1      31.699  17.337 -24.187  0.00  0.00     0.208 A 
ATOM      3  C   UNL d   1      30.772  16.365 -23.654  0.00  0.00     0.268 A 
ATOM      4  C   UNL d   1      30.163  16.755 -23.989  0.00  0.00     0.074 A 
ATOM      5  N   UNL d   1      31.044  17.731 -24.530  0.00  0.00    -0.218 NA
ATOM      6  C   UNL d   1      30.299  17.435 -24.426  0.00  0.00     0.088 A 
ATOM      7  S   UNL d   1      32.470  17.643 -24.295  0.00  0.00    -0.038 SA
ATOM      8  O   UNL d   1      30.634  15.676 -23.212  0.00  0.00    -0.267 OA
ATOM      9  C   UNL d   1      32.202  16.233 -23.388  0.00  0.00     0.104 C 
ATOM     10  C   UNL d   1      29.382  16.470 -23.896  0.00  0.00     0.006 A 
ATOM     11  C   UNL d   1      29.648  17.848 -24.781  0.00  0.00     0.019 A 
ATOM     12  C   UNL d   1      28.747  16.870 -24.241  0.00  0.00     0.000 A 
ATOM     13  C   UNL d   1      28.884  17.555 -24.680  0.00  0.00     0.002 A 
ENDROOT
TORSDOF 0
ENDMDL
MODEL 6
REMARK VINA RESULT:      -2.4      1.513      1.872
REMARK  0 active torsions:
REMARK  status: ('A' for Active; 'I' for Inactive)
ROOT
ATOM      1  N   UNL d   1      32.304  18.121 -23.972  0.00  0.00    -0.248 N 
ATOM      2  C   UNL d   1      32.595  17.706 -23.334  0.00  0.00     0.208 A 
ATOM      3  C   UNL d   1      31.658  17.808 -24.430  0.00  0.00     0.268 A 
ATOM      4  C   UNL d   1      31.340  17.106 -24.230  0.00  0.00     0.074 A 
ATOM      5  N   UNL d   1      32.245  16.970 -23.142  0.00  0.00    -0.218 NA
ATOM      6  C   UNL d   1      31.633  16.688 -23.588  0.00  0.00     0.088 A 
ATOM      7  S   UNL d   1      33.228  17.997 -22.872  0.00  0.00    -0.038 SA
ATOM      8  O   UNL d   1      31.362  18.231 -25.080  0.00  0.00    -0.267 OA
ATOM      9  C   UNL d   1      32.633  18.872 -24.199  0.00  0.00     0.104 C 
ATOM     10  C   UNL d   1      30.706  16.792 -24.675  0.00  0.00     0.006 A 
ATOM     11  C   UNL d   1      31.291  15.939 -23.378  0.00  0.00     0.019 A 
ATOM     12  C   UNL d   1      30.372  16.064 -24.473  0.00  0.00     0.000 A 
ATOM     13  C   UNL d   1      30.666  15.644 -23.827  0.00  0.00     0.002 A 
ENDROOT
TORSDOF 0
ENDMDL
MODEL 7
REMARK VINA RESULT:      -2.3      6.081      6.942
REMARK  0 active torsions:
REMARK  status: ('A' for Active; 'I' for Inactive)
ROOT
ATOM      1  N   UNL d   1      33.119  21.236 -21.982  0.00  0.00    -0.248 N 
ATOM      2  C   UNL d   1      33.108  20.817 -21.284  0.00  0.00     0.208 A 
ATOM      3  C   UNL d   1      33.009  22.080 -21.979  0.00  0.00     0.268 A 
ATOM      4  C   UNL d   1      32.894  22.457 -21.287  0.00  0.00     0.074 A 
ATOM      5  N   UNL d   1      32.986  21.234 -20.568  0.00  0.00    -0.218 NA
ATOM      6  C   UNL d   1      32.883  22.035 -20.583  0.00  0.00     0.088 A 
ATOM      7  S   UNL d   1      33.214  19.987 -21.267  0.00  0.00    -0.038 SA
ATOM      8  O   UNL d   1      33.020  22.506 -22.690  0.00  0.00    -0.267 OA
ATOM      9  C   UNL d   1      33.240  20.848 -22.730  0.00  0.00     0.104 C 
ATOM     10  C   UNL d   1      32.785  23.286 -21.275  0.00  0.00     0.006 A 
ATOM     11  C   UNL d   1      32.761  22.441 -19.847  0.00  0.00     0.019 A 
ATOM     12  C   UNL d   1      32.666  23.683 -20.561  0.00  0.00     0.000 A 
ATOM     13  C   UNL d   1      32.655  23.259 -19.853  0.00  0.00     0.002 A 
ENDROOT
TORSDOF 0
ENDMDL
MODEL 8
REMARK VINA RESULT:      -2.2      4.378      5.048
REMARK  0 active torsions:
REMARK  status: ('A' for Active; 'I' for Inactive)
ROOT
ATOM      1  N   UNL d   1      33.233  20.950 -22.230  0.00  0.00    -0.248 N 
ATOM      2  C   UNL d   1      33.234  20.478 -21.566  0.00  0.00     0.208 A 
ATOM      3  C   UNL d   1      33.233  20.600 -23.006  0.00  0.00     0.268 A 
ATOM      4  C   UNL d   1      33.236  19.807 -23.078  0.00  0.00     0.074 A 
ATOM      5  N   UNL d   1      33.237  19.647 -21.666  0.00  0.00    -0.218 NA
ATOM      6  C   UNL d   1      33.238  19.332 -22.410  0.00  0.00     0.088 A 
ATOM      7  S   UNL d   1      33.234  20.804 -20.796  0.00  0.00    -0.038 SA
ATOM      8  O   UNL d   1      33.231  21.081 -23.682  0.00  0.00    -0.267 OA
ATOM      9  C   UNL d   1      33.230  21.799 -22.170  0.00  0.00     0.104 C 
ATOM     10  C   UNL d   1      33.236  19.456 -23.837  0.00  0.00     0.006 A 
ATOM     11  C   UNL d   1      33.240  18.486 -22.491  0.00  0.00     0.019 A 
ATOM     12  C   UNL d   1      33.239  18.634 -23.919  0.00  0.00     0.000 A 
ATOM     13  C   UNL d   1      33.241  18.156 -23.246  0.00  0.00     0.002 A 
ENDROOT
TORSDOF 0
ENDMDL
MODEL 9
REMARK VINA RESULT:      -2.0      5.076      5.881
REMARK  0 active torsions:
REMARK  status: ('A' for Active; 'I' for Inactive)
ROOT
ATOM      1  N   UNL d   1      33.234  21.167 -21.082  0.00  0.00    -0.248 N 
ATOM      2  C   UNL d   1      33.230  21.728 -21.673  0.00  0.00     0.208 A 
ATOM      3  C   UNL d   1      33.237  20.339 -21.276  0.00  0.00     0.268 A 
ATOM      4  C   UNL d   1      33.237  20.116 -22.041  0.00  0.00     0.074 A 
ATOM      5  N   UNL d   1      33.229  21.471 -22.470  0.00  0.00    -0.218 NA
ATOM      6  C   UNL d   1      33.233  20.680 -22.636  0.00  0.00     0.088 A 
ATOM      7  S   UNL d   1      33.226  22.547 -21.502  0.00  0.00    -0.038 SA
ATOM      8  O   UNL d   1      33.241  19.768 -20.674  0.00  0.00    -0.267 OA
ATOM      9  C   UNL d   1      33.234  21.390 -20.261  0.00  0.00     0.104 C 
ATOM     10  C   UNL d   1      33.240  19.303 -22.239  0.00  0.00     0.006 A 
ATOM     11  C   UNL d   1      33.232  20.437 -23.450  0.00  0.00     0.019 A 
ATOM     12  C   UNL d   1      33.240  19.065 -23.030  0.00  0.00     0.000 A 
ATOM     13  C   UNL d   1      33.236  19.633 -23.629  0.00  0.00     0.002 A 
ENDROOT
TORSDOF 0
ENDMDL
