MODEL 1
REMARK VINA RESULT:      51.3      0.000      0.000
REMARK  6 active torsions:
REMARK  status: ('A' for Active; 'I' for Inactive)
REMARK    1  A    between atoms: C_14  and  N_1 
REMARK    2  A    between atoms: S_12  and  C_3 
REMARK    3  A    between atoms: C_4  and  N_11 
REMARK    4  A    between atoms: C_15  and  C_8 
REMARK       I    between atoms: N_11  and  C_13 
REMARK    5  A    between atoms: C_17  and  S_12 
REMARK    6  A    between atoms: C_13  and  C_17 
ROOT
ATOM      1  N   UNL d   1      13.506  13.187  -3.323  0.00  0.00    -0.018 NA
ATOM      2  C   UNL d   1      13.638  12.377  -3.412  0.00  0.00     0.302 C 
ATOM      3  O   UNL d   1      13.787  12.061  -4.145  0.00  0.00    -0.264 OA
ENDROOT
BRANCH   2   4
ATOM      4  C   UNL d   1      13.619  11.888  -2.752  0.00  0.00     0.101 C 
BRANCH   4   5
ATOM      5  S   UNL d   1      13.994  12.116  -2.055  0.00  0.00    -0.041 SA
BRANCH   5   6
ATOM      6  C   UNL d   1      13.601  12.062  -1.336  0.00  0.00     0.219 A 
ATOM      7  N   UNL d   1      13.971  12.327  -0.636  0.00  0.00    -0.186 N 
ATOM      8  N   UNL d   1      13.456  12.207  -0.014  0.00  0.00    -0.038 NA
ATOM      9  N   UNL d   1      12.770  11.870  -0.313  0.00  0.00    -0.022 NA
ATOM     10  N   UNL d   1      12.856  11.779  -1.132  0.00  0.00    -0.101 NA
BRANCH   7  11
ATOM     11  C   UNL d   1      14.726  12.658  -0.554  0.00  0.00     0.087 A 
ATOM     12  C   UNL d   1      15.396  12.205  -0.698  0.00  0.00     0.019 A 
ATOM     13  C   UNL d   1      16.148  12.538  -0.615  0.00  0.00     0.002 A 
ATOM     14  C   UNL d   1      16.226  13.327  -0.388  0.00  0.00     0.000 A 
ATOM     15  C   UNL d   1      15.545  13.785  -0.242  0.00  0.00     0.002 A 
ATOM     16  C   UNL d   1      14.796  13.441  -0.328  0.00  0.00     0.019 A 
ENDBRANCH   7  11
ENDBRANCH   5   6
ENDBRANCH   4   5
ENDBRANCH   2   4
BRANCH   1  17
ATOM     17  C   UNL d   1      13.524  13.688  -3.989  0.00  0.00     0.760 A 
ATOM     18  N   UNL d   1      13.673  14.507  -3.993  0.00  0.00    -0.051 NA
ATOM     19  C   UNL d   1      13.633  14.763  -4.775  0.00  0.00     0.147 A 
ATOM     20  S   UNL d   1      13.464  14.118  -5.244  0.00  0.00     0.052 SA
ATOM     21  N   UNL d   1      13.398  13.460  -4.756  0.00  0.00    -0.019 NA
BRANCH  19  22
ATOM     22  C   UNL d   1      13.734  15.516  -5.114  0.00  0.00     0.026 A 
ATOM     23  C   UNL d   1      14.492  15.826  -5.219  0.00  0.00     0.002 A 
ATOM     24  C   UNL d   1      14.585  16.574  -5.556  0.00  0.00     0.000 A 
ATOM     25  C   UNL d   1      13.937  17.002  -5.783  0.00  0.00     0.000 A 
ATOM     26  C   UNL d   1      13.168  16.699  -5.682  0.00  0.00     0.000 A 
ATOM     27  C   UNL d   1      13.074  15.950  -5.345  0.00  0.00     0.002 A 
ENDBRANCH  19  22
ENDBRANCH   1  17
TORSDOF 6
ENDMDL
