MODEL 1
REMARK VINA RESULT:      65.7      0.000      0.000
REMARK  4 active torsions:
REMARK  status: ('A' for Active; 'I' for Inactive)
REMARK    1  A    between atoms: C_6  and  C_1 
REMARK    2  A    between atoms: C_13  and  C_2 
REMARK    3  A    between atoms: P_4  and  C_3 
REMARK    4  A    between atoms: C_17  and  C_13 
ROOT
ATOM      1  C   UNL d   1      57.734  39.127  54.788  0.00  0.00     0.112 A 
ATOM      2  C   UNL d   1      58.340  39.380  55.279  0.00  0.00     0.052 A 
ATOM      3  N   UNL d   1      57.836  38.315  54.655  0.00  0.00    -0.217 NA
ATOM      4  C   UNL d   1      58.510  38.071  55.068  0.00  0.00     0.215 A 
ATOM      5  S   UNL d   1      58.819  38.727  55.451  0.00  0.00    -0.045 SA
ATOM      6  N   UNL d   1      58.824  37.293  55.092  0.00  0.00    -0.120 N 
ENDROOT
BRANCH   1   7
ATOM      7  C   UNL d   1      57.140  39.624  54.496  0.00  0.00     0.119 A 
ATOM      8  O   UNL d   1      57.154  39.949  53.739  0.00  0.00    -0.297 OA
ATOM      9  C   UNL d   1      56.476  40.411  53.645  0.00  0.00     0.191 A 
ATOM     10  C   UNL d   1      56.044  40.371  54.345  0.00  0.00     0.036 A 
ATOM     11  C   UNL d   1      56.454  39.886  54.869  0.00  0.00     0.029 A 
BRANCH   9  12
ATOM     12  P   UNL d   1      56.262  40.843  52.970  0.00  0.00     0.321 P 
ATOM     13  O   UNL d   1      56.458  40.190  52.495  0.00  0.00    -0.635 OA
ATOM     14  O   UNL d   1      56.067  41.492  53.447  0.00  0.00    -0.635 OA
ATOM     15  O   UNL d   1      56.047  41.276  52.298  0.00  0.00    -0.635 OA
ENDBRANCH   9  12
ENDBRANCH   1   7
BRANCH   2  16
ATOM     16  C   UNL d   1      58.451  40.152  55.552  0.00  0.00     0.008 C 
BRANCH  16  17
ATOM     17  C   UNL d   1      59.144  40.353  55.951  0.00  0.00     0.001 C 
ATOM     18  C   UNL d   1      59.784  39.817  55.974  0.00  0.00     0.000 C 
ATOM     19  C   UNL d   1      59.205  41.085  56.328  0.00  0.00     0.000 C 
ENDBRANCH  16  17
ENDBRANCH   2  16
TORSDOF 4
ENDMDL
MODEL 2
REMARK VINA RESULT:      67.2      2.319      3.477
REMARK  4 active torsions:
REMARK  status: ('A' for Active; 'I' for Inactive)
REMARK    1  A    between atoms: C_6  and  C_1 
REMARK    2  A    between atoms: C_13  and  C_2 
REMARK    3  A    between atoms: P_4  and  C_3 
REMARK    4  A    between atoms: C_17  and  C_13 
ROOT
ATOM      1  C   UNL d   1      57.075  39.919  54.235  0.00  0.00     0.112 A 
ATOM      2  C   UNL d   1      56.453  40.422  54.412  0.00  0.00     0.052 A 
ATOM      3  N   UNL d   1      57.055  39.765  53.420  0.00  0.00    -0.217 NA
ATOM      4  C   UNL d   1      56.414  40.177  53.099  0.00  0.00     0.215 A 
ATOM      5  S   UNL d   1      56.045  40.580  53.710  0.00  0.00    -0.045 SA
ATOM      6  N   UNL d   1      56.181  40.183  52.292  0.00  0.00    -0.120 N 
ENDROOT
BRANCH   1   7
ATOM      7  C   UNL d   1      57.612  39.635  54.797  0.00  0.00     0.119 A 
ATOM      8  O   UNL d   1      58.357  39.966  54.920  0.00  0.00    -0.297 OA
ATOM      9  C   UNL d   1      58.732  39.540  55.520  0.00  0.00     0.191 A 
ATOM     10  C   UNL d   1      58.217  38.946  55.767  0.00  0.00     0.036 A 
ATOM     11  C   UNL d   1      57.528  39.005  55.322  0.00  0.00     0.029 A 
BRANCH   9  12
ATOM     12  P   UNL d   1      59.491  39.680  55.825  0.00  0.00     0.321 P 
ATOM     13  O   UNL d   1      59.544  40.370  55.367  0.00  0.00    -0.635 OA
ATOM     14  O   UNL d   1      59.434  38.990  56.281  0.00  0.00    -0.635 OA
ATOM     15  O   UNL d   1      60.248  39.816  56.132  0.00  0.00    -0.635 OA
ENDBRANCH   9  12
ENDBRANCH   1   7
BRANCH   2  16
ATOM     16  C   UNL d   1      56.267  40.717  55.161  0.00  0.00     0.008 C 
BRANCH  16  17
ATOM     17  C   UNL d   1      56.129  41.524  55.265  0.00  0.00     0.001 C 
ATOM     18  C   UNL d   1      56.076  42.028  54.601  0.00  0.00     0.000 C 
ATOM     19  C   UNL d   1      56.043  41.832  56.025  0.00  0.00     0.000 C 
ENDBRANCH  16  17
ENDBRANCH   2  16
TORSDOF 4
ENDMDL
MODEL 3
REMARK VINA RESULT:      67.3      9.061      9.598
REMARK  4 active torsions:
REMARK  status: ('A' for Active; 'I' for Inactive)
REMARK    1  A    between atoms: C_6  and  C_1 
REMARK    2  A    between atoms: C_13  and  C_2 
REMARK    3  A    between atoms: P_4  and  C_3 
REMARK    4  A    between atoms: C_17  and  C_13 
ROOT
ATOM      1  C   UNL d   1      61.588  47.240  50.119  0.00  0.00     0.112 A 
ATOM      2  C   UNL d   1      61.328  46.501  50.359  0.00  0.00     0.052 A 
ATOM      3  N   UNL d   1      62.201  47.130  49.572  0.00  0.00    -0.217 NA
ATOM      4  C   UNL d   1      62.316  46.316  49.478  0.00  0.00     0.215 A 
ATOM      5  S   UNL d   1      61.778  45.931  49.963  0.00  0.00    -0.045 SA
ATOM      6  N   UNL d   1      62.881  45.948  48.978  0.00  0.00    -0.120 N 
ENDROOT
BRANCH   1   7
ATOM      7  C   UNL d   1      61.269  47.952  50.396  0.00  0.00     0.119 A 
ATOM      8  O   UNL d   1      61.205  48.138  51.196  0.00  0.00    -0.297 OA
ATOM      9  C   UNL d   1      60.864  48.887  51.259  0.00  0.00     0.191 A 
ATOM     10  C   UNL d   1      60.718  49.164  50.497  0.00  0.00     0.036 A 
ATOM     11  C   UNL d   1      60.968  48.587  49.966  0.00  0.00     0.029 A 
BRANCH   9  12
ATOM     12  P   UNL d   1      60.694  49.296  51.962  0.00  0.00     0.321 P 
ATOM     13  O   UNL d   1      61.490  49.228  52.188  0.00  0.00    -0.635 OA
ATOM     14  O   UNL d   1      59.901  49.362  51.731  0.00  0.00    -0.635 OA
ATOM     15  O   UNL d   1      60.522  49.704  52.661  0.00  0.00    -0.635 OA
ENDBRANCH   9  12
ENDBRANCH   1   7
BRANCH   2  16
ATOM     16  C   UNL d   1      60.721  46.353  50.901  0.00  0.00     0.008 C 
BRANCH  16  17
ATOM     17  C   UNL d   1      60.575  45.583  51.157  0.00  0.00     0.001 C 
ATOM     18  C   UNL d   1      60.928  45.301  51.860  0.00  0.00     0.000 C 
ATOM     19  C   UNL d   1      60.079  45.091  50.718  0.00  0.00     0.000 C 
ENDBRANCH  16  17
ENDBRANCH   2  16
TORSDOF 4
ENDMDL
