MODEL 1
REMARK VINA RESULT:      74.9      0.000      0.000
REMARK  7 active torsions:
REMARK  status: ('A' for Active; 'I' for Inactive)
REMARK    1  A    between atoms: N_2  and  S_1 
REMARK    2  A    between atoms: C_6  and  S_1 
REMARK    3  A    between atoms: C_16  and  C_3 
REMARK       I    between atoms: C_4  and  N_10 
REMARK    4  A    between atoms: C_5  and  C_4 
REMARK       I    between atoms: N_11  and  C_5 
REMARK    5  A    between atoms: N_10  and  C_16 
REMARK    6  A    between atoms: C_26  and  N_11 
REMARK    7  A    between atoms: C_25  and  C_26 
ROOT
ATOM      1  C   UNL d   1     -49.918  26.841  34.066  0.00  0.00     0.337 C 
ATOM      2  N   UNL d   1     -49.511  26.951  34.767  0.00  0.00    -0.199 NA
ATOM      3  O   UNL d   1     -50.309  27.469  33.703  0.00  0.00    -0.260 OA
ENDROOT
BRANCH   2   4
ATOM      4  C   UNL d   1     -49.491  27.695  35.114  0.00  0.00     0.146 C 
BRANCH   4   5
ATOM      5  C   UNL d   1     -49.524  27.777  35.933  0.00  0.00     0.197 A 
ATOM      6  N   UNL d   1     -49.150  28.354  36.372  0.00  0.00    -0.207 N 
ATOM      7  C   UNL d   1     -49.337  28.222  37.167  0.00  0.00     0.120 A 
ATOM      8  C   UNL d   1     -49.831  27.557  37.214  0.00  0.00     0.144 A 
ATOM      9  O   UNL d   1     -49.946  27.280  36.435  0.00  0.00    -0.285 OA
BRANCH   6  10
ATOM     10  S   UNL d   1     -48.675  28.956  36.083  0.00  0.00     0.273 S 
ATOM     11  O   UNL d   1     -48.367  28.446  35.521  0.00  0.00    -0.200 OA
ATOM     12  O   UNL d   1     -48.981  29.468  36.645  0.00  0.00    -0.200 OA
BRANCH  10  13
ATOM     13  C   UNL d   1     -48.199  29.559  35.795  0.00  0.00     0.104 A 
ATOM     14  C   UNL d   1     -48.350  29.883  35.039  0.00  0.00     0.013 A 
ATOM     15  C   UNL d   1     -47.874  30.486  34.751  0.00  0.00     0.007 A 
ATOM     16  C   UNL d   1     -47.243  30.775  35.210  0.00  0.00     0.035 A 
ATOM     17  C   UNL d   1     -47.099  30.451  35.956  0.00  0.00     0.007 A 
ATOM     18 BR   UNL d   1     -46.764  31.379  34.923  0.00  0.00    -0.049 Br
ATOM     19  C   UNL d   1     -47.574  29.848  36.244  0.00  0.00     0.013 A 
ENDBRANCH  10  13
ENDBRANCH   6  10
ENDBRANCH   4   5
ENDBRANCH   2   4
BRANCH   1  20
ATOM     20  C   UNL d   1     -49.938  26.096  33.718  0.00  0.00     0.337 C 
ATOM     21  N   UNL d   1     -50.656  25.704  33.659  0.00  0.00    -0.202 NA
ATOM     22  O   UNL d   1     -49.247  25.755  33.437  0.00  0.00    -0.260 OA
BRANCH  21  23
ATOM     23  C   UNL d   1     -50.681  24.948  33.307  0.00  0.00     0.102 C 
BRANCH  23  24
ATOM     24  C   UNL d   1     -51.349  24.470  33.398  0.00  0.00     0.021 A 
ATOM     25  C   UNL d   1     -52.095  24.809  33.352  0.00  0.00     0.028 A 
ATOM     26  C   UNL d   1     -52.765  24.326  33.444  0.00  0.00     0.119 A 
ATOM     27  O   UNL d   1     -53.570  24.507  33.425  0.00  0.00    -0.300 OA
ATOM     28  C   UNL d   1     -52.682  23.514  33.581  0.00  0.00     0.119 A 
ATOM     29  C   UNL d   1     -53.989  23.793  33.553  0.00  0.00     0.304 A 
ATOM     30  O   UNL d   1     -53.428  23.195  33.646  0.00  0.00    -0.300 OA
ATOM     31  C   UNL d   1     -51.926  23.189  33.625  0.00  0.00     0.026 A 
ATOM     32  C   UNL d   1     -51.261  23.660  33.535  0.00  0.00     0.004 A 
ENDBRANCH  23  24
ENDBRANCH  21  23
ENDBRANCH   1  20
TORSDOF 7
ENDMDL
