MODEL 1
REMARK VINA RESULT:      43.7      0.000      0.000
REMARK  5 active torsions:
REMARK  status: ('A' for Active; 'I' for Inactive)
REMARK    1  A    between atoms: C_7  and  C_3 
REMARK    2  A    between atoms: C_8  and  C_7 
REMARK       I    between atoms: N_14  and  C_8 
REMARK    3  A    between atoms: N_9  and  C_16 
REMARK    4  A    between atoms: C_15  and  N_14 
REMARK    5  A    between atoms: C_16  and  C_15 
ROOT
ATOM      1  C   UNL d   1     -55.694-100.808 -44.356  0.00  0.00     0.281 C 
ATOM      2  O   UNL d   1     -55.963-101.375 -44.890  0.00  0.00    -0.265 OA
ATOM      3  N   UNL d   1     -55.387-101.040 -43.628  0.00  0.00    -0.205 NA
ENDROOT
BRANCH   1   4
ATOM      4  C   UNL d   1     -55.732-100.009 -44.549  0.00  0.00     0.082 C 
BRANCH   4   5
ATOM      5  C   UNL d   1     -56.462 -99.620 -44.562  0.00  0.00     0.096 A 
ATOM      6  C   UNL d   1     -56.861 -99.471 -43.856  0.00  0.00     0.082 A 
ATOM      7  C   UNL d   1     -57.594 -99.082 -43.856  0.00  0.00     0.285 A 
ATOM      8  N   UNL d   1     -57.912 -98.849 -44.581  0.00  0.00    -0.152 NA
ATOM      9  O   UNL d   1     -57.990 -98.935 -43.157  0.00  0.00    -0.265 OA
ATOM     10  C   UNL d   1     -57.513 -98.998 -45.288  0.00  0.00     0.371 A 
ATOM     11  N   UNL d   1     -56.792 -99.382 -45.276  0.00  0.00    -0.191 NA
ATOM     12  O   UNL d   1     -57.843 -98.759 -46.006  0.00  0.00    -0.242 OA
ENDBRANCH   4   5
ENDBRANCH   1   4
BRANCH   3  13
ATOM     13  C   UNL d   1     -55.349-101.839 -43.434  0.00  0.00     0.121 C 
BRANCH  13  14
ATOM     14  C   UNL d   1     -54.716-102.129 -42.981  0.00  0.00     0.101 C 
BRANCH  14  15
ATOM     15  N   UNL d   1     -54.716-102.063 -42.163  0.00  0.00    -0.298 N 
ATOM     16  C   UNL d   1     -54.713-101.308 -41.831  0.00  0.00     0.107 A 
ATOM     17  C   UNL d   1     -54.712-101.235 -41.001  0.00  0.00     0.142 A 
ATOM     18  O   UNL d   1     -54.715-101.904 -40.527  0.00  0.00    -0.300 OA
ATOM     19  C   UNL d   1     -54.718-102.651 -40.879  0.00  0.00     0.142 A 
ATOM     20  C   UNL d   1     -54.718-102.727 -41.696  0.00  0.00     0.107 A 
ENDBRANCH  14  15
ENDBRANCH  13  14
ENDBRANCH   3  13
TORSDOF 5
ENDMDL
MODEL 2
REMARK VINA RESULT:      43.8      2.330      3.719
REMARK  5 active torsions:
REMARK  status: ('A' for Active; 'I' for Inactive)
REMARK    1  A    between atoms: C_7  and  C_3 
REMARK    2  A    between atoms: C_8  and  C_7 
REMARK       I    between atoms: N_14  and  C_8 
REMARK    3  A    between atoms: N_9  and  C_16 
REMARK    4  A    between atoms: C_15  and  N_14 
REMARK    5  A    between atoms: C_16  and  C_15 
ROOT
ATOM      1  C   UNL d   1     -58.606 -98.988 -44.229  0.00  0.00     0.281 C 
ATOM      2  O   UNL d   1     -58.691 -99.452 -43.552  0.00  0.00    -0.265 OA
ATOM      3  N   UNL d   1     -57.856 -98.755 -44.477  0.00  0.00    -0.205 NA
ENDROOT
BRANCH   1   4
ATOM      4  C   UNL d   1     -59.269 -98.759 -44.658  0.00  0.00     0.082 C 
BRANCH   4   5
ATOM      5  C   UNL d   1     -59.485 -99.173 -45.340  0.00  0.00     0.096 A 
ATOM      6  C   UNL d   1     -59.608 -98.765 -46.047  0.00  0.00     0.082 A 
ATOM      7  C   UNL d   1     -59.825 -99.170 -46.739  0.00  0.00     0.285 A 
ATOM      8  N   UNL d   1     -59.915 -99.990 -46.700  0.00  0.00    -0.152 NA
ATOM      9  O   UNL d   1     -59.946 -98.766 -47.439  0.00  0.00    -0.265 OA
ATOM     10  C   UNL d   1     -59.793-100.397 -45.993  0.00  0.00     0.371 A 
ATOM     11  N   UNL d   1     -59.579 -99.989 -45.318  0.00  0.00    -0.191 NA
ATOM     12  O   UNL d   1     -59.886-101.218 -45.969  0.00  0.00    -0.242 OA
ENDBRANCH   4   5
ENDBRANCH   1   4
BRANCH   3  13
ATOM     13  C   UNL d   1     -57.192 -98.985 -44.048  0.00  0.00     0.121 C 
BRANCH  13  14
ATOM     14  C   UNL d   1     -56.431 -98.835 -44.344  0.00  0.00     0.101 C 
BRANCH  14  15
ATOM     15  N   UNL d   1     -55.918 -99.449 -44.526  0.00  0.00    -0.298 N 
ATOM     16  C   UNL d   1     -56.132-100.215 -44.306  0.00  0.00     0.107 A 
ATOM     17  C   UNL d   1     -55.615-100.843 -44.487  0.00  0.00     0.142 A 
ATOM     18  O   UNL d   1     -54.908-100.697 -44.876  0.00  0.00    -0.300 OA
ATOM     19  C   UNL d   1     -54.712 -99.924 -45.087  0.00  0.00     0.142 A 
ATOM     20  C   UNL d   1     -55.219 -99.303 -44.910  0.00  0.00     0.107 A 
ENDBRANCH  14  15
ENDBRANCH  13  14
ENDBRANCH   3  13
TORSDOF 5
ENDMDL
