MODEL 1
REMARK VINA RESULT:      -4.5      0.000      0.000
REMARK  3 active torsions:
REMARK  status: ('A' for Active; 'I' for Inactive)
REMARK    1  A    between atoms: C_3  and  C_1 
REMARK    2  A    between atoms: C_5  and  C_3 
REMARK    3  A    between atoms: C_10  and  C_5 
ROOT
ATOM      1  C   UNL d   1     -41.924-122.332 -50.473  0.00  0.00     0.109 C 
ATOM      2  C   UNL d   1     -42.583-121.970 -50.812  0.00  0.00     0.105 C 
ATOM      3  N   UNL d   1     -43.243-121.610 -51.145  0.00  0.00    -0.191 NA
ENDROOT
BRANCH   1   4
ATOM      4  C   UNL d   1     -41.982-122.665 -49.720  0.00  0.00     0.192 A 
ATOM      5  N   UNL d   1     -42.681-122.949 -49.364  0.00  0.00    -0.220 NA
ATOM      6  C   UNL d   1     -42.485-123.231 -48.617  0.00  0.00     0.106 A 
ATOM      7  C   UNL d   1     -42.948-123.575 -48.018  0.00  0.00     0.021 A 
ATOM      8  C   UNL d   1     -41.674-123.126 -48.504  0.00  0.00     0.119 A 
ATOM      9  C   UNL d   1     -42.591-123.810 -47.309  0.00  0.00     0.002 A 
ATOM     10  C   UNL d   1     -41.781-123.707 -47.192  0.00  0.00     0.002 A 
ATOM     11  C   UNL d   1     -41.319-123.367 -47.783  0.00  0.00     0.026 A 
ATOM     12  O   UNL d   1     -41.366-122.777 -49.185  0.00  0.00    -0.287 OA
ENDBRANCH   1   4
BRANCH   1  13
ATOM     13  C   UNL d   1     -41.215-122.362 -50.882  0.00  0.00     0.014 C 
BRANCH  13  14
ATOM     14  C   UNL d   1     -41.196-122.667 -51.649  0.00  0.00     0.004 A 
ATOM     15  C   UNL d   1     -41.218-122.156 -52.293  0.00  0.00     0.042 A 
ATOM     16  C   UNL d   1     -41.199-122.465 -53.057  0.00  0.00     0.196 A 
ATOM     17  O   UNL d   1     -41.221-121.956 -53.710  0.00  0.00    -0.287 OA
ATOM     18  C   UNL d   1     -41.157-123.277 -53.181  0.00  0.00     0.042 A 
ATOM     19  C   UNL d   1     -41.135-123.789 -52.523  0.00  0.00     0.003 A 
ATOM     20  C   UNL d   1     -41.154-123.483 -51.757  0.00  0.00     0.000 A 
ENDBRANCH  13  14
ENDBRANCH   1  13
TORSDOF 3
ENDMDL
