MODEL 1
REMARK VINA RESULT:      -3.9      0.000      0.000
REMARK  3 active torsions:
REMARK  status: ('A' for Active; 'I' for Inactive)
REMARK    1  A    between atoms: N_2  and  S_1 
REMARK    2  A    between atoms: C_3  and  S_1 
REMARK    3  A    between atoms: C_5  and  N_4 
ROOT
ATOM      1  N   UNL d   1      57.675  -0.026  31.371  0.00  0.00    -0.226 N 
ATOM      2  N   UNL d   1      58.946   0.023  30.320  0.00  0.00    -0.301 N 
ATOM      3  C   UNL d   1      57.857  -0.696  30.912  0.00  0.00     0.111 A 
ATOM      4  C   UNL d   1      58.127   0.656  31.300  0.00  0.00     0.111 A 
ATOM      5  C   UNL d   1      58.762   0.680  30.774  0.00  0.00     0.100 A 
ATOM      6  C   UNL d   1      58.493  -0.672  30.386  0.00  0.00     0.100 A 
ENDROOT
BRANCH   1   7
ATOM      7  S   UNL d   1      57.040  -0.050  31.896  0.00  0.00     0.271 S 
ATOM      8  O   UNL d   1      57.564  -0.019  32.531  0.00  0.00    -0.200 OA
ATOM      9  O   UNL d   1      56.514  -0.080  31.260  0.00  0.00    -0.200 OA
BRANCH   7  10
ATOM     10  C   UNL d   1      56.404  -0.074  32.422  0.00  0.00     0.104 A 
ATOM     11  C   UNL d   1      56.098  -0.794  32.665  0.00  0.00     0.015 A 
ATOM     12  C   UNL d   1      55.463  -0.818  33.190  0.00  0.00     0.028 A 
ATOM     13  C   UNL d   1      55.157  -1.547  33.434  0.00  0.00     0.002 C 
ATOM     14  C   UNL d   1      55.135  -0.122  33.472  0.00  0.00     0.140 A 
ATOM     15  C   UNL d   1      55.441   0.613  33.228  0.00  0.00     0.030 A 
ATOM     16  F   UNL d   1      54.499  -0.146  33.997  0.00  0.00    -0.204 F 
ATOM     17  C   UNL d   1      56.075   0.637  32.704  0.00  0.00     0.015 A 
ENDBRANCH   7  10
ENDBRANCH   1   7
BRANCH   2  18
ATOM     18  C   UNL d   1      59.579   0.046  29.797  0.00  0.00     0.064 A 
ATOM     19  C   UNL d   1      60.348  -0.013  30.076  0.00  0.00     0.016 A 
ATOM     20  C   UNL d   1      60.983   0.011  29.550  0.00  0.00     0.001 A 
ATOM     21  C   UNL d   1      60.486  -0.098  30.887  0.00  0.00     0.002 C 
ATOM     22  C   UNL d   1      60.848   0.095  28.747  0.00  0.00     0.000 A 
ATOM     23  C   UNL d   1      60.072   0.156  28.455  0.00  0.00     0.001 A 
ATOM     24  C   UNL d   1      59.437   0.132  28.981  0.00  0.00     0.016 A 
ATOM     25  C   UNL d   1      58.667   0.191  28.701  0.00  0.00     0.002 C 
ENDBRANCH   2  18
TORSDOF 3
ENDMDL
