MODEL 1
REMARK VINA RESULT:      37.9      0.000      0.000
REMARK  1 active torsions:
REMARK  status: ('A' for Active; 'I' for Inactive)
REMARK    1  A    between atoms: N_14  and  C_8 
ROOT
ATOM      1  C   UNL d   1     -54.725-101.446 -39.386  0.00  0.00     0.056 A 
ATOM      2  C   UNL d   1     -54.724-101.419 -36.907  0.00  0.00     0.074 A 
ATOM      3  C   UNL d   1     -54.738-102.165 -39.791  0.00  0.00    -0.012 A 
ATOM      4  C   UNL d   1     -54.725-101.438 -38.563  0.00  0.00    -0.016 A 
ATOM      5  C   UNL d   1     -54.737-102.141 -37.315  0.00  0.00    -0.014 A 
ATOM      6  C   UNL d   1     -54.737-102.151 -38.137  0.00  0.00    -0.007 A 
ATOM      7  C   UNL d   1     -54.750-102.871 -39.371  0.00  0.00    -0.004 A 
ATOM      8  C   UNL d   1     -54.727-101.588 -36.098  0.00  0.00     0.089 A 
ATOM      9  C   UNL d   1     -54.712-100.706 -37.333  0.00  0.00    -0.017 A 
ATOM     10  C   UNL d   1     -54.750-102.869 -38.542  0.00  0.00    -0.001 A 
ATOM     11  C   UNL d   1     -54.712-100.715 -38.155  0.00  0.00    -0.008 A 
ATOM     12  C   UNL d   1     -54.713-100.738 -39.804  0.00  0.00    -0.015 A 
ATOM     13  C   UNL d   1     -54.747-102.753 -36.755  0.00  0.00    -0.002 A 
ATOM     14  C   UNL d   1     -54.739-102.172 -40.612  0.00  0.00     0.038 A 
ATOM     15  C   UNL d   1     -54.741-102.400 -36.006  0.00  0.00     0.017 A 
ATOM     16  C   UNL d   1     -54.714-100.745 -40.631  0.00  0.00     0.038 A 
ATOM     17  C   UNL d   1     -54.726-101.463 -41.036  0.00  0.00     0.195 A 
ATOM     18  C   UNL d   1     -54.713-100.724 -38.979  0.00  0.00     0.013 C 
ATOM     19  C   UNL d   1     -54.711-100.701 -36.502  0.00  0.00     0.015 C 
ATOM     20  O   UNL d   1     -54.727-101.470 -41.857  0.00  0.00    -0.287 OA
ENDROOT
BRANCH   8  21
ATOM     21  N   UNL d   1     -54.716-101.025 -35.493  0.00  0.00    -0.131 NA
ATOM     22  N   UNL d   1     -55.353-100.519 -35.336  0.00  0.00    -0.023 N 
ENDBRANCH   8  21
TORSDOF 1
ENDMDL
