MODEL 1
REMARK VINA RESULT:      97.2      0.000      0.000
REMARK  5 active torsions:
REMARK  status: ('A' for Active; 'I' for Inactive)
REMARK    1  A    between atoms: C_5  and  N_1 
REMARK    2  A    between atoms: C_8  and  C_3 
REMARK    3  A    between atoms: C_7  and  C_4 
REMARK    4  A    between atoms: N_12  and  C_5 
REMARK    5  A    between atoms: N_11  and  C_10 
ROOT
ATOM      1  N   UNL d   1      60.431  48.403  50.975  0.00  0.00    -0.203 N 
ATOM      2  N   UNL d   1      59.740  48.832  51.106  0.00  0.00    -0.163 NA
ATOM      3  C   UNL d   1      59.149  48.522  50.695  0.00  0.00     0.103 A 
ATOM      4  C   UNL d   1      60.267  47.793  50.456  0.00  0.00     0.087 A 
ATOM      5  C   UNL d   1      59.454  47.854  50.268  0.00  0.00     0.040 A 
ENDROOT
BRANCH   4   6
ATOM      6  C   UNL d   1      60.860  47.254  50.212  0.00  0.00     0.018 A 
ATOM      7  C   UNL d   1      60.922  46.526  50.583  0.00  0.00     0.003 A 
ATOM      8  C   UNL d   1      61.489  45.998  50.358  0.00  0.00     0.018 A 
ATOM      9  C   UNL d   1      62.021  46.190  49.740  0.00  0.00     0.064 A 
ATOM     10  C   UNL d   1      61.959  46.918  49.368  0.00  0.00     0.018 A 
ATOM     11  C   UNL d   1      61.371  47.460  49.606  0.00  0.00     0.003 A 
BRANCH   9  12
ATOM     12  N   UNL d   1      62.607  45.610  49.527  0.00  0.00    -0.301 N 
ATOM     13  C   UNL d   1      62.634  44.888  49.960  0.00  0.00     0.100 C 
ATOM     14  C   UNL d   1      63.157  45.648  48.956  0.00  0.00     0.100 C 
ENDBRANCH   9  12
ENDBRANCH   4   6
BRANCH   1  15
ATOM     15  C   UNL d   1      61.191  48.564  51.320  0.00  0.00     0.222 C 
ATOM     16  S   UNL d   1      61.883  48.511  50.828  0.00  0.00    -0.037 SA
BRANCH  15  17
ATOM     17  N   UNL d   1      61.246  48.766  52.108  0.00  0.00    -0.214 NA
ATOM     18  C   UNL d   1      61.053  49.549  52.374  0.00  0.00     0.122 C 
ENDBRANCH  15  17
ENDBRANCH   1  15
BRANCH   3  19
ATOM     19  C   UNL d   1      58.379  48.815  50.698  0.00  0.00     0.019 A 
ATOM     20  C   UNL d   1      57.888  48.746  51.376  0.00  0.00     0.002 A 
ATOM     21  C   UNL d   1      57.118  49.039  51.379  0.00  0.00     0.007 A 
ATOM     22  C   UNL d   1      56.842  49.401  50.701  0.00  0.00     0.035 A 
ATOM     23  C   UNL d   1      57.313  49.478  50.019  0.00  0.00     0.007 A 
ATOM     24 BR   UNL d   1      56.033  49.706  50.711  0.00  0.00    -0.049 Br
ATOM     25  C   UNL d   1      58.081  49.184  50.023  0.00  0.00     0.002 A 
ENDBRANCH   3  19
TORSDOF 5
ENDMDL
