MODEL 1
REMARK VINA RESULT:      79.3      0.000      0.000
REMARK  6 active torsions:
REMARK  status: ('A' for Active; 'I' for Inactive)
REMARK    1  A    between atoms: N_7  and  C_1 
REMARK    2  A    between atoms: C_10  and  C_3 
REMARK    3  A    between atoms: C_17  and  C_5 
REMARK    4  A    between atoms: C_12  and  N_7 
REMARK    5  A    between atoms: C_8  and  C_9 
REMARK    6  A    between atoms: C_13  and  C_17 
ROOT
ATOM      1  C   UNL d   1     -47.672  29.669  35.112  0.00  0.00     0.165 A 
ATOM      2  N   UNL d   1     -48.129  29.211  34.587  0.00  0.00    -0.208 NA
ATOM      3  C   UNL d   1     -48.671  28.656  34.878  0.00  0.00     0.164 A 
ATOM      4  N   UNL d   1     -48.759  28.555  35.694  0.00  0.00    -0.227 NA
ATOM      5  C   UNL d   1     -47.766  29.562  35.927  0.00  0.00     0.054 A 
ATOM      6  C   UNL d   1     -48.304  29.010  36.207  0.00  0.00     0.086 A 
ATOM      7  C   UNL d   1     -48.393  28.908  37.027  0.00  0.00     0.021 C 
ENDROOT
BRANCH   1   8
ATOM      8  N   UNL d   1     -47.133  30.221  34.820  0.00  0.00    -0.227 NA
BRANCH   8   9
ATOM      9  C   UNL d   1     -47.404  30.951  34.518  0.00  0.00     0.083 A 
ATOM     10  C   UNL d   1     -48.070  30.971  34.056  0.00  0.00     0.019 A 
ATOM     11  C   UNL d   1     -48.340  31.697  33.756  0.00  0.00     0.008 A 
ATOM     12  C   UNL d   1     -47.927  32.391  33.931  0.00  0.00     0.065 A 
ATOM     13  C   UNL d   1     -47.256  32.366  34.398  0.00  0.00     0.008 A 
ATOM     14  C   UNL d   1     -46.987  31.643  34.697  0.00  0.00     0.019 A 
BRANCH  12  15
ATOM     15  C   UNL d   1     -48.197  33.117  33.630  0.00  0.00     0.211 C 
ATOM     16  O   UNL d   1     -49.006  33.276  33.599  0.00  0.00    -0.644 OA
ATOM     17  O   UNL d   1     -47.662  33.679  33.364  0.00  0.00    -0.644 OA
ENDBRANCH  12  15
ENDBRANCH   8   9
ENDBRANCH   1   8
BRANCH   5  18
ATOM     18  C   UNL d   1     -47.319  30.009  36.450  0.00  0.00     0.005 C 
BRANCH  18  19
ATOM     19  C   UNL d   1     -46.971  29.671  37.107  0.00  0.00     0.000 C 
ATOM     20  C   UNL d   1     -46.488  30.100  37.614  0.00  0.00     0.000 C 
ENDBRANCH  18  19
ENDBRANCH   5  18
BRANCH   3  21
ATOM     21  C   UNL d   1     -49.121  28.206  34.355  0.00  0.00     0.036 A 
ATOM     22  C   UNL d   1     -49.827  28.504  34.058  0.00  0.00     0.003 A 
ATOM     23  C   UNL d   1     -50.282  28.058  33.534  0.00  0.00     0.000 A 
ATOM     24  C   UNL d   1     -50.021  27.296  33.306  0.00  0.00     0.000 A 
ATOM     25  C   UNL d   1     -49.315  26.997  33.603  0.00  0.00     0.000 A 
ATOM     26  C   UNL d   1     -48.862  27.458  34.133  0.00  0.00     0.003 A 
ENDBRANCH   3  21
TORSDOF 6
ENDMDL
MODEL 2
REMARK VINA RESULT:      80.1      3.711      5.503
REMARK  6 active torsions:
REMARK  status: ('A' for Active; 'I' for Inactive)
REMARK    1  A    between atoms: N_7  and  C_1 
REMARK    2  A    between atoms: C_10  and  C_3 
REMARK    3  A    between atoms: C_17  and  C_5 
REMARK    4  A    between atoms: C_12  and  N_7 
REMARK    5  A    between atoms: C_8  and  C_9 
REMARK    6  A    between atoms: C_13  and  C_17 
ROOT
ATOM      1  C   UNL d   1     -50.125  26.972  35.189  0.00  0.00     0.165 A 
ATOM      2  N   UNL d   1     -50.565  26.320  34.915  0.00  0.00    -0.208 NA
ATOM      3  C   UNL d   1     -50.728  26.234  34.108  0.00  0.00     0.164 A 
ATOM      4  N   UNL d   1     -50.453  26.798  33.569  0.00  0.00    -0.227 NA
ATOM      5  C   UNL d   1     -49.853  27.532  34.644  0.00  0.00     0.054 A 
ATOM      6  C   UNL d   1     -50.019  27.439  33.847  0.00  0.00     0.086 A 
ATOM      7  C   UNL d   1     -49.743  28.006  33.306  0.00  0.00     0.021 C 
ENDROOT
BRANCH   1   8
ATOM      8  N   UNL d   1     -49.963  27.056  35.993  0.00  0.00    -0.227 NA
BRANCH   8   9
ATOM      9  C   UNL d   1     -50.539  26.842  36.560  0.00  0.00     0.083 A 
ATOM     10  C   UNL d   1     -50.373  26.923  37.350  0.00  0.00     0.019 A 
ATOM     11  C   UNL d   1     -50.946  26.711  37.913  0.00  0.00     0.008 A 
ATOM     12  C   UNL d   1     -51.678  26.420  37.663  0.00  0.00     0.065 A 
ATOM     13  C   UNL d   1     -51.840  26.340  36.865  0.00  0.00     0.008 A 
ATOM     14  C   UNL d   1     -51.270  26.551  36.304  0.00  0.00     0.019 A 
BRANCH  12  15
ATOM     15  C   UNL d   1     -52.250  26.207  38.227  0.00  0.00     0.211 C 
ATOM     16  O   UNL d   1     -52.344  26.659  38.911  0.00  0.00    -0.644 OA
ATOM     17  O   UNL d   1     -52.725  25.549  38.106  0.00  0.00    -0.644 OA
ENDBRANCH  12  15
ENDBRANCH   8   9
ENDBRANCH   1   8
BRANCH   5  18
ATOM     18  C   UNL d   1     -49.419  28.177  34.907  0.00  0.00     0.005 C 
BRANCH  18  19
ATOM     19  C   UNL d   1     -48.635  28.274  34.698  0.00  0.00     0.000 C 
ATOM     20  C   UNL d   1     -48.164  28.856  35.035  0.00  0.00     0.000 C 
ENDBRANCH  18  19
ENDBRANCH   5  18
BRANCH   3  21
ATOM     21  C   UNL d   1     -51.164  25.586  33.841  0.00  0.00     0.036 A 
ATOM     22  C   UNL d   1     -50.781  24.888  33.638  0.00  0.00     0.003 A 
ATOM     23  C   UNL d   1     -51.211  24.238  33.371  0.00  0.00     0.000 A 
ATOM     24  C   UNL d   1     -52.045  24.292  33.307  0.00  0.00     0.000 A 
ATOM     25  C   UNL d   1     -52.427  24.990  33.510  0.00  0.00     0.000 A 
ATOM     26  C   UNL d   1     -51.981  25.642  33.780  0.00  0.00     0.003 A 
ENDBRANCH   3  21
TORSDOF 6
ENDMDL
MODEL 3
REMARK VINA RESULT:      80.2      4.295      6.587
REMARK  6 active torsions:
REMARK  status: ('A' for Active; 'I' for Inactive)
REMARK    1  A    between atoms: N_7  and  C_1 
REMARK    2  A    between atoms: C_10  and  C_3 
REMARK    3  A    between atoms: C_17  and  C_5 
REMARK    4  A    between atoms: C_12  and  N_7 
REMARK    5  A    between atoms: C_8  and  C_9 
REMARK    6  A    between atoms: C_13  and  C_17 
ROOT
ATOM      1  C   UNL d   1     -52.488  25.057  34.245  0.00  0.00     0.165 A 
ATOM      2  N   UNL d   1     -52.343  25.474  34.951  0.00  0.00    -0.208 NA
ATOM      3  C   UNL d   1     -52.548  25.144  35.682  0.00  0.00     0.164 A 
ATOM      4  N   UNL d   1     -52.898  24.395  35.713  0.00  0.00    -0.227 NA
ATOM      5  C   UNL d   1     -52.839  24.309  34.283  0.00  0.00     0.054 A 
ATOM      6  C   UNL d   1     -53.039  23.989  35.011  0.00  0.00     0.086 A 
ATOM      7  C   UNL d   1     -53.391  23.237  35.042  0.00  0.00     0.021 C 
ENDROOT
BRANCH   1   8
ATOM      8  N   UNL d   1     -52.283  25.388  33.518  0.00  0.00    -0.227 NA
BRANCH   8   9
ATOM      9  C   UNL d   1     -51.685  25.969  33.476  0.00  0.00     0.083 A 
ATOM     10  C   UNL d   1     -51.882  26.752  33.549  0.00  0.00     0.019 A 
ATOM     11  C   UNL d   1     -51.286  27.331  33.508  0.00  0.00     0.008 A 
ATOM     12  C   UNL d   1     -50.501  27.102  33.393  0.00  0.00     0.065 A 
ATOM     13  C   UNL d   1     -50.307  26.310  33.320  0.00  0.00     0.008 A 
ATOM     14  C   UNL d   1     -50.900  25.734  33.361  0.00  0.00     0.019 A 
BRANCH  12  15
ATOM     15  C   UNL d   1     -49.906  27.680  33.352  0.00  0.00     0.211 C 
ATOM     16  O   UNL d   1     -49.112  27.457  33.352  0.00  0.00    -0.644 OA
ATOM     17  O   UNL d   1     -50.104  28.475  33.311  0.00  0.00    -0.644 OA
ENDBRANCH  12  15
ENDBRANCH   8   9
ENDBRANCH   1   8
BRANCH   5  18
ATOM     18  C   UNL d   1     -52.985  23.892  33.592  0.00  0.00     0.005 C 
BRANCH  18  19
ATOM     19  C   UNL d   1     -53.651  23.426  33.510  0.00  0.00     0.000 C 
ATOM     20  C   UNL d   1     -54.396  23.749  33.390  0.00  0.00     0.000 C 
ENDBRANCH  18  19
ENDBRANCH   5  18
BRANCH   3  21
ATOM     21  C   UNL d   1     -52.402  25.560  36.379  0.00  0.00     0.036 A 
ATOM     22  C   UNL d   1     -52.715  25.294  37.091  0.00  0.00     0.003 A 
ATOM     23  C   UNL d   1     -52.573  25.706  37.790  0.00  0.00     0.000 A 
ATOM     24  C   UNL d   1     -52.107  26.401  37.773  0.00  0.00     0.000 A 
ATOM     25  C   UNL d   1     -51.794  26.668  37.061  0.00  0.00     0.000 A 
ATOM     26  C   UNL d   1     -51.944  26.242  36.359  0.00  0.00     0.003 A 
ENDBRANCH   3  21
TORSDOF 6
ENDMDL
MODEL 4
REMARK VINA RESULT:      80.6      4.083      6.116
REMARK  6 active torsions:
REMARK  status: ('A' for Active; 'I' for Inactive)
REMARK    1  A    between atoms: N_7  and  C_1 
REMARK    2  A    between atoms: C_10  and  C_3 
REMARK    3  A    between atoms: C_17  and  C_5 
REMARK    4  A    between atoms: C_12  and  N_7 
REMARK    5  A    between atoms: C_8  and  C_9 
REMARK    6  A    between atoms: C_13  and  C_17 
ROOT
ATOM      1  C   UNL d   1     -50.636  26.828  34.710  0.00  0.00     0.165 A 
ATOM      2  N   UNL d   1     -51.075  26.586  35.374  0.00  0.00    -0.208 NA
ATOM      3  C   UNL d   1     -50.805  26.753  36.139  0.00  0.00     0.164 A 
ATOM      4  N   UNL d   1     -50.095  27.162  36.245  0.00  0.00    -0.227 NA
ATOM      5  C   UNL d   1     -49.926  27.238  34.824  0.00  0.00     0.054 A 
ATOM      6  C   UNL d   1     -49.666  27.399  35.585  0.00  0.00     0.086 A 
ATOM      7  C   UNL d   1     -48.952  27.811  35.691  0.00  0.00     0.021 C 
ENDROOT
BRANCH   1   8
ATOM      8  N   UNL d   1     -50.906  26.661  33.949  0.00  0.00    -0.227 NA
BRANCH   8   9
ATOM      9  C   UNL d   1     -51.354  25.971  33.807  0.00  0.00     0.083 A 
ATOM     10  C   UNL d   1     -52.164  26.015  33.787  0.00  0.00     0.019 A 
ATOM     11  C   UNL d   1     -52.610  25.329  33.645  0.00  0.00     0.008 A 
ATOM     12  C   UNL d   1     -52.224  24.608  33.527  0.00  0.00     0.065 A 
ATOM     13  C   UNL d   1     -51.406  24.568  33.548  0.00  0.00     0.008 A 
ATOM     14  C   UNL d   1     -50.963  25.251  33.689  0.00  0.00     0.019 A 
BRANCH  12  15
ATOM     15  C   UNL d   1     -52.669  23.921  33.385  0.00  0.00     0.211 C 
ATOM     16  O   UNL d   1     -53.490  23.969  33.312  0.00  0.00    -0.644 OA
ATOM     17  O   UNL d   1     -52.297  23.193  33.318  0.00  0.00    -0.644 OA
ENDBRANCH  12  15
ENDBRANCH   8   9
ENDBRANCH   1   8
BRANCH   5  18
ATOM     18  C   UNL d   1     -49.487  27.480  34.174  0.00  0.00     0.005 C 
BRANCH  18  19
ATOM     19  C   UNL d   1     -48.818  27.940  34.262  0.00  0.00     0.000 C 
ATOM     20  C   UNL d   1     -48.837  28.756  34.177  0.00  0.00     0.000 C 
ENDBRANCH  18  19
ENDBRANCH   5  18
BRANCH   3  21
ATOM     21  C   UNL d   1     -51.244  26.510  36.794  0.00  0.00     0.036 A 
ATOM     22  C   UNL d   1     -50.884  26.449  37.531  0.00  0.00     0.003 A 
ATOM     23  C   UNL d   1     -51.317  26.207  38.189  0.00  0.00     0.000 A 
ATOM     24  C   UNL d   1     -52.130  26.024  38.104  0.00  0.00     0.000 A 
ATOM     25  C   UNL d   1     -52.490  26.086  37.368  0.00  0.00     0.000 A 
ATOM     26  C   UNL d   1     -52.041  26.331  36.708  0.00  0.00     0.003 A 
ENDBRANCH   3  21
TORSDOF 6
ENDMDL
