MODEL 1
REMARK VINA RESULT:     -10.8      0.000      0.000
REMARK  5 active torsions:
REMARK  status: ('A' for Active; 'I' for Inactive)
REMARK    1  A    between atoms: C_18  and  N_1 
REMARK    2  A    between atoms: C_13  and  C_6 
REMARK    3  A    between atoms: C_12  and  C_7 
REMARK    4  A    between atoms: C_23  and  C_14 
REMARK    5  A    between atoms: C_19  and  C_18 
ROOT
ATOM      1  C   UNL d   1      53.538  34.760  54.550  0.00  0.00     0.121 A 
ATOM      2  C   UNL d   1      52.833  34.698  54.118  0.00  0.00     0.058 A 
ATOM      3  N   UNL d   1      53.522  35.481  54.949  0.00  0.00    -0.195 NA
ATOM      4  S   UNL d   1      54.093  34.153  54.519  0.00  0.00    -0.068 SA
ATOM      5  C   UNL d   1      53.951  33.481  54.059  0.00  0.00     0.026 A 
ATOM      6  C   UNL d   1      53.247  33.419  53.626  0.00  0.00    -0.001 A 
ATOM      7  C   UNL d   1      54.298  32.651  53.784  0.00  0.00    -0.011 A 
ATOM      8  C   UNL d   1      53.483  32.687  53.345  0.00  0.00    -0.027 A 
ATOM      9  C   UNL d   1      52.687  34.030  53.657  0.00  0.00     0.008 A 
ATOM     10  C   UNL d   1      52.812  35.862  54.765  0.00  0.00     0.311 A 
ATOM     11  S   UNL d   1      52.389  35.382  54.254  0.00  0.00    -0.024 SA
ATOM     12  C   UNL d   1      54.958  32.168  53.882  0.00  0.00     0.049 A 
ATOM     13  O   UNL d   1      52.574  36.599  55.048  0.00  0.00    -0.258 OA
ENDROOT
BRANCH   9  14
ATOM     14  C   UNL d   1      51.990  33.969  53.230  0.00  0.00     0.001 A 
ATOM     15  C   UNL d   1      51.312  33.655  53.577  0.00  0.00     0.000 A 
ATOM     16  C   UNL d   1      50.611  33.594  53.148  0.00  0.00     0.000 A 
ATOM     17  C   UNL d   1      50.577  33.846  52.363  0.00  0.00     0.000 A 
ATOM     18  C   UNL d   1      51.259  34.162  52.010  0.00  0.00     0.000 A 
ATOM     19  C   UNL d   1      51.959  34.223  52.440  0.00  0.00     0.000 A 
ENDBRANCH   9  14
BRANCH   8  20
ATOM     20  C   UNL d   1      53.087  32.180  52.835  0.00  0.00     0.125 A 
ATOM     21  C   UNL d   1      52.869  31.396  52.704  0.00  0.00     0.251 A 
ATOM     22  N   UNL d   1      53.166  30.947  53.333  0.00  0.00    -0.239 N 
ATOM     23  O   UNL d   1      52.431  31.106  52.060  0.00  0.00    -0.271 OA
ATOM     24  C   UNL d   1      53.561  31.444  53.844  0.00  0.00     0.263 A 
ATOM     25  C   UNL d   1      53.514  32.218  53.535  0.00  0.00     0.044 A 
ATOM     26  O   UNL d   1      53.939  31.215  54.544  0.00  0.00    -0.267 OA
BRANCH  22  27
ATOM     27  C   UNL d   1      53.075  30.111  53.431  0.00  0.00     0.134 C 
ATOM     28  C   UNL d   1      53.620  29.577  53.069  0.00  0.00     0.026 C 
BRANCH  27  29
ATOM     29  C   UNL d   1      52.431  29.806  53.897  0.00  0.00     0.228 C 
ATOM     30  O   UNL d   1      51.639  29.850  53.601  0.00  0.00    -0.643 OA
ATOM     31  O   UNL d   1      52.588  29.464  54.648  0.00  0.00    -0.643 OA
ENDBRANCH  27  29
ENDBRANCH  22  27
ENDBRANCH   8  20
TORSDOF 5
ENDMDL
MODEL 2
REMARK VINA RESULT:      -8.9      0.986      2.369
REMARK  5 active torsions:
REMARK  status: ('A' for Active; 'I' for Inactive)
REMARK    1  A    between atoms: C_18  and  N_1 
REMARK    2  A    between atoms: C_13  and  C_6 
REMARK    3  A    between atoms: C_12  and  C_7 
REMARK    4  A    between atoms: C_23  and  C_14 
REMARK    5  A    between atoms: C_19  and  C_18 
ROOT
ATOM      1  C   UNL d   1      52.292  34.860  53.849  0.00  0.00     0.121 A 
ATOM      2  C   UNL d   1      52.999  34.695  54.249  0.00  0.00     0.058 A 
ATOM      3  N   UNL d   1      52.038  35.606  54.091  0.00  0.00    -0.195 NA
ATOM      4  S   UNL d   1      51.980  34.310  53.323  0.00  0.00    -0.068 SA
ATOM      5  C   UNL d   1      52.369  33.592  53.190  0.00  0.00     0.026 A 
ATOM      6  C   UNL d   1      53.076  33.427  53.590  0.00  0.00    -0.001 A 
ATOM      7  C   UNL d   1      52.343  32.780  52.716  0.00  0.00    -0.011 A 
ATOM      8  C   UNL d   1      53.120  32.700  53.213  0.00  0.00    -0.027 A 
ATOM      9  C   UNL d   1      53.390  33.981  54.120  0.00  0.00     0.008 A 
ATOM     10  C   UNL d   1      52.584  35.900  54.636  0.00  0.00     0.311 A 
ATOM     11  S   UNL d   1      53.175  35.341  54.734  0.00  0.00    -0.024 SA
ATOM     12  C   UNL d   1      51.883  32.373  52.167  0.00  0.00     0.049 A 
ATOM     13  O   UNL d   1      52.540  36.631  55.016  0.00  0.00    -0.258 OA
ENDROOT
BRANCH   9  14
ATOM     14  C   UNL d   1      54.090  33.818  54.516  0.00  0.00     0.001 A 
ATOM     15  C   UNL d   1      54.818  33.990  54.169  0.00  0.00     0.000 A 
ATOM     16  C   UNL d   1      55.520  33.827  54.567  0.00  0.00     0.000 A 
ATOM     17  C   UNL d   1      55.508  33.488  55.318  0.00  0.00     0.000 A 
ATOM     18  C   UNL d   1      54.776  33.314  55.671  0.00  0.00     0.000 A 
ATOM     19  C   UNL d   1      54.073  33.478  55.273  0.00  0.00     0.000 A 
ENDBRANCH   9  14
BRANCH   8  20
ATOM     20  C   UNL d   1      53.694  32.119  53.286  0.00  0.00     0.125 A 
ATOM     21  C   UNL d   1      53.822  31.306  53.338  0.00  0.00     0.251 A 
ATOM     22  N   UNL d   1      53.083  30.935  53.303  0.00  0.00    -0.239 N 
ATOM     23  O   UNL d   1      54.556  30.925  53.412  0.00  0.00    -0.271 OA
ATOM     24  C   UNL d   1      52.507  31.508  53.231  0.00  0.00     0.263 A 
ATOM     25  C   UNL d   1      52.886  32.251  53.220  0.00  0.00     0.044 A 
ATOM     26  O   UNL d   1      51.693  31.369  53.178  0.00  0.00    -0.267 OA
BRANCH  22  27
ATOM     27  C   UNL d   1      52.945  30.100  53.337  0.00  0.00     0.134 C 
ATOM     28  C   UNL d   1      52.958  29.636  52.632  0.00  0.00     0.026 C 
BRANCH  27  29
ATOM     29  C   UNL d   1      52.792  29.726  54.086  0.00  0.00     0.228 C 
ATOM     30  O   UNL d   1      53.433  29.568  54.617  0.00  0.00    -0.643 OA
ATOM     31  O   UNL d   1      52.005  29.517  54.294  0.00  0.00    -0.643 OA
ENDBRANCH  27  29
ENDBRANCH  22  27
ENDBRANCH   8  20
TORSDOF 5
ENDMDL
