MODEL 1
REMARK VINA RESULT:      71.4      0.000      0.000
REMARK  5 active torsions:
REMARK  status: ('A' for Active; 'I' for Inactive)
REMARK    1  A    between atoms: C_2  and  C_1 
REMARK    2  A    between atoms: C_16  and  C_8 
REMARK    3  A    between atoms: N_15  and  C_13 
REMARK    4  A    between atoms: C_19  and  N_15 
REMARK    5  A    between atoms: C_20  and  N_15 
ROOT
ATOM      1  C   UNL d   1     -55.294-101.638 -41.417  0.00  0.00     0.106 A 
ATOM      2  C   UNL d   1     -55.762-102.051 -41.952  0.00  0.00     0.304 A 
ATOM      3  C   UNL d   1     -54.954-100.914 -41.647  0.00  0.00     0.011 A 
ATOM      4  O   UNL d   1     -55.908-101.755 -42.737  0.00  0.00    -0.273 OA
ATOM      5  C   UNL d   1     -55.548-101.021 -42.934  0.00  0.00     0.105 A 
ATOM      6  C   UNL d   1     -55.080-100.608 -42.399  0.00  0.00     0.023 A 
ATOM      7  C   UNL d   1     -55.694-100.725 -43.718  0.00  0.00     0.042 A 
ATOM      8  C   UNL d   1     -55.334 -99.987 -43.919  0.00  0.00     0.066 A 
ATOM      9  O   UNL d   1     -56.111-102.798 -41.712  0.00  0.00    -0.259 OA
ATOM     10  C   UNL d   1     -54.740 -99.884 -42.628  0.00  0.00     0.004 A 
ATOM     11  C   UNL d   1     -54.866 -99.574 -43.384  0.00  0.00     0.018 A 
ENDROOT
BRANCH   1  12
ATOM     12  C   UNL d   1     -55.169-101.952 -40.657  0.00  0.00     0.210 A 
ATOM     13  O   UNL d   1     -55.204-101.569 -39.920  0.00  0.00    -0.268 OA
ATOM     14  C   UNL d   1     -55.035-102.136 -39.345  0.00  0.00     0.204 A 
ATOM     15  N   UNL d   1     -54.897-102.856 -39.713  0.00  0.00    -0.121 NA
ATOM     16  N   UNL d   1     -54.978-102.753 -40.527  0.00  0.00    -0.121 NA
BRANCH  14  17
ATOM     17  C   UNL d   1     -54.993-102.070 -38.527  0.00  0.00     0.043 A 
ATOM     18  C   UNL d   1     -55.163-102.720 -38.054  0.00  0.00     0.004 A 
ATOM     19  C   UNL d   1     -55.119-102.648 -37.237  0.00  0.00     0.000 A 
ATOM     20  C   UNL d   1     -54.905-101.931 -36.881  0.00  0.00     0.000 A 
ATOM     21  C   UNL d   1     -54.737-101.287 -37.354  0.00  0.00     0.000 A 
ATOM     22  C   UNL d   1     -54.781-101.359 -38.182  0.00  0.00     0.004 A 
ENDBRANCH  14  17
ENDBRANCH   1  12
BRANCH   8  23
ATOM     23  N   UNL d   1     -55.457 -99.644 -44.719  0.00  0.00    -0.304 N 
BRANCH  23  24
ATOM     24  C   UNL d   1     -55.083-100.020 -45.369  0.00  0.00     0.080 C 
ATOM     25  C   UNL d   1     -55.374-100.712 -45.703  0.00  0.00     0.021 C 
ENDBRANCH  23  24
BRANCH  23  26
ATOM     26  C   UNL d   1     -55.925 -98.975 -44.820  0.00  0.00     0.080 C 
ATOM     27  C   UNL d   1     -56.510 -98.788 -44.253  0.00  0.00     0.021 C 
ENDBRANCH  23  26
ENDBRANCH   8  23
TORSDOF 5
ENDMDL
