MODEL 1
REMARK VINA RESULT:      -6.9      0.000      0.000
REMARK  3 active torsions:
REMARK  status: ('A' for Active; 'I' for Inactive)
REMARK    1  A    between atoms: N_6  and  C_1 
REMARK       I    between atoms: C_8  and  N_6 
REMARK       I    between atoms: C_11  and  N_7 
REMARK    2  A    between atoms: C_14  and  C_8 
REMARK    3  A    between atoms: O_23  and  C_20 
ROOT
ATOM      1  C   UNL d   1     -48.003  12.571  23.087  0.00  0.00     0.124 A 
ATOM      2  C   UNL d   1     -48.781  12.356  23.262  0.00  0.00     0.093 A 
ATOM      3  C   UNL d   1     -48.780  13.650  22.954  0.00  0.00     0.049 A 
ATOM      4  C   UNL d   1     -49.261  13.037  23.176  0.00  0.00     0.021 A 
ATOM      5  S   UNL d   1     -48.000  13.378  22.894  0.00  0.00    -0.066 SA
ATOM      6  N   UNL d   1     -49.917  14.531  22.926  0.00  0.00    -0.272 N 
ATOM      7  C   UNL d   1     -49.109  14.419  22.824  0.00  0.00     0.089 A 
ATOM      8  C   UNL d   1     -49.034  11.605  23.480  0.00  0.00     0.103 C 
ATOM      9  C   UNL d   1     -50.252  15.278  22.801  0.00  0.00     0.265 C 
ATOM     10  N   UNL d   1     -49.286  10.860  23.697  0.00  0.00    -0.191 NA
ATOM     11  C   UNL d   1     -50.079  13.142  23.281  0.00  0.00     0.020 A 
ATOM     12  C   UNL d   1     -50.400  13.894  23.154  0.00  0.00     0.083 A 
ATOM     13  O   UNL d   1     -49.773  15.909  22.576  0.00  0.00    -0.267 OA
ATOM     14  C   UNL d   1     -51.063  15.393  22.903  0.00  0.00     0.066 C 
ENDROOT
BRANCH   1  15
ATOM     15  N   UNL d   1     -47.338  12.071  23.100  0.00  0.00    -0.201 NA
ATOM     16  C   UNL d   1     -46.602  12.384  23.296  0.00  0.00     0.280 C 
ATOM     17  O   UNL d   1     -46.511  13.180  23.478  0.00  0.00    -0.265 OA
BRANCH  16  18
ATOM     18  C   UNL d   1     -45.944  11.890  23.308  0.00  0.00     0.058 A 
ATOM     19  C   UNL d   1     -45.979  11.168  23.685  0.00  0.00     0.007 A 
ATOM     20  C   UNL d   1     -45.315  10.668  23.698  0.00  0.00     0.024 A 
ATOM     21  C   UNL d   1     -44.623  10.908  23.328  0.00  0.00     0.094 A 
ATOM     22  C   UNL d   1     -44.583  11.635  22.947  0.00  0.00     0.024 A 
ATOM     23  C   UNL d   1     -45.240  12.130  22.934  0.00  0.00     0.007 A 
BRANCH  21  24
ATOM     24  O   UNL d   1     -43.955  10.406  23.341  0.00  0.00    -0.328 OA
ATOM     25  C   UNL d   1     -44.046   9.580  23.343  0.00  0.00     0.181 C 
ENDBRANCH  21  24
ENDBRANCH  16  18
ENDBRANCH   1  15
TORSDOF 3
ENDMDL
MODEL 2
REMARK VINA RESULT:      -6.4      1.191      1.843
REMARK  3 active torsions:
REMARK  status: ('A' for Active; 'I' for Inactive)
REMARK    1  A    between atoms: N_6  and  C_1 
REMARK       I    between atoms: C_8  and  N_6 
REMARK       I    between atoms: C_11  and  N_7 
REMARK    2  A    between atoms: C_14  and  C_8 
REMARK    3  A    between atoms: O_23  and  C_20 
ROOT
ATOM      1  C   UNL d   1     -47.284  13.208  22.977  0.00  0.00     0.124 A 
ATOM      2  C   UNL d   1     -47.324  14.026  22.873  0.00  0.00     0.093 A 
ATOM      3  C   UNL d   1     -48.571  13.565  22.914  0.00  0.00     0.049 A 
ATOM      4  C   UNL d   1     -48.133  14.241  22.835  0.00  0.00     0.021 A 
ATOM      5  S   UNL d   1     -48.062  12.917  23.002  0.00  0.00    -0.066 SA
ATOM      6  N   UNL d   1     -49.780  14.335  22.799  0.00  0.00    -0.272 N 
ATOM      7  C   UNL d   1     -49.416  13.605  22.896  0.00  0.00     0.089 A 
ATOM      8  C   UNL d   1     -46.681  14.535  22.819  0.00  0.00     0.103 C 
ATOM      9  C   UNL d   1     -50.607  14.388  22.781  0.00  0.00     0.265 C 
ATOM     10  N   UNL d   1     -46.042  15.040  22.764  0.00  0.00    -0.191 NA
ATOM     11  C   UNL d   1     -48.493  14.984  22.736  0.00  0.00     0.020 A 
ATOM     12  C   UNL d   1     -49.320  15.022  22.719  0.00  0.00     0.083 A 
ATOM     13  O   UNL d   1     -51.062  13.707  22.860  0.00  0.00    -0.267 OA
ATOM     14  C   UNL d   1     -50.974  15.121  22.683  0.00  0.00     0.066 C 
ENDROOT
BRANCH   1  15
ATOM     15  N   UNL d   1     -46.592  12.752  23.044  0.00  0.00    -0.201 NA
ATOM     16  C   UNL d   1     -46.653  11.950  23.226  0.00  0.00     0.280 C 
ATOM     17  O   UNL d   1     -47.383  11.593  23.341  0.00  0.00    -0.265 OA
BRANCH  16  18
ATOM     18  C   UNL d   1     -45.967  11.499  23.293  0.00  0.00     0.058 A 
ATOM     19  C   UNL d   1     -45.254  11.792  23.029  0.00  0.00     0.007 A 
ATOM     20  C   UNL d   1     -44.562  11.337  23.096  0.00  0.00     0.024 A 
ATOM     21  C   UNL d   1     -44.603  10.589  23.431  0.00  0.00     0.094 A 
ATOM     22  C   UNL d   1     -45.320  10.289  23.698  0.00  0.00     0.024 A 
ATOM     23  C   UNL d   1     -46.005  10.740  23.631  0.00  0.00     0.007 A 
BRANCH  21  24
ATOM     24  O   UNL d   1     -43.907  10.131  23.498  0.00  0.00    -0.328 OA
ATOM     25  C   UNL d   1     -43.166  10.454  23.303  0.00  0.00     0.181 C 
ENDBRANCH  21  24
ENDBRANCH  16  18
ENDBRANCH   1  15
TORSDOF 3
ENDMDL
MODEL 3
REMARK VINA RESULT:      -5.4      1.683      5.304
REMARK  3 active torsions:
REMARK  status: ('A' for Active; 'I' for Inactive)
REMARK    1  A    between atoms: N_6  and  C_1 
REMARK       I    between atoms: C_8  and  N_6 
REMARK       I    between atoms: C_11  and  N_7 
REMARK    2  A    between atoms: C_14  and  C_8 
REMARK    3  A    between atoms: O_23  and  C_20 
ROOT
ATOM      1  C   UNL d   1     -46.780  13.143  22.561  0.00  0.00     0.124 A 
ATOM      2  C   UNL d   1     -46.433  12.443  22.830  0.00  0.00     0.093 A 
ATOM      3  C   UNL d   1     -45.503  13.126  22.168  0.00  0.00     0.049 A 
ATOM      4  C   UNL d   1     -45.633  12.441  22.580  0.00  0.00     0.021 A 
ATOM      5  S   UNL d   1     -46.202  13.571  22.147  0.00  0.00    -0.066 SA
ATOM      6  N   UNL d   1     -44.136  12.735  21.950  0.00  0.00    -0.272 N 
ATOM      7  C   UNL d   1     -44.738  13.284  21.842  0.00  0.00     0.089 A 
ATOM      8  C   UNL d   1     -46.809  11.857  23.265  0.00  0.00     0.103 C 
ATOM      9  C   UNL d   1     -43.383  12.877  21.636  0.00  0.00     0.265 C 
ATOM     10  N   UNL d   1     -47.183  11.274  23.698  0.00  0.00    -0.191 NA
ATOM     11  C   UNL d   1     -45.030  11.881  22.693  0.00  0.00     0.020 A 
ATOM     12  C   UNL d   1     -44.282  12.035  22.374  0.00  0.00     0.083 A 
ATOM     13  O   UNL d   1     -43.238  13.570  21.216  0.00  0.00    -0.267 OA
ATOM     14  C   UNL d   1     -42.777  12.327  21.744  0.00  0.00     0.066 C 
ENDROOT
BRANCH   1  15
ATOM     15  N   UNL d   1     -47.569  13.379  22.681  0.00  0.00    -0.201 NA
ATOM     16  C   UNL d   1     -47.759  14.181  22.646  0.00  0.00     0.280 C 
ATOM     17  O   UNL d   1     -47.186  14.749  22.497  0.00  0.00    -0.265 OA
BRANCH  16  18
ATOM     18  C   UNL d   1     -48.539  14.415  22.765  0.00  0.00     0.058 A 
ATOM     19  C   UNL d   1     -49.055  14.463  22.136  0.00  0.00     0.007 A 
ATOM     20  C   UNL d   1     -49.842  14.699  22.256  0.00  0.00     0.024 A 
ATOM     21  C   UNL d   1     -50.097  14.885  23.014  0.00  0.00     0.094 A 
ATOM     22  C   UNL d   1     -49.580  14.838  23.650  0.00  0.00     0.024 A 
ATOM     23  C   UNL d   1     -48.800  14.604  23.532  0.00  0.00     0.007 A 
BRANCH  21  24
ATOM     24  O   UNL d   1     -50.889  15.123  23.134  0.00  0.00    -0.328 OA
ATOM     25  C   UNL d   1     -51.064  15.804  23.577  0.00  0.00     0.181 C 
ENDBRANCH  21  24
ENDBRANCH  16  18
ENDBRANCH   1  15
TORSDOF 3
ENDMDL
MODEL 4
REMARK VINA RESULT:      -4.5      9.058     10.792
REMARK  3 active torsions:
REMARK  status: ('A' for Active; 'I' for Inactive)
REMARK    1  A    between atoms: N_6  and  C_1 
REMARK       I    between atoms: C_8  and  N_6 
REMARK       I    between atoms: C_11  and  N_7 
REMARK    2  A    between atoms: C_14  and  C_8 
REMARK    3  A    between atoms: O_23  and  C_20 
ROOT
ATOM      1  C   UNL d   1     -39.455  14.690  18.019  0.00  0.00     0.124 A 
ATOM      2  C   UNL d   1     -40.130  15.102  18.259  0.00  0.00     0.093 A 
ATOM      3  C   UNL d   1     -39.354  14.945  19.328  0.00  0.00     0.049 A 
ATOM      4  C   UNL d   1     -40.058  15.258  19.078  0.00  0.00     0.021 A 
ATOM      5  S   UNL d   1     -38.969  14.590  18.685  0.00  0.00    -0.066 SA
ATOM      6  N   UNL d   1     -39.624  15.401  20.664  0.00  0.00    -0.272 N 
ATOM      7  C   UNL d   1     -39.124  15.014  20.139  0.00  0.00     0.089 A 
ATOM      8  C   UNL d   1     -40.757  15.319  17.773  0.00  0.00     0.103 C 
ATOM      9  C   UNL d   1     -39.411  15.476  21.462  0.00  0.00     0.265 C 
ATOM     10  N   UNL d   1     -41.380  15.535  17.293  0.00  0.00    -0.191 NA
ATOM     11  C   UNL d   1     -40.569  15.650  19.603  0.00  0.00     0.020 A 
ATOM     12  C   UNL d   1     -40.344  15.718  20.397  0.00  0.00     0.083 A 
ATOM     13  O   UNL d   1     -38.698  15.162  21.726  0.00  0.00    -0.267 OA
ATOM     14  C   UNL d   1     -39.912  15.865  21.990  0.00  0.00     0.066 C 
ENDROOT
BRANCH   1  15
ATOM     15  N   UNL d   1     -39.288  14.421  17.250  0.00  0.00    -0.201 NA
ATOM     16  C   UNL d   1     -38.637  14.728  16.848  0.00  0.00     0.280 C 
ATOM     17  O   UNL d   1     -38.151  15.293  17.191  0.00  0.00    -0.265 OA
BRANCH  16  18
ATOM     18  C   UNL d   1     -38.472  14.462  16.087  0.00  0.00     0.058 A 
ATOM     19  C   UNL d   1     -38.503  14.976  15.455  0.00  0.00     0.007 A 
ATOM     20  C   UNL d   1     -38.336  14.708  14.686  0.00  0.00     0.024 A 
ATOM     21  C   UNL d   1     -38.140  13.919  14.569  0.00  0.00     0.094 A 
ATOM     22  C   UNL d   1     -38.109  13.398  15.202  0.00  0.00     0.024 A 
ATOM     23  C   UNL d   1     -38.274  13.664  15.963  0.00  0.00     0.007 A 
BRANCH  21  24
ATOM     24  O   UNL d   1     -37.973  13.649  13.795  0.00  0.00    -0.328 OA
ATOM     25  C   UNL d   1     -37.940  12.835  13.628  0.00  0.00     0.181 C 
ENDBRANCH  21  24
ENDBRANCH  16  18
ENDBRANCH   1  15
TORSDOF 3
ENDMDL
MODEL 5
REMARK VINA RESULT:      -4.1      2.247      3.240
REMARK  3 active torsions:
REMARK  status: ('A' for Active; 'I' for Inactive)
REMARK    1  A    between atoms: N_6  and  C_1 
REMARK       I    between atoms: C_8  and  N_6 
REMARK       I    between atoms: C_11  and  N_7 
REMARK    2  A    between atoms: C_14  and  C_8 
REMARK    3  A    between atoms: O_23  and  C_20 
ROOT
ATOM      1  C   UNL d   1     -46.209  13.289  22.504  0.00  0.00     0.124 A 
ATOM      2  C   UNL d   1     -46.780  13.869  22.645  0.00  0.00     0.093 A 
ATOM      3  C   UNL d   1     -47.346  12.687  22.870  0.00  0.00     0.049 A 
ATOM      4  C   UNL d   1     -47.487  13.484  22.874  0.00  0.00     0.021 A 
ATOM      5  S   UNL d   1     -46.561  12.549  22.644  0.00  0.00    -0.066 SA
ATOM      6  N   UNL d   1     -48.701  12.445  23.284  0.00  0.00    -0.272 N 
ATOM      7  C   UNL d   1     -47.963  12.148  23.080  0.00  0.00     0.089 A 
ATOM      8  C   UNL d   1     -46.666  14.680  22.572  0.00  0.00     0.103 C 
ATOM      9  C   UNL d   1     -49.315  11.927  23.491  0.00  0.00     0.265 C 
ATOM     10  N   UNL d   1     -46.555  15.486  22.500  0.00  0.00    -0.191 NA
ATOM     11  C   UNL d   1     -48.231  13.793  23.080  0.00  0.00     0.020 A 
ATOM     12  C   UNL d   1     -48.835  13.265  23.284  0.00  0.00     0.083 A 
ATOM     13  O   UNL d   1     -49.182  11.115  23.491  0.00  0.00    -0.267 OA
ATOM     14  C   UNL d   1     -50.057  12.224  23.697  0.00  0.00     0.066 C 
ENDROOT
BRANCH   1  15
ATOM     15  N   UNL d   1     -45.423  13.417  22.265  0.00  0.00    -0.201 NA
ATOM     16  C   UNL d   1     -44.961  12.773  22.036  0.00  0.00     0.280 C 
ATOM     17  O   UNL d   1     -45.262  12.009  22.041  0.00  0.00    -0.265 OA
BRANCH  16  18
ATOM     18  C   UNL d   1     -44.183  12.900  21.799  0.00  0.00     0.058 A 
ATOM     19  C   UNL d   1     -43.966  13.609  21.462  0.00  0.00     0.007 A 
ATOM     20  C   UNL d   1     -43.181  13.737  21.223  0.00  0.00     0.024 A 
ATOM     21  C   UNL d   1     -42.625  13.143  21.329  0.00  0.00     0.094 A 
ATOM     22  C   UNL d   1     -42.839  12.427  21.669  0.00  0.00     0.024 A 
ATOM     23  C   UNL d   1     -43.617  12.300  21.906  0.00  0.00     0.007 A 
BRANCH  21  24
ATOM     24  O   UNL d   1     -41.835  13.271  21.089  0.00  0.00    -0.328 OA
ATOM     25  C   UNL d   1     -41.551  14.042  20.960  0.00  0.00     0.181 C 
ENDBRANCH  21  24
ENDBRANCH  16  18
ENDBRANCH   1  15
TORSDOF 3
ENDMDL
MODEL 6
REMARK VINA RESULT:      -4.0      9.022     10.325
REMARK  3 active torsions:
REMARK  status: ('A' for Active; 'I' for Inactive)
REMARK    1  A    between atoms: N_6  and  C_1 
REMARK       I    between atoms: C_8  and  N_6 
REMARK       I    between atoms: C_11  and  N_7 
REMARK    2  A    between atoms: C_14  and  C_8 
REMARK    3  A    between atoms: O_23  and  C_20 
ROOT
ATOM      1  C   UNL d   1     -39.161  15.320  19.090  0.00  0.00     0.124 A 
ATOM      2  C   UNL d   1     -39.846  15.585  18.710  0.00  0.00     0.093 A 
ATOM      3  C   UNL d   1     -38.905  15.429  17.782  0.00  0.00     0.049 A 
ATOM      4  C   UNL d   1     -39.677  15.651  17.893  0.00  0.00     0.021 A 
ATOM      5  S   UNL d   1     -38.573  15.222  18.512  0.00  0.00    -0.066 SA
ATOM      6  N   UNL d   1     -39.038  15.673  16.371  0.00  0.00    -0.272 N 
ATOM      7  C   UNL d   1     -38.571  15.438  17.005  0.00  0.00     0.089 A 
ATOM      8  C   UNL d   1     -40.562  15.753  19.076  0.00  0.00     0.103 C 
ATOM      9  C   UNL d   1     -38.722  15.686  15.605  0.00  0.00     0.265 C 
ATOM     10  N   UNL d   1     -41.274  15.920  19.438  0.00  0.00    -0.191 NA
ATOM     11  C   UNL d   1     -40.156  15.890  17.257  0.00  0.00     0.020 A 
ATOM     12  C   UNL d   1     -39.828  15.898  16.497  0.00  0.00     0.083 A 
ATOM     13  O   UNL d   1     -37.940  15.463  15.481  0.00  0.00    -0.267 OA
ATOM     14  C   UNL d   1     -39.190  15.922  14.967  0.00  0.00     0.066 C 
ENDROOT
BRANCH   1  15
ATOM     15  N   UNL d   1     -39.073  15.176  19.904  0.00  0.00    -0.201 NA
ATOM     16  C   UNL d   1     -38.679  14.496  20.153  0.00  0.00     0.280 C 
ATOM     17  O   UNL d   1     -38.371  13.960  19.613  0.00  0.00    -0.265 OA
BRANCH  16  18
ATOM     18  C   UNL d   1     -38.591  14.353  20.959  0.00  0.00     0.058 A 
ATOM     19  C   UNL d   1     -39.043  13.784  21.328  0.00  0.00     0.007 A 
ATOM     20  C   UNL d   1     -38.955  13.640  22.141  0.00  0.00     0.024 A 
ATOM     21  C   UNL d   1     -38.409  14.076  22.571  0.00  0.00     0.094 A 
ATOM     22  C   UNL d   1     -37.951  14.651  22.204  0.00  0.00     0.024 A 
ATOM     23  C   UNL d   1     -38.038  14.794  21.398  0.00  0.00     0.007 A 
BRANCH  21  24
ATOM     24  O   UNL d   1     -38.320  13.931  23.390  0.00  0.00    -0.328 OA
ATOM     25  C   UNL d   1     -38.238  13.155  23.676  0.00  0.00     0.181 C 
ENDBRANCH  21  24
ENDBRANCH  16  18
ENDBRANCH   1  15
TORSDOF 3
ENDMDL
