MODEL 1
REMARK VINA RESULT:      -8.5      0.000      0.000
REMARK  6 active torsions:
REMARK  status: ('A' for Active; 'I' for Inactive)
REMARK    1  A    between atoms: C_2  and  S_1 
REMARK    2  A    between atoms: N_8  and  S_1 
REMARK    3  A    between atoms: C_13  and  N_8 
REMARK    4  A    between atoms: N_9  and  C_14 
REMARK    5  A    between atoms: O_15  and  C_10 
REMARK    6  A    between atoms: C_14  and  C_13 
ROOT
ATOM      1  C   UNL d   1      52.255  33.065  53.266  0.00  0.00     0.105 A 
ATOM      2  C   UNL d   1      52.876  33.148  53.789  0.00  0.00     0.014 A 
ATOM      3  C   UNL d   1      53.402  32.525  53.912  0.00  0.00     0.023 A 
ATOM      4  C   UNL d   1      52.153  32.352  52.856  0.00  0.00     0.015 A 
ATOM      5  C   UNL d   1      53.307  31.820  53.512  0.00  0.00     0.094 A 
ATOM      6  C   UNL d   1      52.679  31.729  52.979  0.00  0.00     0.025 A 
ATOM      7  C   UNL d   1      52.976  33.858  54.196  0.00  0.00     0.001 A 
ATOM      8  C   UNL d   1      54.028  32.613  54.442  0.00  0.00     0.002 A 
ATOM      9  C   UNL d   1      53.602  33.946  54.726  0.00  0.00     0.000 A 
ATOM     10  C   UNL d   1      54.128  33.323  54.849  0.00  0.00     0.000 A 
ENDROOT
BRANCH   1  11
ATOM     11  S   UNL d   1      51.729  33.688  53.142  0.00  0.00     0.285 S 
ATOM     12  O   UNL d   1      52.231  33.997  52.556  0.00  0.00    -0.198 OA
ATOM     13  O   UNL d   1      51.236  33.386  53.717  0.00  0.00    -0.198 OA
BRANCH  11  14
ATOM     14  N   UNL d   1      51.202  34.312  53.019  0.00  0.00    -0.155 NA
BRANCH  14  15
ATOM     15  C   UNL d   1      50.533  34.203  52.563  0.00  0.00     0.131 C 
BRANCH  15  16
ATOM     16  C   UNL d   1      49.915  34.748  52.593  0.00  0.00     0.102 C 
BRANCH  16  17
ATOM     17  N   UNL d   1      49.330  34.741  52.012  0.00  0.00    -0.298 N 
ATOM     18  C   UNL d   1      49.485  34.405  51.274  0.00  0.00     0.107 A 
ATOM     19  C   UNL d   1      48.899  34.397  50.688  0.00  0.00     0.142 A 
ATOM     20  O   UNL d   1      48.158  34.725  50.844  0.00  0.00    -0.300 OA
ATOM     21  C   UNL d   1      48.004  35.062  51.586  0.00  0.00     0.142 A 
ATOM     22  C   UNL d   1      48.589  35.069  52.168  0.00  0.00     0.107 A 
ENDBRANCH  16  17
ENDBRANCH  15  16
ENDBRANCH  14  15
ENDBRANCH  11  14
ENDBRANCH   1  11
BRANCH   5  23
ATOM     23  O   UNL d   1      53.831  31.192  53.630  0.00  0.00    -0.328 OA
ATOM     24  C   UNL d   1      53.636  30.432  53.382  0.00  0.00     0.181 C 
ENDBRANCH   5  23
TORSDOF 6
ENDMDL
MODEL 2
REMARK VINA RESULT:      -6.7      2.253      4.981
REMARK  6 active torsions:
REMARK  status: ('A' for Active; 'I' for Inactive)
REMARK    1  A    between atoms: C_2  and  S_1 
REMARK    2  A    between atoms: N_8  and  S_1 
REMARK    3  A    between atoms: C_13  and  N_8 
REMARK    4  A    between atoms: N_9  and  C_14 
REMARK    5  A    between atoms: O_15  and  C_10 
REMARK    6  A    between atoms: C_14  and  C_13 
ROOT
ATOM      1  C   UNL d   1      52.897  33.132  53.516  0.00  0.00     0.105 A 
ATOM      2  C   UNL d   1      52.341  33.608  53.155  0.00  0.00     0.014 A 
ATOM      3  C   UNL d   1      52.266  34.400  53.373  0.00  0.00     0.023 A 
ATOM      4  C   UNL d   1      53.389  33.446  54.104  0.00  0.00     0.015 A 
ATOM      5  C   UNL d   1      52.748  34.716  53.951  0.00  0.00     0.094 A 
ATOM      6  C   UNL d   1      53.315  34.238  54.322  0.00  0.00     0.025 A 
ATOM      7  C   UNL d   1      51.852  33.294  52.570  0.00  0.00     0.001 A 
ATOM      8  C   UNL d   1      51.703  34.878  53.005  0.00  0.00     0.002 A 
ATOM      9  C   UNL d   1      51.288  33.771  52.202  0.00  0.00     0.000 A 
ATOM     10  C   UNL d   1      51.214  34.563  52.420  0.00  0.00     0.000 A 
ENDROOT
BRANCH   1  11
ATOM     11  S   UNL d   1      52.971  32.340  53.299  0.00  0.00     0.285 S 
ATOM     12  O   UNL d   1      53.664  32.521  52.875  0.00  0.00    -0.198 OA
ATOM     13  O   UNL d   1      52.293  32.162  53.714  0.00  0.00    -0.198 OA
BRANCH  11  14
ATOM     14  N   UNL d   1      53.046  31.548  53.081  0.00  0.00    -0.155 NA
BRANCH  14  15
ATOM     15  C   UNL d   1      53.133  30.969  53.652  0.00  0.00     0.131 C 
BRANCH  15  16
ATOM     16  C   UNL d   1      53.184  30.175  53.435  0.00  0.00     0.102 C 
BRANCH  16  17
ATOM     17  N   UNL d   1      53.275  29.595  54.015  0.00  0.00    -0.298 N 
ATOM     18  C   UNL d   1      52.922  29.690  54.754  0.00  0.00     0.107 A 
ATOM     19  C   UNL d   1      53.013  29.109  55.338  0.00  0.00     0.142 A 
ATOM     20  O   UNL d   1      53.459  28.433  55.178  0.00  0.00    -0.300 OA
ATOM     21  C   UNL d   1      53.813  28.339  54.434  0.00  0.00     0.142 A 
ATOM     22  C   UNL d   1      53.721  28.919  53.855  0.00  0.00     0.107 A 
ENDBRANCH  16  17
ENDBRANCH  15  16
ENDBRANCH  14  15
ENDBRANCH  11  14
ENDBRANCH   1  11
BRANCH   5  23
ATOM     23  O   UNL d   1      52.679  35.508  54.174  0.00  0.00    -0.328 OA
ATOM     24  C   UNL d   1      53.150  35.817  54.774  0.00  0.00     0.181 C 
ENDBRANCH   5  23
TORSDOF 6
ENDMDL
MODEL 3
REMARK VINA RESULT:      -6.7      1.201      5.191
REMARK  6 active torsions:
REMARK  status: ('A' for Active; 'I' for Inactive)
REMARK    1  A    between atoms: C_2  and  S_1 
REMARK    2  A    between atoms: N_8  and  S_1 
REMARK    3  A    between atoms: C_13  and  N_8 
REMARK    4  A    between atoms: N_9  and  C_14 
REMARK    5  A    between atoms: O_15  and  C_10 
REMARK    6  A    between atoms: C_14  and  C_13 
ROOT
ATOM      1  C   UNL d   1      50.212  34.497  52.762  0.00  0.00     0.105 A 
ATOM      2  C   UNL d   1      49.707  34.536  52.122  0.00  0.00     0.014 A 
ATOM      3  C   UNL d   1      49.005  34.967  52.171  0.00  0.00     0.023 A 
ATOM      4  C   UNL d   1      50.020  34.892  53.465  0.00  0.00     0.015 A 
ATOM      5  C   UNL d   1      48.809  35.358  52.861  0.00  0.00     0.094 A 
ATOM      6  C   UNL d   1      49.317  35.322  53.514  0.00  0.00     0.025 A 
ATOM      7  C   UNL d   1      49.901  34.143  51.424  0.00  0.00     0.001 A 
ATOM      8  C   UNL d   1      48.498  35.004  51.523  0.00  0.00     0.002 A 
ATOM      9  C   UNL d   1      49.394  34.180  50.774  0.00  0.00     0.000 A 
ATOM     10  C   UNL d   1      48.692  34.610  50.824  0.00  0.00     0.000 A 
ENDROOT
BRANCH   1  11
ATOM     11  S   UNL d   1      50.914  34.067  52.713  0.00  0.00     0.285 S 
ATOM     12  O   UNL d   1      50.536  33.410  53.056  0.00  0.00    -0.198 OA
ATOM     13  O   UNL d   1      51.285  34.710  52.378  0.00  0.00    -0.198 OA
BRANCH  11  14
ATOM     14  N   UNL d   1      51.616  33.636  52.664  0.00  0.00    -0.155 NA
BRANCH  14  15
ATOM     15  C   UNL d   1      52.134  33.616  53.296  0.00  0.00     0.131 C 
BRANCH  15  16
ATOM     16  C   UNL d   1      52.902  33.331  53.197  0.00  0.00     0.102 C 
BRANCH  16  17
ATOM     17  N   UNL d   1      53.377  33.191  53.856  0.00  0.00    -0.298 N 
ATOM     18  C   UNL d   1      53.492  32.420  54.127  0.00  0.00     0.107 A 
ATOM     19  C   UNL d   1      53.969  32.278  54.789  0.00  0.00     0.142 A 
ATOM     20  O   UNL d   1      54.331  32.909  55.178  0.00  0.00    -0.300 OA
ATOM     21  C   UNL d   1      54.215  33.684  54.904  0.00  0.00     0.142 A 
ATOM     22  C   UNL d   1      53.739  33.823  54.244  0.00  0.00     0.107 A 
ENDBRANCH  16  17
ENDBRANCH  15  16
ENDBRANCH  14  15
ENDBRANCH  11  14
ENDBRANCH   1  11
BRANCH   5  23
ATOM     23  O   UNL d   1      48.108  35.791  52.917  0.00  0.00    -0.328 OA
ATOM     24  C   UNL d   1      47.930  36.213  53.600  0.00  0.00     0.181 C 
ENDBRANCH   5  23
TORSDOF 6
ENDMDL
