MODEL 1
REMARK VINA RESULT:      53.7      0.000      0.000
REMARK  7 active torsions:
REMARK  status: ('A' for Active; 'I' for Inactive)
REMARK    1  A    between atoms: C_2  and  S_1 
REMARK    2  A    between atoms: N_3  and  S_1 
REMARK    3  A    between atoms: C_15  and  N_3 
REMARK    4  A    between atoms: C_4  and  C_9 
REMARK       I    between atoms: N_5  and  C_4 
REMARK    5  A    between atoms: C_16  and  N_5 
REMARK    6  A    between atoms: C_18  and  C_15 
REMARK    7  A    between atoms: C_17  and  C_16 
ROOT
ATOM      1  C   UNL d   1      14.030  15.804  -4.994  0.00  0.00     0.058 A 
ATOM      2  C   UNL d   1      13.359  15.313  -4.888  0.00  0.00     0.005 A 
ATOM      3  C   UNL d   1      14.637  15.784  -4.436  0.00  0.00     0.005 A 
ATOM      4  C   UNL d   1      13.919  14.806  -3.681  0.00  0.00     0.020 A 
ATOM      5  C   UNL d   1      13.313  14.823  -4.235  0.00  0.00     0.002 A 
ATOM      6  C   UNL d   1      14.585  15.287  -3.780  0.00  0.00     0.002 A 
ENDROOT
BRANCH   4   7
ATOM      7  C   UNL d   1      13.866  14.303  -3.018  0.00  0.00     0.112 C 
BRANCH   7   8
ATOM      8  N   UNL d   1      14.493  14.253  -2.483  0.00  0.00    -0.157 NA
BRANCH   8   9
ATOM      9  S   UNL d   1      14.520  13.633  -1.926  0.00  0.00     0.285 S 
ATOM     10  O   UNL d   1      14.619  14.189  -1.313  0.00  0.00    -0.198 OA
ATOM     11  O   UNL d   1      14.420  13.086  -2.543  0.00  0.00    -0.198 OA
BRANCH   9  12
ATOM     12  C   UNL d   1      14.545  13.012  -1.375  0.00  0.00     0.106 A 
ATOM     13  C   UNL d   1      13.851  12.710  -1.055  0.00  0.00     0.024 A 
ATOM     14  C   UNL d   1      13.881  12.093  -0.508  0.00  0.00     0.059 A 
ATOM     15 CL   UNL d   1      13.174  11.789  -0.186  0.00  0.00    -0.082 Cl
ATOM     16  C   UNL d   1      14.604  11.780  -0.281  0.00  0.00     0.011 A 
ATOM     17  C   UNL d   1      15.299  12.083  -0.601  0.00  0.00     0.002 A 
ATOM     18  C   UNL d   1      15.269  12.699  -1.148  0.00  0.00     0.013 A 
ENDBRANCH   9  12
ENDBRANCH   8   9
ENDBRANCH   7   8
ENDBRANCH   4   7
BRANCH   1  19
ATOM     19  C   UNL d   1      14.088  16.307  -5.655  0.00  0.00     0.279 C 
ATOM     20  N   UNL d   1      13.790  17.072  -5.613  0.00  0.00    -0.205 NA
ATOM     21  O   UNL d   1      14.446  16.036  -6.357  0.00  0.00    -0.265 OA
BRANCH  20  22
ATOM     22  C   UNL d   1      13.845  17.577  -6.269  0.00  0.00     0.121 C 
BRANCH  22  23
ATOM     23  C   UNL d   1      13.808  18.396  -6.156  0.00  0.00     0.101 A 
ATOM     24  N   UNL d   1      14.449  18.784  -5.811  0.00  0.00    -0.242 NA
ATOM     25  C   UNL d   1      14.406  19.599  -5.701  0.00  0.00     0.099 A 
ATOM     26  C   UNL d   1      13.738  20.022  -5.928  0.00  0.00     0.021 A 
ATOM     27  C   UNL d   1      13.099  19.618  -6.274  0.00  0.00     0.003 A 
ATOM     28  C   UNL d   1      13.140  18.800  -6.386  0.00  0.00     0.021 A 
ENDBRANCH  22  23
ENDBRANCH  20  22
ENDBRANCH   1  19
TORSDOF 7
ENDMDL
