MODEL 1
REMARK VINA RESULT:      49.9      0.000      0.000
REMARK  4 active torsions:
REMARK  status: ('A' for Active; 'I' for Inactive)
REMARK    1  A    between atoms: C_2  and  C_1 
REMARK    2  A    between atoms: C_3  and  C_1 
REMARK       I    between atoms: N_6  and  C_2 
REMARK    3  A    between atoms: C_13  and  C_3 
REMARK    4  A    between atoms: C_8  and  N_6 
ROOT
ATOM      1  C   UNL d   1     -49.004  27.579  34.324  0.00  0.00     0.282 C 
ATOM      2  N   UNL d   1     -49.566  27.516  33.680  0.00  0.00    -0.208 NA
ATOM      3  O   UNL d   1     -48.884  26.942  34.838  0.00  0.00    -0.265 OA
ENDROOT
BRANCH   1   4
ATOM      4  C   UNL d   1     -48.588  28.275  34.426  0.00  0.00     0.104 C 
BRANCH   4   5
ATOM      5  C   UNL d   1     -48.436  28.549  35.196  0.00  0.00     0.200 C 
ATOM      6  O   UNL d   1     -48.687  28.113  35.853  0.00  0.00    -0.286 OA
BRANCH   5   7
ATOM      7  C   UNL d   1     -48.033  29.257  35.296  0.00  0.00     0.039 A 
ATOM      8  C   UNL d   1     -48.242  29.917  34.846  0.00  0.00     0.003 A 
ATOM      9  C   UNL d   1     -47.830  30.627  34.954  0.00  0.00     0.000 A 
ATOM     10  C   UNL d   1     -47.223  30.671  35.502  0.00  0.00     0.000 A 
ATOM     11  C   UNL d   1     -47.015  30.002  35.955  0.00  0.00     0.000 A 
ATOM     12  C   UNL d   1     -47.419  29.293  35.854  0.00  0.00     0.003 A 
ENDBRANCH   5   7
ENDBRANCH   4   5
ENDBRANCH   1   4
BRANCH   2  13
ATOM     13  C   UNL d   1     -49.988  26.791  33.587  0.00  0.00     0.087 A 
ATOM     14  C   UNL d   1     -50.798  26.787  33.576  0.00  0.00     0.046 A 
ATOM     15  C   UNL d   1     -51.199  26.098  33.488  0.00  0.00     0.124 A 
ATOM     16  O   UNL d   1     -52.033  26.081  33.474  0.00  0.00    -0.301 OA
ATOM     17  C   UNL d   1     -50.784  25.383  33.408  0.00  0.00     0.123 A 
ATOM     18  C   UNL d   1     -52.442  25.387  33.386  0.00  0.00     0.149 A 
ATOM     19  C   UNL d   1     -52.026  24.672  33.306  0.00  0.00     0.149 A 
ATOM     20  O   UNL d   1     -51.205  24.657  33.315  0.00  0.00    -0.301 OA
ATOM     21  C   UNL d   1     -49.971  25.364  33.417  0.00  0.00     0.028 A 
ATOM     22  C   UNL d   1     -49.572  26.075  33.507  0.00  0.00     0.021 A 
ENDBRANCH   2  13
TORSDOF 4
ENDMDL
