MODEL 1
REMARK VINA RESULT:      -8.1      0.000      0.000
REMARK  3 active torsions:
REMARK  status: ('A' for Active; 'I' for Inactive)
REMARK    1  A    between atoms: C_2  and  C_1 
REMARK    2  A    between atoms: C_3  and  C_2 
REMARK       I    between atoms: N_5  and  C_3 
REMARK    3  A    between atoms: C_10  and  N_8 
ROOT
ATOM      1  C   UNL d   1     -48.264  12.556  23.322  0.00  0.00     0.304 C 
ATOM      2  N   UNL d   1     -47.522  12.200  23.327  0.00  0.00    -0.266 N 
ATOM      3  N   UNL d   1     -46.033  11.481  23.340  0.00  0.00    -0.301 N 
ATOM      4  O   UNL d   1     -48.905  12.174  23.668  0.00  0.00    -0.263 OA
ATOM      5  C   UNL d   1     -47.422  11.462  23.679  0.00  0.00     0.102 A 
ATOM      6  C   UNL d   1     -46.885  12.586  22.980  0.00  0.00     0.102 A 
ATOM      7  C   UNL d   1     -46.143  12.226  22.988  0.00  0.00     0.100 A 
ATOM      8  C   UNL d   1     -46.684  11.102  23.687  0.00  0.00     0.100 A 
ENDROOT
BRANCH   1   9
ATOM      9  C   UNL d   1     -48.365  13.302  22.967  0.00  0.00     0.253 C 
ATOM     10  O   UNL d   1     -47.743  13.845  22.972  0.00  0.00    -0.281 OA
BRANCH   9  11
ATOM     11  C   UNL d   1     -49.080  13.492  22.615  0.00  0.00     0.064 A 
ATOM     12  C   UNL d   1     -49.472  13.070  22.022  0.00  0.00     0.102 A 
ATOM     13  N   UNL d   1     -50.171  13.458  21.832  0.00  0.00    -0.244 NA
ATOM     14  C   UNL d   1     -50.220  14.130  22.309  0.00  0.00     0.082 A 
ATOM     15  C   UNL d   1     -49.548  14.151  22.792  0.00  0.00     0.022 A 
ATOM     16  C   UNL d   1     -50.787  14.724  22.367  0.00  0.00     0.019 A 
ATOM     17  C   UNL d   1     -49.447  14.766  23.329  0.00  0.00     0.002 A 
ATOM     18  C   UNL d   1     -50.022  15.366  23.386  0.00  0.00     0.000 A 
ATOM     19  C   UNL d   1     -50.686  15.339  22.904  0.00  0.00     0.002 A 
ENDBRANCH   9  11
ENDBRANCH   1   9
BRANCH   3  20
ATOM     20  C   UNL d   1     -45.299  11.120  23.350  0.00  0.00     0.064 A 
ATOM     21  C   UNL d   1     -45.201  10.378  23.694  0.00  0.00     0.020 A 
ATOM     22  C   UNL d   1     -44.451  10.023  23.697  0.00  0.00     0.031 A 
ATOM     23  C   UNL d   1     -43.803  10.410  23.357  0.00  0.00     0.140 A 
ATOM     24  C   UNL d   1     -43.904  11.159  23.010  0.00  0.00     0.031 A 
ATOM     25  F   UNL d   1     -43.061  10.051  23.364  0.00  0.00    -0.204 F 
ATOM     26  C   UNL d   1     -44.647  11.508  23.008  0.00  0.00     0.020 A 
ENDBRANCH   3  20
TORSDOF 3
ENDMDL
MODEL 2
REMARK VINA RESULT:      -7.6      0.871      1.508
REMARK  3 active torsions:
REMARK  status: ('A' for Active; 'I' for Inactive)
REMARK    1  A    between atoms: C_2  and  C_1 
REMARK    2  A    between atoms: C_3  and  C_2 
REMARK       I    between atoms: N_5  and  C_3 
REMARK    3  A    between atoms: C_10  and  N_8 
ROOT
ATOM      1  C   UNL d   1     -47.679  14.034  22.875  0.00  0.00     0.304 C 
ATOM      2  N   UNL d   1     -47.114  13.441  22.960  0.00  0.00    -0.266 N 
ATOM      3  N   UNL d   1     -45.978  12.252  23.129  0.00  0.00    -0.301 N 
ATOM      4  O   UNL d   1     -47.463  14.764  22.563  0.00  0.00    -0.263 OA
ATOM      5  C   UNL d   1     -46.335  13.579  22.733  0.00  0.00     0.102 A 
ATOM      6  C   UNL d   1     -47.335  12.714  23.271  0.00  0.00     0.102 A 
ATOM      7  C   UNL d   1     -46.767  12.122  23.355  0.00  0.00     0.100 A 
ATOM      8  C   UNL d   1     -45.767  12.991  22.816  0.00  0.00     0.100 A 
ENDROOT
BRANCH   1   9
ATOM      9  C   UNL d   1     -48.466  13.895  23.103  0.00  0.00     0.253 C 
ATOM     10  O   UNL d   1     -48.643  13.253  23.592  0.00  0.00    -0.281 OA
BRANCH   9  11
ATOM     11  C   UNL d   1     -49.061  14.396  22.843  0.00  0.00     0.064 A 
ATOM     12  C   UNL d   1     -49.138  15.202  23.003  0.00  0.00     0.102 A 
ATOM     13  N   UNL d   1     -49.815  15.487  22.632  0.00  0.00    -0.244 NA
ATOM     14  C   UNL d   1     -50.166  14.854  22.236  0.00  0.00     0.082 A 
ATOM     15  C   UNL d   1     -49.701  14.181  22.365  0.00  0.00     0.022 A 
ATOM     16  C   UNL d   1     -50.846  14.802  21.775  0.00  0.00     0.019 A 
ATOM     17  C   UNL d   1     -49.920  13.460  22.033  0.00  0.00     0.002 A 
ATOM     18  C   UNL d   1     -50.608  13.410  21.567  0.00  0.00     0.000 A 
ATOM     19  C   UNL d   1     -51.064  14.081  21.442  0.00  0.00     0.002 A 
ENDBRANCH   9  11
ENDBRANCH   1   9
BRANCH   3  20
ATOM     20  C   UNL d   1     -45.411  11.668  23.210  0.00  0.00     0.064 A 
ATOM     21  C   UNL d   1     -45.579  10.975  23.622  0.00  0.00     0.020 A 
ATOM     22  C   UNL d   1     -44.996  10.390  23.698  0.00  0.00     0.031 A 
ATOM     23  C   UNL d   1     -44.248  10.500  23.362  0.00  0.00     0.140 A 
ATOM     24  C   UNL d   1     -44.079  11.200  22.946  0.00  0.00     0.031 A 
ATOM     25  F   UNL d   1     -43.673   9.914  23.441  0.00  0.00    -0.204 F 
ATOM     26  C   UNL d   1     -44.658  11.777  22.873  0.00  0.00     0.020 A 
ENDBRANCH   3  20
TORSDOF 3
ENDMDL
MODEL 3
REMARK VINA RESULT:      -6.3      2.305      5.738
REMARK  3 active torsions:
REMARK  status: ('A' for Active; 'I' for Inactive)
REMARK    1  A    between atoms: C_2  and  C_1 
REMARK    2  A    between atoms: C_3  and  C_2 
REMARK       I    between atoms: N_5  and  C_3 
REMARK    3  A    between atoms: C_10  and  N_8 
ROOT
ATOM      1  C   UNL d   1     -45.776  13.307  22.660  0.00  0.00     0.304 C 
ATOM      2  N   UNL d   1     -46.530  13.635  22.685  0.00  0.00    -0.266 N 
ATOM      3  N   UNL d   1     -48.044  14.298  22.736  0.00  0.00    -0.301 N 
ATOM      4  O   UNL d   1     -45.120  13.793  22.556  0.00  0.00    -0.263 OA
ATOM      5  C   UNL d   1     -46.628  14.449  22.607  0.00  0.00     0.102 A 
ATOM      6  C   UNL d   1     -47.181  13.145  22.789  0.00  0.00     0.102 A 
ATOM      7  C   UNL d   1     -47.935  13.477  22.814  0.00  0.00     0.100 A 
ATOM      8  C   UNL d   1     -47.378  14.782  22.632  0.00  0.00     0.100 A 
ENDROOT
BRANCH   1   9
ATOM      9  C   UNL d   1     -45.676  12.485  22.739  0.00  0.00     0.253 C 
ATOM     10  O   UNL d   1     -46.327  12.009  22.917  0.00  0.00    -0.281 OA
BRANCH   9  11
ATOM     11  C   UNL d   1     -44.933  12.153  22.639  0.00  0.00     0.064 A 
ATOM     12  C   UNL d   1     -44.305  12.460  22.198  0.00  0.00     0.102 A 
ATOM     13  N   UNL d   1     -43.665  11.947  22.249  0.00  0.00    -0.244 NA
ATOM     14  C   UNL d   1     -43.891  11.312  22.725  0.00  0.00     0.082 A 
ATOM     15  C   UNL d   1     -44.673  11.439  22.966  0.00  0.00     0.022 A 
ATOM     16  C   UNL d   1     -43.489  10.637  22.971  0.00  0.00     0.019 A 
ATOM     17  C   UNL d   1     -45.048  10.889  23.450  0.00  0.00     0.002 A 
ATOM     18  C   UNL d   1     -44.639  10.207  23.698  0.00  0.00     0.000 A 
ATOM     19  C   UNL d   1     -43.864  10.088  23.455  0.00  0.00     0.002 A 
ENDBRANCH   9  11
ENDBRANCH   1   9
BRANCH   3  20
ATOM     20  C   UNL d   1     -48.791  14.631  22.760  0.00  0.00     0.064 A 
ATOM     21  C   UNL d   1     -49.010  15.121  23.385  0.00  0.00     0.020 A 
ATOM     22  C   UNL d   1     -49.770  15.453  23.398  0.00  0.00     0.031 A 
ATOM     23  C   UNL d   1     -50.307  15.295  22.788  0.00  0.00     0.140 A 
ATOM     24  C   UNL d   1     -50.083  14.800  22.158  0.00  0.00     0.031 A 
ATOM     25  F   UNL d   1     -51.060  15.629  22.808  0.00  0.00    -0.204 F 
ATOM     26  C   UNL d   1     -49.330  14.473  22.148  0.00  0.00     0.020 A 
ENDBRANCH   3  20
TORSDOF 3
ENDMDL
MODEL 4
REMARK VINA RESULT:      -6.3      8.603     10.299
REMARK  3 active torsions:
REMARK  status: ('A' for Active; 'I' for Inactive)
REMARK    1  A    between atoms: C_2  and  C_1 
REMARK    2  A    between atoms: C_3  and  C_2 
REMARK       I    between atoms: N_5  and  C_3 
REMARK    3  A    between atoms: C_10  and  N_8 
ROOT
ATOM      1  C   UNL d   1     -39.969  14.099  18.142  0.00  0.00     0.304 C 
ATOM      2  N   UNL d   1     -39.812  14.260  18.934  0.00  0.00    -0.266 N 
ATOM      3  N   UNL d   1     -39.500  14.584  20.525  0.00  0.00    -0.301 N 
ATOM      4  O   UNL d   1     -40.746  14.092  17.871  0.00  0.00    -0.263 OA
ATOM      5  C   UNL d   1     -40.432  14.414  19.453  0.00  0.00     0.102 A 
ATOM      6  C   UNL d   1     -39.034  14.266  19.199  0.00  0.00     0.102 A 
ATOM      7  C   UNL d   1     -38.881  14.428  19.993  0.00  0.00     0.100 A 
ATOM      8  C   UNL d   1     -40.281  14.576  20.245  0.00  0.00     0.100 A 
ENDROOT
BRANCH   1   9
ATOM      9  C   UNL d   1     -39.343  13.944  17.617  0.00  0.00     0.253 C 
ATOM     10  O   UNL d   1     -38.872  13.274  17.728  0.00  0.00    -0.281 OA
BRANCH   9  11
ATOM     11  C   UNL d   1     -39.198  14.455  16.993  0.00  0.00     0.064 A 
ATOM     12  C   UNL d   1     -39.464  15.234  16.914  0.00  0.00     0.102 A 
ATOM     13  N   UNL d   1     -39.189  15.542  16.203  0.00  0.00    -0.244 NA
ATOM     14  C   UNL d   1     -38.746  14.953  15.831  0.00  0.00     0.082 A 
ATOM     15  C   UNL d   1     -38.752  14.283  16.318  0.00  0.00     0.022 A 
ATOM     16  C   UNL d   1     -38.340  14.939  15.116  0.00  0.00     0.019 A 
ATOM     17  C   UNL d   1     -38.351  13.603  16.085  0.00  0.00     0.002 A 
ATOM     18  C   UNL d   1     -37.941  13.591  15.360  0.00  0.00     0.000 A 
ATOM     19  C   UNL d   1     -37.940  14.259  14.883  0.00  0.00     0.002 A 
ENDBRANCH   9  11
ENDBRANCH   1   9
BRANCH   3  20
ATOM     20  C   UNL d   1     -39.353  14.745  21.313  0.00  0.00     0.064 A 
ATOM     21  C   UNL d   1     -39.164  14.138  21.837  0.00  0.00     0.020 A 
ATOM     22  C   UNL d   1     -39.016  14.314  22.634  0.00  0.00     0.031 A 
ATOM     23  C   UNL d   1     -39.057  15.095  22.904  0.00  0.00     0.140 A 
ATOM     24  C   UNL d   1     -39.248  15.707  22.374  0.00  0.00     0.031 A 
ATOM     25  F   UNL d   1     -38.909  15.262  23.698  0.00  0.00    -0.204 F 
ATOM     26  C   UNL d   1     -39.394  15.529  21.586  0.00  0.00     0.020 A 
ENDBRANCH   3  20
TORSDOF 3
ENDMDL
