MODEL 1
REMARK VINA RESULT:      -4.4      0.000      0.000
REMARK  4 active torsions:
REMARK  status: ('A' for Active; 'I' for Inactive)
REMARK    1  A    between atoms: C_4  and  C_1 
REMARK    2  A    between atoms: C_7  and  C_4 
REMARK    3  A    between atoms: N_10  and  C_7 
REMARK    4  A    between atoms: C_11  and  N_10 
ROOT
ATOM      1  C   UNL d   1      58.112  -0.356  30.064  0.00  0.00     0.122 C 
ATOM      2  C   UNL d   1      57.931   0.163  29.453  0.00  0.00     0.106 C 
ATOM      3  N   UNL d   1      57.748   0.682  28.841  0.00  0.00    -0.191 NA
ENDROOT
BRANCH   1   4
ATOM      4  C   UNL d   1      57.732  -0.286  30.791  0.00  0.00     0.159 A 
ATOM      5  N   UNL d   1      57.044  -0.680  31.021  0.00  0.00    -0.226 NA
ATOM      6  C   UNL d   1      56.863  -0.448  31.785  0.00  0.00     0.099 A 
ATOM      7  C   UNL d   1      56.244  -0.656  32.297  0.00  0.00     0.021 A 
ATOM      8  C   UNL d   1      57.436   0.089  32.033  0.00  0.00     0.083 A 
ATOM      9  C   UNL d   1      56.208  -0.322  33.052  0.00  0.00     0.002 A 
ATOM     10  C   UNL d   1      56.781   0.215  33.300  0.00  0.00     0.002 A 
ATOM     11  C   UNL d   1      57.396   0.424  32.795  0.00  0.00     0.019 A 
ATOM     12  N   UNL d   1      57.974   0.192  31.423  0.00  0.00    -0.287 N 
ATOM     13  C   UNL d   1      58.642   0.682  31.428  0.00  0.00     0.101 C 
ENDBRANCH   1   4
BRANCH   1  14
ATOM     14  C   UNL d   1      58.675  -0.945  29.947  0.00  0.00     0.114 C 
BRANCH  14  15
ATOM     15  N   UNL d   1      58.719  -1.336  29.223  0.00  0.00    -0.225 NA
BRANCH  15  16
ATOM     16  C   UNL d   1      59.229  -1.979  29.132  0.00  0.00     0.163 A 
ATOM     17  N   UNL d   1      60.044  -1.879  29.198  0.00  0.00    -0.225 NA
ATOM     18  C   UNL d   1      60.550  -2.523  29.107  0.00  0.00     0.101 A 
ATOM     19  C   UNL d   1      60.236  -3.271  28.950  0.00  0.00     0.021 A 
ATOM     20  C   UNL d   1      59.409  -3.377  28.883  0.00  0.00     0.005 A 
ATOM     21  C   UNL d   1      58.910  -2.724  28.976  0.00  0.00     0.039 A 
ENDBRANCH  15  16
ENDBRANCH  14  15
ENDBRANCH   1  14
TORSDOF 4
ENDMDL
MODEL 2
REMARK VINA RESULT:      -4.4      0.629      4.156
REMARK  4 active torsions:
REMARK  status: ('A' for Active; 'I' for Inactive)
REMARK    1  A    between atoms: C_4  and  C_1 
REMARK    2  A    between atoms: C_7  and  C_4 
REMARK    3  A    between atoms: N_10  and  C_7 
REMARK    4  A    between atoms: C_11  and  N_10 
ROOT
ATOM      1  C   UNL d   1      58.366  -0.293  29.639  0.00  0.00     0.122 C 
ATOM      2  C   UNL d   1      58.068   0.193  29.048  0.00  0.00     0.106 C 
ATOM      3  N   UNL d   1      57.770   0.680  28.455  0.00  0.00    -0.191 NA
ENDROOT
BRANCH   1   4
ATOM      4  C   UNL d   1      58.828  -0.947  29.443  0.00  0.00     0.159 A 
ATOM      5  N   UNL d   1      58.552  -1.707  29.280  0.00  0.00    -0.226 NA
ATOM      6  C   UNL d   1      59.197  -2.182  29.112  0.00  0.00     0.099 A 
ATOM      7  C   UNL d   1      59.261  -2.984  28.912  0.00  0.00     0.021 A 
ATOM      8  C   UNL d   1      59.876  -1.719  29.171  0.00  0.00     0.083 A 
ATOM      9  C   UNL d   1      60.006  -3.313  28.772  0.00  0.00     0.002 A 
ATOM     10  C   UNL d   1      60.686  -2.850  28.831  0.00  0.00     0.002 A 
ATOM     11  C   UNL d   1      60.626  -2.054  29.029  0.00  0.00     0.019 A 
ATOM     12  N   UNL d   1      59.653  -0.957  29.375  0.00  0.00    -0.287 N 
ATOM     13  C   UNL d   1      60.154  -0.308  29.493  0.00  0.00     0.101 C 
ENDBRANCH   1   4
BRANCH   1  14
ATOM     14  C   UNL d   1      58.202  -0.127  30.428  0.00  0.00     0.114 C 
BRANCH  14  15
ATOM     15  N   UNL d   1      57.424  -0.008  30.671  0.00  0.00    -0.225 NA
BRANCH  15  16
ATOM     16  C   UNL d   1      57.245   0.031  31.477  0.00  0.00     0.163 A 
ATOM     17  N   UNL d   1      57.595   0.604  31.955  0.00  0.00    -0.225 NA
ATOM     18  C   UNL d   1      57.415   0.641  32.758  0.00  0.00     0.101 A 
ATOM     19  C   UNL d   1      56.882   0.099  33.083  0.00  0.00     0.021 A 
ATOM     20  C   UNL d   1      56.525  -0.484  32.602  0.00  0.00     0.005 A 
ATOM     21  C   UNL d   1      56.713  -0.512  31.796  0.00  0.00     0.039 A 
ENDBRANCH  15  16
ENDBRANCH  14  15
ENDBRANCH   1  14
TORSDOF 4
ENDMDL
