MODEL 1
REMARK VINA RESULT:      -2.8      0.000      0.000
REMARK  8 active torsions:
REMARK  status: ('A' for Active; 'I' for Inactive)
REMARK    1  A    between atoms: O_8  and  C_1 
REMARK    2  A    between atoms: C_10  and  C_5 
REMARK    3  A    between atoms: C_12  and  O_8 
REMARK    4  A    between atoms: N_9  and  C_10 
REMARK    5  A    between atoms: C_25  and  N_14 
REMARK    6  A    between atoms: O_24  and  C_17 
REMARK    7  A    between atoms: C_30  and  O_24 
REMARK    8  A    between atoms: C_29  and  C_25 
ROOT
ATOM      1  C   UNL d   1      57.391   0.644  32.249  0.00  0.00     0.161 A 
ATOM      2  C   UNL d   1      58.775   0.636  31.331  0.00  0.00     0.108 A 
ATOM      3  C   UNL d   1      58.830   0.652  32.162  0.00  0.00     0.064 A 
ATOM      4  C   UNL d   1      58.139   0.656  32.617  0.00  0.00     0.222 A 
ATOM      5  C   UNL d   1      59.465   0.632  30.875  0.00  0.00     0.079 A 
ATOM      6  O   UNL d   1      58.038   0.624  30.950  0.00  0.00    -0.305 OA
ATOM      7  C   UNL d   1      57.340   0.628  31.418  0.00  0.00     0.126 A 
ATOM      8  C   UNL d   1      59.565   0.663  32.522  0.00  0.00     0.009 A 
ATOM      9  C   UNL d   1      60.201   0.644  31.244  0.00  0.00     0.199 A 
ATOM     10  O   UNL d   1      58.189   0.671  33.441  0.00  0.00    -0.284 OA
ATOM     11  C   UNL d   1      60.251   0.660  32.068  0.00  0.00     0.042 A 
ATOM     12  O   UNL d   1      60.888   0.640  30.789  0.00  0.00    -0.286 OA
ATOM     13  C   UNL d   1      56.604   0.616  31.049  0.00  0.00     0.029 C 
ENDROOT
BRANCH   1  14
ATOM     14  O   UNL d   1      56.704   0.648  32.709  0.00  0.00    -0.300 OA
BRANCH  14  15
ATOM     15  C   UNL d   1      56.338  -0.065  32.898  0.00  0.00     0.123 A 
ATOM     16  C   UNL d   1      55.928  -0.139  33.609  0.00  0.00     0.123 A 
ATOM     17  C   UNL d   1      55.562  -0.845  33.803  0.00  0.00     0.027 A 
ATOM     18  C   UNL d   1      55.600  -1.487  33.287  0.00  0.00     0.002 A 
ATOM     19  C   UNL d   1      56.014  -1.416  32.567  0.00  0.00     0.002 A 
ATOM     20  C   UNL d   1      56.381  -0.703  32.376  0.00  0.00     0.027 A 
BRANCH  16  21
ATOM     21  O   UNL d   1      55.888   0.501  34.127  0.00  0.00    -0.303 OA
BRANCH  21  22
ATOM     22  C   UNL d   1      55.519   0.413  34.857  0.00  0.00     0.123 C 
ATOM     23  C   UNL d   1      55.915   0.608  35.552  0.00  0.00     0.029 C 
ENDBRANCH  21  22
ENDBRANCH  16  21
ENDBRANCH  14  15
ENDBRANCH   1  14
BRANCH   5  24
ATOM     24  C   UNL d   1      59.423   0.617  30.052  0.00  0.00     0.086 C 
BRANCH  24  25
ATOM     25  N   UNL d   1      59.590  -0.090  29.651  0.00  0.00    -0.300 N 
ATOM     26  C   UNL d   1      60.369  -0.286  29.456  0.00  0.00     0.100 A 
ATOM     27  C   UNL d   1      60.528  -0.986  29.060  0.00  0.00     0.100 A 
ATOM     28  N   UNL d   1      59.915  -1.498  28.853  0.00  0.00    -0.297 N 
ATOM     29  C   UNL d   1      59.135  -1.303  29.048  0.00  0.00     0.100 A 
ATOM     30  C   UNL d   1      58.969  -0.594  29.449  0.00  0.00     0.100 A 
BRANCH  28  31
ATOM     31  C   UNL d   1      60.075  -2.201  28.455  0.00  0.00     0.126 C 
BRANCH  31  32
ATOM     32  C   UNL d   1      60.521  -2.788  28.824  0.00  0.00     0.253 C 
ATOM     33  O   UNL d   1      60.543  -3.546  28.504  0.00  0.00    -0.281 OA
ENDBRANCH  31  32
ENDBRANCH  28  31
ENDBRANCH  24  25
ENDBRANCH   5  24
TORSDOF 8
ENDMDL
MODEL 2
REMARK VINA RESULT:      -1.0      0.982      1.694
REMARK  8 active torsions:
REMARK  status: ('A' for Active; 'I' for Inactive)
REMARK    1  A    between atoms: O_8  and  C_1 
REMARK    2  A    between atoms: C_10  and  C_5 
REMARK    3  A    between atoms: C_12  and  O_8 
REMARK    4  A    between atoms: N_9  and  C_10 
REMARK    5  A    between atoms: C_25  and  N_14 
REMARK    6  A    between atoms: O_24  and  C_17 
REMARK    7  A    between atoms: C_30  and  O_24 
REMARK    8  A    between atoms: C_29  and  C_25 
ROOT
ATOM      1  C   UNL d   1      57.214   0.550  31.991  0.00  0.00     0.161 A 
ATOM      2  C   UNL d   1      58.200   0.554  30.654  0.00  0.00     0.108 A 
ATOM      3  C   UNL d   1      57.374   0.615  30.559  0.00  0.00     0.064 A 
ATOM      4  C   UNL d   1      56.886   0.613  31.227  0.00  0.00     0.222 A 
ATOM      5  C   UNL d   1      58.689   0.556  29.986  0.00  0.00     0.079 A 
ATOM      6  O   UNL d   1      58.542   0.491  31.406  0.00  0.00    -0.305 OA
ATOM      7  C   UNL d   1      58.040   0.490  32.080  0.00  0.00     0.126 A 
ATOM      8  C   UNL d   1      57.053   0.677  29.809  0.00  0.00     0.009 A 
ATOM      9  C   UNL d   1      58.358   0.618  29.235  0.00  0.00     0.199 A 
ATOM     10  O   UNL d   1      56.067   0.673  31.138  0.00  0.00    -0.284 OA
ATOM     11  C   UNL d   1      57.540   0.679  29.146  0.00  0.00     0.042 A 
ATOM     12  O   UNL d   1      58.847   0.620  28.572  0.00  0.00    -0.286 OA
ATOM     13  C   UNL d   1      58.370   0.427  32.833  0.00  0.00     0.029 C 
ENDROOT
BRANCH   1  14
ATOM     14  O   UNL d   1      56.722   0.549  32.654  0.00  0.00    -0.300 OA
BRANCH  14  15
ATOM     15  C   UNL d   1      56.280  -0.123  32.830  0.00  0.00     0.123 A 
ATOM     16  C   UNL d   1      55.641  -0.069  33.347  0.00  0.00     0.123 A 
ATOM     17  C   UNL d   1      55.197  -0.734  33.527  0.00  0.00     0.027 A 
ATOM     18  C   UNL d   1      55.389  -1.463  33.192  0.00  0.00     0.002 A 
ATOM     19  C   UNL d   1      56.036  -1.521  32.668  0.00  0.00     0.002 A 
ATOM     20  C   UNL d   1      56.478  -0.849  32.491  0.00  0.00     0.027 A 
BRANCH  16  21
ATOM     21  O   UNL d   1      55.446   0.658  33.684  0.00  0.00    -0.303 OA
BRANCH  21  22
ATOM     22  C   UNL d   1      55.000   0.682  34.375  0.00  0.00     0.123 C 
ATOM     23  C   UNL d   1      54.179   0.649  34.344  0.00  0.00     0.029 C 
ENDBRANCH  21  22
ENDBRANCH  16  21
ENDBRANCH  14  15
ENDBRANCH   1  14
BRANCH   5  24
ATOM     24  C   UNL d   1      59.508   0.496  30.067  0.00  0.00     0.086 C 
BRANCH  24  25
ATOM     25  N   UNL d   1      59.881  -0.223  29.890  0.00  0.00    -0.300 N 
ATOM     26  C   UNL d   1      59.669  -0.647  29.212  0.00  0.00     0.100 A 
ATOM     27  C   UNL d   1      60.041  -1.358  29.041  0.00  0.00     0.100 A 
ATOM     28  N   UNL d   1      60.626  -1.654  29.541  0.00  0.00    -0.297 N 
ATOM     29  C   UNL d   1      60.838  -1.231  30.220  0.00  0.00     0.100 A 
ATOM     30  C   UNL d   1      60.464  -0.510  30.397  0.00  0.00     0.100 A 
BRANCH  28  31
ATOM     31  C   UNL d   1      60.999  -2.368  29.369  0.00  0.00     0.126 C 
BRANCH  31  32
ATOM     32  C   UNL d   1      60.660  -3.077  29.616  0.00  0.00     0.253 C 
ATOM     33  O   UNL d   1      61.133  -3.662  29.950  0.00  0.00    -0.281 OA
ENDBRANCH  31  32
ENDBRANCH  28  31
ENDBRANCH  24  25
ENDBRANCH   5  24
TORSDOF 8
ENDMDL
