MODEL 1
REMARK VINA RESULT:      -8.5      0.000      0.000
REMARK  2 active torsions:
REMARK  status: ('A' for Active; 'I' for Inactive)
REMARK    1  A    between atoms: C_5  and  N_1 
REMARK    2  A    between atoms: C_7  and  C_5 
ROOT
ATOM      1  N   UNL d   1     -48.510  13.708  22.030  0.00  0.00    -0.251 N 
ATOM      2  C   UNL d   1     -48.947  13.301  21.466  0.00  0.00     0.378 A 
ATOM      3  O   UNL d   1     -49.714  13.607  21.464  0.00  0.00    -0.258 OA
ATOM      4  C   UNL d   1     -49.009  14.271  22.382  0.00  0.00     0.092 A 
ATOM      5  C   UNL d   1     -49.751  14.207  22.032  0.00  0.00     0.121 A 
ATOM      6  O   UNL d   1     -48.673  12.692  20.982  0.00  0.00    -0.237 OA
ATOM      7  C   UNL d   1     -48.870  14.826  22.974  0.00  0.00     0.020 A 
ATOM      8  C   UNL d   1     -50.363  14.707  22.278  0.00  0.00     0.026 A 
ATOM      9  C   UNL d   1     -49.483  15.323  23.218  0.00  0.00     0.002 A 
ATOM     10  C   UNL d   1     -50.227  15.264  22.871  0.00  0.00     0.002 A 
ENDROOT
BRANCH   1  11
ATOM     11  C   UNL d   1     -47.716  13.582  22.217  0.00  0.00     0.086 C 
BRANCH  11  12
ATOM     12  C   UNL d   1     -47.506  12.961  22.707  0.00  0.00     0.028 A 
ATOM     13  C   UNL d   1     -46.726  12.885  22.974  0.00  0.00     0.059 A 
ATOM     14 CL   UNL d   1     -46.181  13.460  22.722  0.00  0.00    -0.082 Cl
ATOM     15  C   UNL d   1     -46.520  12.264  23.463  0.00  0.00     0.011 A 
ATOM     16  C   UNL d   1     -47.090  11.705  23.697  0.00  0.00     0.001 A 
ATOM     17  C   UNL d   1     -47.870  11.779  23.432  0.00  0.00     0.000 A 
ATOM     18  C   UNL d   1     -48.075  12.406  22.939  0.00  0.00     0.002 A 
ENDBRANCH  11  12
ENDBRANCH   1  11
TORSDOF 2
ENDMDL
MODEL 2
REMARK VINA RESULT:      -8.5      1.969      3.106
REMARK  2 active torsions:
REMARK  status: ('A' for Active; 'I' for Inactive)
REMARK    1  A    between atoms: C_5  and  N_1 
REMARK    2  A    between atoms: C_7  and  C_5 
ROOT
ATOM      1  N   UNL d   1     -48.191  12.319  22.568  0.00  0.00    -0.251 N 
ATOM      2  C   UNL d   1     -47.874  11.683  22.979  0.00  0.00     0.378 A 
ATOM      3  O   UNL d   1     -47.174  11.931  23.340  0.00  0.00    -0.258 OA
ATOM      4  C   UNL d   1     -47.683  12.969  22.673  0.00  0.00     0.092 A 
ATOM      5  C   UNL d   1     -47.057  12.727  23.149  0.00  0.00     0.121 A 
ATOM      6  O   UNL d   1     -48.196  10.925  23.028  0.00  0.00    -0.237 OA
ATOM      7  C   UNL d   1     -47.723  13.741  22.391  0.00  0.00     0.020 A 
ATOM      8  C   UNL d   1     -46.462  13.267  23.347  0.00  0.00     0.026 A 
ATOM      9  C   UNL d   1     -47.128  14.278  22.589  0.00  0.00     0.002 A 
ATOM     10  C   UNL d   1     -46.500  14.042  23.065  0.00  0.00     0.002 A 
ENDROOT
BRANCH   1  11
ATOM     11  C   UNL d   1     -48.889  12.318  22.127  0.00  0.00     0.086 C 
BRANCH  11  12
ATOM     12  C   UNL d   1     -49.610  12.390  22.506  0.00  0.00     0.028 A 
ATOM     13  C   UNL d   1     -50.278  12.642  22.087  0.00  0.00     0.059 A 
ATOM     14 CL   UNL d   1     -50.178  12.814  21.280  0.00  0.00    -0.082 Cl
ATOM     15  C   UNL d   1     -50.997  12.713  22.469  0.00  0.00     0.011 A 
ATOM     16  C   UNL d   1     -51.064  12.533  23.278  0.00  0.00     0.001 A 
ATOM     17  C   UNL d   1     -50.398  12.281  23.698  0.00  0.00     0.000 A 
ATOM     18  C   UNL d   1     -49.674  12.211  23.312  0.00  0.00     0.002 A 
ENDBRANCH  11  12
ENDBRANCH   1  11
TORSDOF 2
ENDMDL
MODEL 3
REMARK VINA RESULT:      -8.4      1.418      1.846
REMARK  2 active torsions:
REMARK  status: ('A' for Active; 'I' for Inactive)
REMARK    1  A    between atoms: C_5  and  N_1 
REMARK    2  A    between atoms: C_7  and  C_5 
ROOT
ATOM      1  N   UNL d   1     -48.779  12.380  22.250  0.00  0.00    -0.251 N 
ATOM      2  C   UNL d   1     -48.924  12.551  21.460  0.00  0.00     0.378 A 
ATOM      3  O   UNL d   1     -49.734  12.687  21.370  0.00  0.00    -0.258 OA
ATOM      4  C   UNL d   1     -49.503  12.410  22.655  0.00  0.00     0.092 A 
ATOM      5  C   UNL d   1     -50.091  12.599  22.111  0.00  0.00     0.121 A 
ATOM      6  O   UNL d   1     -48.363  12.582  20.856  0.00  0.00    -0.237 OA
ATOM      7  C   UNL d   1     -49.689  12.288  23.448  0.00  0.00     0.020 A 
ATOM      8  C   UNL d   1     -50.876  12.667  22.364  0.00  0.00     0.026 A 
ATOM      9  C   UNL d   1     -50.473  12.356  23.698  0.00  0.00     0.002 A 
ATOM     10  C   UNL d   1     -51.064  12.545  23.158  0.00  0.00     0.002 A 
ENDROOT
BRANCH   1  11
ATOM     11  C   UNL d   1     -48.044  12.209  22.586  0.00  0.00     0.086 C 
BRANCH  11  12
ATOM     12  C   UNL d   1     -47.523  12.816  22.756  0.00  0.00     0.028 A 
ATOM     13  C   UNL d   1     -46.827  12.662  23.176  0.00  0.00     0.059 A 
ATOM     14 CL   UNL d   1     -46.690  11.876  23.411  0.00  0.00    -0.082 Cl
ATOM     15  C   UNL d   1     -46.308  13.271  23.345  0.00  0.00     0.011 A 
ATOM     16  C   UNL d   1     -46.474  14.046  23.096  0.00  0.00     0.001 A 
ATOM     17  C   UNL d   1     -47.169  14.202  22.676  0.00  0.00     0.000 A 
ATOM     18  C   UNL d   1     -47.690  13.588  22.507  0.00  0.00     0.002 A 
ENDBRANCH  11  12
ENDBRANCH   1  11
TORSDOF 2
ENDMDL
MODEL 4
REMARK VINA RESULT:      -8.2      1.686      3.189
REMARK  2 active torsions:
REMARK  status: ('A' for Active; 'I' for Inactive)
REMARK    1  A    between atoms: C_5  and  N_1 
REMARK    2  A    between atoms: C_7  and  C_5 
ROOT
ATOM      1  N   UNL d   1     -48.201  13.888  23.031  0.00  0.00    -0.251 N 
ATOM      2  C   UNL d   1     -48.140  14.672  22.793  0.00  0.00     0.378 A 
ATOM      3  O   UNL d   1     -47.347  14.829  22.624  0.00  0.00    -0.258 OA
ATOM      4  C   UNL d   1     -47.441  13.555  23.010  0.00  0.00     0.092 A 
ATOM      5  C   UNL d   1     -46.916  14.137  22.759  0.00  0.00     0.121 A 
ATOM      6  O   UNL d   1     -48.760  15.213  22.732  0.00  0.00    -0.237 OA
ATOM      7  C   UNL d   1     -47.174  12.797  23.190  0.00  0.00     0.020 A 
ATOM      8  C   UNL d   1     -46.111  13.957  22.686  0.00  0.00     0.026 A 
ATOM      9  C   UNL d   1     -46.371  12.620  23.116  0.00  0.00     0.002 A 
ATOM     10  C   UNL d   1     -45.841  13.198  22.865  0.00  0.00     0.002 A 
ENDROOT
BRANCH   1  11
ATOM     11  C   UNL d   1     -48.894  13.497  23.253  0.00  0.00     0.086 C 
BRANCH  11  12
ATOM     12  C   UNL d   1     -49.394  13.197  22.679  0.00  0.00     0.028 A 
ATOM     13  C   UNL d   1     -50.016  12.694  22.890  0.00  0.00     0.059 A 
ATOM     14 CL   UNL d   1     -50.104  12.516  23.697  0.00  0.00    -0.082 Cl
ATOM     15  C   UNL d   1     -50.514  12.396  22.314  0.00  0.00     0.011 A 
ATOM     16  C   UNL d   1     -50.399  12.594  21.515  0.00  0.00     0.001 A 
ATOM     17  C   UNL d   1     -49.778  13.097  21.302  0.00  0.00     0.000 A 
ATOM     18  C   UNL d   1     -49.278  13.396  21.884  0.00  0.00     0.002 A 
ENDBRANCH  11  12
ENDBRANCH   1  11
TORSDOF 2
ENDMDL
MODEL 5
REMARK VINA RESULT:      -8.0      1.125      3.116
REMARK  2 active torsions:
REMARK  status: ('A' for Active; 'I' for Inactive)
REMARK    1  A    between atoms: C_5  and  N_1 
REMARK    2  A    between atoms: C_7  and  C_5 
ROOT
ATOM      1  N   UNL d   1     -48.659  12.884  22.467  0.00  0.00    -0.251 N 
ATOM      2  C   UNL d   1     -49.185  12.284  22.274  0.00  0.00     0.378 A 
ATOM      3  O   UNL d   1     -48.891  11.575  22.578  0.00  0.00    -0.258 OA
ATOM      4  C   UNL d   1     -48.032  12.546  22.895  0.00  0.00     0.092 A 
ATOM      5  C   UNL d   1     -48.178  11.739  22.962  0.00  0.00     0.121 A 
ATOM      6  O   UNL d   1     -49.888  12.369  21.850  0.00  0.00    -0.237 OA
ATOM      7  C   UNL d   1     -47.356  12.880  23.224  0.00  0.00     0.020 A 
ATOM      8  C   UNL d   1     -47.638  11.258  23.366  0.00  0.00     0.026 A 
ATOM      9  C   UNL d   1     -46.819  12.399  23.627  0.00  0.00     0.002 A 
ATOM     10  C   UNL d   1     -46.959  11.591  23.698  0.00  0.00     0.002 A 
ENDROOT
BRANCH   1  11
ATOM     11  C   UNL d   1     -48.735  13.683  22.272  0.00  0.00     0.086 C 
BRANCH  11  12
ATOM     12  C   UNL d   1     -49.202  14.171  22.733  0.00  0.00     0.028 A 
ATOM     13  C   UNL d   1     -49.101  14.992  22.705  0.00  0.00     0.059 A 
ATOM     14 CL   UNL d   1     -48.512  15.286  22.196  0.00  0.00    -0.082 Cl
ATOM     15  C   UNL d   1     -49.569  15.478  23.166  0.00  0.00     0.011 A 
ATOM     16  C   UNL d   1     -50.150  15.153  23.665  0.00  0.00     0.001 A 
ATOM     17  C   UNL d   1     -50.252  14.333  23.694  0.00  0.00     0.000 A 
ATOM     18  C   UNL d   1     -49.779  13.845  23.229  0.00  0.00     0.002 A 
ENDBRANCH  11  12
ENDBRANCH   1  11
TORSDOF 2
ENDMDL
