MODEL 1
REMARK VINA RESULT:      -5.2      0.000      0.000
REMARK  3 active torsions:
REMARK  status: ('A' for Active; 'I' for Inactive)
REMARK    1  A    between atoms: N_2  and  S_1 
REMARK    2  A    between atoms: C_4  and  S_1 
REMARK       I    between atoms: C_8  and  N_10 
REMARK    3  A    between atoms: N_10  and  C_16 
ROOT
ATOM      1  S   UNL d   1      57.755  -0.061  30.811  0.00  0.00     0.271 S 
ATOM      2  O   UNL d   1      57.489  -0.802  30.572  0.00  0.00    -0.200 OA
ATOM      3  O   UNL d   1      58.020   0.682  31.054  0.00  0.00    -0.200 OA
ENDROOT
BRANCH   1   4
ATOM      4  N   UNL d   1      58.327  -0.075  30.218  0.00  0.00    -0.229 N 
ATOM      5  C   UNL d   1      59.116   0.083  30.411  0.00  0.00     0.092 A 
ATOM      6  C   UNL d   1      59.688   0.070  29.822  0.00  0.00     0.018 A 
ATOM      7  C   UNL d   1      60.473   0.227  30.017  0.00  0.00     0.002 A 
ATOM      8  C   UNL d   1      59.480  -0.099  29.042  0.00  0.00     0.003 A 
ATOM      9  C   UNL d   1      61.045   0.214  29.427  0.00  0.00     0.000 A 
ATOM     10  C   UNL d   1      60.841   0.046  28.646  0.00  0.00     0.000 A 
ATOM     11  C   UNL d   1      60.053  -0.111  28.457  0.00  0.00     0.000 A 
ATOM     12  C   UNL d   1      58.692  -0.255  28.857  0.00  0.00     0.020 A 
ATOM     13  C   UNL d   1      58.113  -0.243  29.448  0.00  0.00     0.092 A 
ENDBRANCH   1   4
BRANCH   1  14
ATOM     14  C   UNL d   1      57.179  -0.054  31.405  0.00  0.00     0.104 A 
ATOM     15  C   UNL d   1      56.811   0.659  31.606  0.00  0.00     0.014 A 
ATOM     16  C   UNL d   1      56.237   0.661  32.199  0.00  0.00     0.020 A 
ATOM     17  C   UNL d   1      56.033  -0.039  32.586  0.00  0.00     0.085 A 
ATOM     18  C   UNL d   1      56.410  -0.745  32.374  0.00  0.00     0.020 A 
ATOM     19  C   UNL d   1      56.981  -0.749  31.786  0.00  0.00     0.014 A 
BRANCH  17  20
ATOM     20  N   UNL d   1      55.462  -0.027  33.174  0.00  0.00    -0.208 NA
ATOM     21  C   UNL d   1      55.614   0.330  33.897  0.00  0.00     0.279 C 
ATOM     22  O   UNL d   1      56.347   0.682  34.038  0.00  0.00    -0.265 OA
ATOM     23  C   UNL d   1      55.039   0.342  34.489  0.00  0.00     0.068 C 
ENDBRANCH  17  20
ENDBRANCH   1  14
TORSDOF 3
ENDMDL
MODEL 2
REMARK VINA RESULT:      -4.7      1.191      5.092
REMARK  3 active torsions:
REMARK  status: ('A' for Active; 'I' for Inactive)
REMARK    1  A    between atoms: N_2  and  S_1 
REMARK    2  A    between atoms: C_4  and  S_1 
REMARK       I    between atoms: C_8  and  N_10 
REMARK    3  A    between atoms: N_10  and  C_16 
ROOT
ATOM      1  S   UNL d   1      57.056   0.106  32.171  0.00  0.00     0.271 S 
ATOM      2  O   UNL d   1      56.489  -0.468  32.008  0.00  0.00    -0.200 OA
ATOM      3  O   UNL d   1      57.625   0.682  32.331  0.00  0.00    -0.200 OA
ENDROOT
BRANCH   1   4
ATOM      4  N   UNL d   1      56.698   0.251  32.899  0.00  0.00    -0.229 N 
ATOM      5  C   UNL d   1      55.873   0.250  32.953  0.00  0.00     0.092 A 
ATOM      6  C   UNL d   1      55.513   0.394  33.677  0.00  0.00     0.018 A 
ATOM      7  C   UNL d   1      54.690   0.392  33.728  0.00  0.00     0.002 A 
ATOM      8  C   UNL d   1      55.970   0.539  34.348  0.00  0.00     0.003 A 
ATOM      9  C   UNL d   1      54.332   0.536  34.453  0.00  0.00     0.000 A 
ATOM     10  C   UNL d   1      54.784   0.681  35.126  0.00  0.00     0.000 A 
ATOM     11  C   UNL d   1      55.608   0.682  35.069  0.00  0.00     0.000 A 
ATOM     12  C   UNL d   1      56.792   0.538  34.288  0.00  0.00     0.020 A 
ATOM     13  C   UNL d   1      57.157   0.394  33.559  0.00  0.00     0.092 A 
ENDBRANCH   1   4
BRANCH   1  14
ATOM     14  C   UNL d   1      57.409  -0.044  31.439  0.00  0.00     0.104 A 
ATOM     15  C   UNL d   1      57.767   0.576  31.024  0.00  0.00     0.014 A 
ATOM     16  C   UNL d   1      58.119   0.421  30.294  0.00  0.00     0.020 A 
ATOM     17  C   UNL d   1      58.113  -0.343  29.981  0.00  0.00     0.085 A 
ATOM     18  C   UNL d   1      57.751  -0.954  30.407  0.00  0.00     0.020 A 
ATOM     19  C   UNL d   1      57.401  -0.802  31.133  0.00  0.00     0.014 A 
BRANCH  17  20
ATOM     20  N   UNL d   1      58.465  -0.487  29.255  0.00  0.00    -0.208 NA
ATOM     21  C   UNL d   1      59.270  -0.639  29.204  0.00  0.00     0.279 C 
ATOM     22  O   UNL d   1      59.733  -0.648  29.886  0.00  0.00    -0.265 OA
ATOM     23  C   UNL d   1      59.624  -0.785  28.472  0.00  0.00     0.068 C 
ENDBRANCH  17  20
ENDBRANCH   1  14
TORSDOF 3
ENDMDL
MODEL 3
REMARK VINA RESULT:      -4.1      1.481      4.936
REMARK  3 active torsions:
REMARK  status: ('A' for Active; 'I' for Inactive)
REMARK    1  A    between atoms: N_2  and  S_1 
REMARK    2  A    between atoms: C_4  and  S_1 
REMARK       I    between atoms: C_8  and  N_10 
REMARK    3  A    between atoms: N_10  and  C_16 
ROOT
ATOM      1  S   UNL d   1      57.586  -0.653  30.943  0.00  0.00     0.271 S 
ATOM      2  O   UNL d   1      57.456  -1.422  31.205  0.00  0.00    -0.200 OA
ATOM      3  O   UNL d   1      57.719   0.118  30.679  0.00  0.00    -0.200 OA
ENDROOT
BRANCH   1   4
ATOM      4  N   UNL d   1      57.039  -0.374  31.493  0.00  0.00    -0.229 N 
ATOM      5  C   UNL d   1      56.732  -0.894  32.058  0.00  0.00     0.092 A 
ATOM      6  C   UNL d   1      56.186  -0.621  32.608  0.00  0.00     0.018 A 
ATOM      7  C   UNL d   1      55.881  -1.140  33.169  0.00  0.00     0.002 A 
ATOM      8  C   UNL d   1      55.946   0.169  32.599  0.00  0.00     0.003 A 
ATOM      9  C   UNL d   1      55.336  -0.865  33.719  0.00  0.00     0.000 A 
ATOM     10  C   UNL d   1      55.093  -0.078  33.714  0.00  0.00     0.000 A 
ATOM     11  C   UNL d   1      55.403   0.439  33.149  0.00  0.00     0.000 A 
ATOM     12  C   UNL d   1      56.257   0.682  32.034  0.00  0.00     0.020 A 
ATOM     13  C   UNL d   1      56.807   0.408  31.479  0.00  0.00     0.092 A 
ENDBRANCH   1   4
BRANCH   1  14
ATOM     14  C   UNL d   1      58.133  -0.939  30.393  0.00  0.00     0.104 A 
ATOM     15  C   UNL d   1      58.717  -0.433  30.099  0.00  0.00     0.014 A 
ATOM     16  C   UNL d   1      59.261  -0.724  29.550  0.00  0.00     0.020 A 
ATOM     17  C   UNL d   1      59.223  -1.509  29.299  0.00  0.00     0.085 A 
ATOM     18  C   UNL d   1      58.633  -2.004  29.603  0.00  0.00     0.020 A 
ATOM     19  C   UNL d   1      58.092  -1.717  30.148  0.00  0.00     0.014 A 
BRANCH  17  20
ATOM     20  N   UNL d   1      59.767  -1.788  28.754  0.00  0.00    -0.208 NA
ATOM     21  C   UNL d   1      60.453  -2.165  29.004  0.00  0.00     0.279 C 
ATOM     22  O   UNL d   1      60.599  -2.266  29.810  0.00  0.00    -0.265 OA
ATOM     23  C   UNL d   1      61.001  -2.447  28.455  0.00  0.00     0.068 C 
ENDBRANCH  17  20
ENDBRANCH   1  14
TORSDOF 3
ENDMDL
