MODEL 1
REMARK VINA RESULT:      17.9      0.000      0.000
REMARK  1 active torsions:
REMARK  status: ('A' for Active; 'I' for Inactive)
REMARK    1  A    between atoms: O_15  and  C_11 
ROOT
ATOM      1  C   UNL d   1      59.390  49.677  51.056  0.00  0.00     0.139 A 
ATOM      2  N   UNL d   1      58.711  49.665  51.554  0.00  0.00    -0.241 NA
ATOM      3  C   UNL d   1      59.128  49.693  50.281  0.00  0.00     0.025 A 
ATOM      4  C   UNL d   1      58.302  49.691  50.276  0.00  0.00     0.021 A 
ATOM      5  C   UNL d   1      58.055  49.674  51.059  0.00  0.00     0.082 A 
ATOM      6  C   UNL d   1      60.217  49.676  51.243  0.00  0.00     0.297 A 
ATOM      7  N   UNL d   1      60.764  49.690  50.630  0.00  0.00    -0.205 NA
ATOM      8  C   UNL d   1      57.747  49.702  49.675  0.00  0.00     0.026 A 
ATOM      9  O   UNL d   1      60.471  49.660  52.045  0.00  0.00    -0.264 OA
ATOM     10  C   UNL d   1      57.254  49.668  51.246  0.00  0.00     0.021 A 
ATOM     11  C   UNL d   1      56.943  49.696  49.863  0.00  0.00     0.094 A 
ATOM     12  C   UNL d   1      59.704  49.708  49.648  0.00  0.00     0.022 A 
ATOM     13  C   UNL d   1      60.509  49.706  49.829  0.00  0.00     0.102 A 
ATOM     14  C   UNL d   1      56.695  49.679  50.620  0.00  0.00     0.026 A 
ENDROOT
BRANCH  11  15
ATOM     15  O   UNL d   1      56.356  49.707  49.277  0.00  0.00    -0.328 OA
ATOM     16  C   UNL d   1      56.045  48.995  48.966  0.00  0.00     0.181 C 
ENDBRANCH  11  15
TORSDOF 1
ENDMDL
MODEL 2
REMARK VINA RESULT:      17.9      1.004      3.521
REMARK  1 active torsions:
REMARK  status: ('A' for Active; 'I' for Inactive)
REMARK    1  A    between atoms: O_15  and  C_11 
ROOT
ATOM      1  C   UNL d   1      57.545  49.656  49.964  0.00  0.00     0.139 A 
ATOM      2  N   UNL d   1      58.240  49.640  49.489  0.00  0.00    -0.241 NA
ATOM      3  C   UNL d   1      57.781  49.679  50.747  0.00  0.00     0.025 A 
ATOM      4  C   UNL d   1      58.607  49.678  50.779  0.00  0.00     0.021 A 
ATOM      5  C   UNL d   1      58.879  49.654  50.005  0.00  0.00     0.082 A 
ATOM      6  C   UNL d   1      56.725  49.651  49.750  0.00  0.00     0.297 A 
ATOM      7  N   UNL d   1      56.158  49.669  50.345  0.00  0.00    -0.205 NA
ATOM      8  C   UNL d   1      59.142  49.696  51.398  0.00  0.00     0.026 A 
ATOM      9  O   UNL d   1      56.497  49.627  48.940  0.00  0.00    -0.264 OA
ATOM     10  C   UNL d   1      59.686  49.648  49.845  0.00  0.00     0.021 A 
ATOM     11  C   UNL d   1      59.952  49.689  51.237  0.00  0.00     0.094 A 
ATOM     12  C   UNL d   1      57.185  49.698  51.361  0.00  0.00     0.022 A 
ATOM     13  C   UNL d   1      56.386  49.693  51.153  0.00  0.00     0.102 A 
ATOM     14  C   UNL d   1      60.224  49.667  50.488  0.00  0.00     0.026 A 
ENDROOT
BRANCH  11  15
ATOM     15  O   UNL d   1      60.519  49.706  51.842  0.00  0.00    -0.328 OA
ATOM     16  C   UNL d   1      61.336  49.706  51.665  0.00  0.00     0.181 C 
ENDBRANCH  11  15
TORSDOF 1
ENDMDL
