MODEL 1
REMARK VINA RESULT:      -7.0      0.000      0.000
REMARK  4 active torsions:
REMARK  status: ('A' for Active; 'I' for Inactive)
REMARK    1  A    between atoms: S_7  and  C_1 
REMARK       I    between atoms: N_5  and  C_9 
REMARK    2  A    between atoms: C_10  and  S_7 
REMARK    3  A    between atoms: C_15  and  N_8 
REMARK    4  A    between atoms: C_9  and  C_10 
ROOT
ATOM      1  N   UNL d   1     -47.526  11.639  23.359  0.00  0.00    -0.269 N 
ATOM      2  N   UNL d   1     -45.922  11.235  23.340  0.00  0.00    -0.301 N 
ATOM      3  C   UNL d   1     -48.335  11.837  23.370  0.00  0.00     0.271 C 
ATOM      4  C   UNL d   1     -46.971  12.159  23.032  0.00  0.00     0.102 A 
ATOM      5  C   UNL d   1     -47.283  10.917  23.676  0.00  0.00     0.102 A 
ATOM      6  C   UNL d   1     -46.481  10.718  23.666  0.00  0.00     0.100 A 
ATOM      7  C   UNL d   1     -46.175  11.960  23.023  0.00  0.00     0.100 A 
ATOM      8  O   UNL d   1     -48.887  11.314  23.698  0.00  0.00    -0.266 OA
ENDROOT
BRANCH   3   9
ATOM      9  C   UNL d   1     -48.575  12.562  23.051  0.00  0.00     0.097 C 
BRANCH   9  10
ATOM     10  S   UNL d   1     -49.367  12.787  23.114  0.00  0.00    -0.080 SA
BRANCH  10  11
ATOM     11  C   UNL d   1     -49.653  13.411  22.644  0.00  0.00     0.049 A 
ATOM     12  C   UNL d   1     -49.899  13.356  21.862  0.00  0.00     0.087 A 
ATOM     13  N   UNL d   1     -50.139  14.105  21.612  0.00  0.00    -0.245 NA
ATOM     14  C   UNL d   1     -49.901  12.666  21.411  0.00  0.00     0.021 C 
ATOM     15  C   UNL d   1     -50.036  14.622  22.256  0.00  0.00     0.082 A 
ATOM     16  C   UNL d   1     -49.737  14.189  22.889  0.00  0.00     0.025 A 
ATOM     17  C   UNL d   1     -50.181  15.432  22.336  0.00  0.00     0.019 A 
ATOM     18  C   UNL d   1     -49.582  14.566  23.602  0.00  0.00     0.002 A 
ATOM     19  C   UNL d   1     -49.722  15.373  23.694  0.00  0.00     0.000 A 
ATOM     20  C   UNL d   1     -50.025  15.804  23.048  0.00  0.00     0.002 A 
ENDBRANCH  10  11
ENDBRANCH   9  10
ENDBRANCH   3   9
BRANCH   2  21
ATOM     21  C   UNL d   1     -45.125  11.031  23.333  0.00  0.00     0.064 A 
ATOM     22  C   UNL d   1     -44.576  11.523  22.962  0.00  0.00     0.018 A 
ATOM     23  C   UNL d   1     -43.769  11.311  22.957  0.00  0.00     0.002 A 
ATOM     24  C   UNL d   1     -43.524  10.611  23.324  0.00  0.00     0.000 A 
ATOM     25  C   UNL d   1     -44.075  10.123  23.693  0.00  0.00     0.002 A 
ATOM     26  C   UNL d   1     -44.868  10.332  23.698  0.00  0.00     0.018 A 
ENDBRANCH   2  21
TORSDOF 4
ENDMDL
MODEL 2
REMARK VINA RESULT:      -6.9      1.339      2.116
REMARK  4 active torsions:
REMARK  status: ('A' for Active; 'I' for Inactive)
REMARK    1  A    between atoms: S_7  and  C_1 
REMARK       I    between atoms: N_5  and  C_9 
REMARK    2  A    between atoms: C_10  and  S_7 
REMARK    3  A    between atoms: C_15  and  N_8 
REMARK    4  A    between atoms: C_9  and  C_10 
ROOT
ATOM      1  N   UNL d   1     -46.569  13.356  22.834  0.00  0.00    -0.269 N 
ATOM      2  N   UNL d   1     -45.659  12.006  23.135  0.00  0.00    -0.301 N 
ATOM      3  C   UNL d   1     -47.022  14.037  22.681  0.00  0.00     0.271 C 
ATOM      4  C   UNL d   1     -46.918  12.687  23.177  0.00  0.00     0.102 A 
ATOM      5  C   UNL d   1     -45.766  13.353  22.641  0.00  0.00     0.102 A 
ATOM      6  C   UNL d   1     -45.314  12.678  22.793  0.00  0.00     0.100 A 
ATOM      7  C   UNL d   1     -46.467  12.018  23.326  0.00  0.00     0.100 A 
ATOM      8  O   UNL d   1     -46.669  14.703  22.338  0.00  0.00    -0.266 OA
ENDROOT
BRANCH   3   9
ATOM      9  C   UNL d   1     -47.826  14.036  22.876  0.00  0.00     0.097 C 
BRANCH   9  10
ATOM     10  S   UNL d   1     -48.346  14.508  22.440  0.00  0.00    -0.080 SA
BRANCH  10  11
ATOM     11  C   UNL d   1     -49.165  14.449  22.579  0.00  0.00     0.049 A 
ATOM     12  C   UNL d   1     -49.602  14.906  23.102  0.00  0.00     0.087 A 
ATOM     13  N   UNL d   1     -50.390  14.663  23.064  0.00  0.00    -0.245 NA
ATOM     14  C   UNL d   1     -49.299  15.504  23.581  0.00  0.00     0.021 C 
ATOM     15  C   UNL d   1     -50.428  14.047  22.506  0.00  0.00     0.082 A 
ATOM     16  C   UNL d   1     -49.670  13.919  22.210  0.00  0.00     0.025 A 
ATOM     17  C   UNL d   1     -51.063  13.591  22.236  0.00  0.00     0.019 A 
ATOM     18  C   UNL d   1     -49.548  13.336  21.645  0.00  0.00     0.002 A 
ATOM     19  C   UNL d   1     -50.172  12.876  21.368  0.00  0.00     0.000 A 
ATOM     20  C   UNL d   1     -50.937  13.011  21.673  0.00  0.00     0.002 A 
ENDBRANCH  10  11
ENDBRANCH   9  10
ENDBRANCH   3   9
BRANCH   2  21
ATOM     21  C   UNL d   1     -45.203  11.338  23.283  0.00  0.00     0.064 A 
ATOM     22  C   UNL d   1     -45.563  10.644  23.549  0.00  0.00     0.018 A 
ATOM     23  C   UNL d   1     -45.096   9.968  23.698  0.00  0.00     0.002 A 
ATOM     24  C   UNL d   1     -44.278   9.998  23.578  0.00  0.00     0.000 A 
ATOM     25  C   UNL d   1     -43.923  10.692  23.313  0.00  0.00     0.002 A 
ATOM     26  C   UNL d   1     -44.382  11.356  23.167  0.00  0.00     0.018 A 
ENDBRANCH   2  21
TORSDOF 4
ENDMDL
MODEL 3
REMARK VINA RESULT:      -6.3      1.030      1.320
REMARK  4 active torsions:
REMARK  status: ('A' for Active; 'I' for Inactive)
REMARK    1  A    between atoms: S_7  and  C_1 
REMARK       I    between atoms: N_5  and  C_9 
REMARK    2  A    between atoms: C_10  and  S_7 
REMARK    3  A    between atoms: C_15  and  N_8 
REMARK    4  A    between atoms: C_9  and  C_10 
ROOT
ATOM      1  N   UNL d   1     -47.161  12.461  22.911  0.00  0.00    -0.269 N 
ATOM      2  N   UNL d   1     -45.578  12.508  22.433  0.00  0.00    -0.301 N 
ATOM      3  C   UNL d   1     -47.957  12.432  23.155  0.00  0.00     0.271 C 
ATOM      4  C   UNL d   1     -46.907  13.033  22.369  0.00  0.00     0.102 A 
ATOM      5  C   UNL d   1     -46.626  11.910  23.215  0.00  0.00     0.102 A 
ATOM      6  C   UNL d   1     -45.836  11.936  22.975  0.00  0.00     0.100 A 
ATOM      7  C   UNL d   1     -46.122  13.057  22.132  0.00  0.00     0.100 A 
ATOM      8  O   UNL d   1     -48.206  11.858  23.697  0.00  0.00    -0.266 OA
ENDROOT
BRANCH   3   9
ATOM      9  C   UNL d   1     -48.490  12.986  22.847  0.00  0.00     0.097 C 
BRANCH   9  10
ATOM     10  S   UNL d   1     -49.267  12.994  23.128  0.00  0.00    -0.080 SA
BRANCH  10  11
ATOM     11  C   UNL d   1     -49.831  13.480  22.755  0.00  0.00     0.049 A 
ATOM     12  C   UNL d   1     -50.286  13.281  22.101  0.00  0.00     0.087 A 
ATOM     13  N   UNL d   1     -50.769  13.924  21.916  0.00  0.00    -0.245 NA
ATOM     14  C   UNL d   1     -50.258  12.560  21.703  0.00  0.00     0.021 C 
ATOM     15  C   UNL d   1     -50.602  14.523  22.469  0.00  0.00     0.082 A 
ATOM     16  C   UNL d   1     -50.023  14.244  22.984  0.00  0.00     0.025 A 
ATOM     17  C   UNL d   1     -50.910  15.284  22.562  0.00  0.00     0.019 A 
ATOM     18  C   UNL d   1     -49.752  14.727  23.590  0.00  0.00     0.002 A 
ATOM     19  C   UNL d   1     -50.051  15.487  23.692  0.00  0.00     0.000 A 
ATOM     20  C   UNL d   1     -50.638  15.762  23.167  0.00  0.00     0.002 A 
ENDBRANCH  10  11
ENDBRANCH   9  10
ENDBRANCH   3   9
BRANCH   2  21
ATOM     21  C   UNL d   1     -44.790  12.527  22.198  0.00  0.00     0.064 A 
ATOM     22  C   UNL d   1     -44.535  13.095  21.656  0.00  0.00     0.018 A 
ATOM     23  C   UNL d   1     -43.734  13.111  21.420  0.00  0.00     0.002 A 
ATOM     24  C   UNL d   1     -43.202  12.559  21.732  0.00  0.00     0.000 A 
ATOM     25  C   UNL d   1     -43.460  11.994  22.272  0.00  0.00     0.002 A 
ATOM     26  C   UNL d   1     -44.247  11.979  22.503  0.00  0.00     0.018 A 
ENDBRANCH   2  21
TORSDOF 4
ENDMDL
MODEL 4
REMARK VINA RESULT:      -4.8      8.824     11.003
REMARK  4 active torsions:
REMARK  status: ('A' for Active; 'I' for Inactive)
REMARK    1  A    between atoms: S_7  and  C_1 
REMARK       I    between atoms: N_5  and  C_9 
REMARK    2  A    between atoms: C_10  and  S_7 
REMARK    3  A    between atoms: C_15  and  N_8 
REMARK    4  A    between atoms: C_9  and  C_10 
ROOT
ATOM      1  N   UNL d   1     -38.432  13.678  17.382  0.00  0.00    -0.269 N 
ATOM      2  N   UNL d   1     -38.238  13.863  15.749  0.00  0.00    -0.301 N 
ATOM      3  C   UNL d   1     -38.528  13.579  18.203  0.00  0.00     0.271 C 
ATOM      4  C   UNL d   1     -38.595  14.407  17.024  0.00  0.00     0.102 A 
ATOM      5  C   UNL d   1     -38.172  13.040  16.926  0.00  0.00     0.102 A 
ATOM      6  C   UNL d   1     -38.076  13.136  16.111  0.00  0.00     0.100 A 
ATOM      7  C   UNL d   1     -38.500  14.499  16.214  0.00  0.00     0.100 A 
ATOM      8  O   UNL d   1     -38.363  12.849  18.556  0.00  0.00    -0.266 OA
ENDROOT
BRANCH   3   9
ATOM      9  C   UNL d   1     -38.789  14.221  18.656  0.00  0.00     0.097 C 
BRANCH   9  10
ATOM     10  S   UNL d   1     -38.937  14.112  19.461  0.00  0.00    -0.080 SA
BRANCH  10  11
ATOM     11  C   UNL d   1     -39.179  14.759  19.924  0.00  0.00     0.049 A 
ATOM     12  C   UNL d   1     -38.723  15.415  20.117  0.00  0.00     0.087 A 
ATOM     13  N   UNL d   1     -39.180  15.920  20.583  0.00  0.00    -0.245 NA
ATOM     14  C   UNL d   1     -37.943  15.539  19.882  0.00  0.00     0.021 C 
ATOM     15  C   UNL d   1     -39.926  15.563  20.673  0.00  0.00     0.082 A 
ATOM     16  C   UNL d   1     -39.920  14.848  20.264  0.00  0.00     0.025 A 
ATOM     17  C   UNL d   1     -40.605  15.806  21.077  0.00  0.00     0.019 A 
ATOM     18  C   UNL d   1     -40.592  14.376  20.260  0.00  0.00     0.002 A 
ATOM     19  C   UNL d   1     -41.275  14.608  20.659  0.00  0.00     0.000 A 
ATOM     20  C   UNL d   1     -41.273  15.334  21.071  0.00  0.00     0.002 A 
ENDBRANCH  10  11
ENDBRANCH   9  10
ENDBRANCH   3   9
BRANCH   2  21
ATOM     21  C   UNL d   1     -38.141  13.950  14.937  0.00  0.00     0.064 A 
ATOM     22  C   UNL d   1     -38.120  13.284  14.450  0.00  0.00     0.018 A 
ATOM     23  C   UNL d   1     -38.021  13.377  13.626  0.00  0.00     0.002 A 
ATOM     24  C   UNL d   1     -37.944  14.135  13.304  0.00  0.00     0.000 A 
ATOM     25  C   UNL d   1     -37.965  14.797  13.793  0.00  0.00     0.002 A 
ATOM     26  C   UNL d   1     -38.063  14.705  14.602  0.00  0.00     0.018 A 
ENDBRANCH   2  21
TORSDOF 4
ENDMDL
MODEL 5
REMARK VINA RESULT:      -4.6      1.137      5.634
REMARK  4 active torsions:
REMARK  status: ('A' for Active; 'I' for Inactive)
REMARK    1  A    between atoms: S_7  and  C_1 
REMARK       I    between atoms: N_5  and  C_9 
REMARK    2  A    between atoms: C_10  and  S_7 
REMARK    3  A    between atoms: C_15  and  N_8 
REMARK    4  A    between atoms: C_9  and  C_10 
ROOT
ATOM      1  N   UNL d   1     -48.252  12.598  23.110  0.00  0.00    -0.269 N 
ATOM      2  N   UNL d   1     -49.373  13.814  23.058  0.00  0.00    -0.301 N 
ATOM      3  C   UNL d   1     -47.692  11.982  23.138  0.00  0.00     0.271 C 
ATOM      4  C   UNL d   1     -48.018  13.371  22.928  0.00  0.00     0.102 A 
ATOM      5  C   UNL d   1     -49.045  12.430  23.267  0.00  0.00     0.102 A 
ATOM      6  C   UNL d   1     -49.602  13.039  23.240  0.00  0.00     0.100 A 
ATOM      7  C   UNL d   1     -48.573  13.975  22.902  0.00  0.00     0.100 A 
ATOM      8  O   UNL d   1     -47.931  11.211  23.320  0.00  0.00    -0.266 OA
ENDROOT
BRANCH   3   9
ATOM      9  C   UNL d   1     -46.898  12.155  22.980  0.00  0.00     0.097 C 
BRANCH   9  10
ATOM     10  S   UNL d   1     -46.310  11.795  23.435  0.00  0.00    -0.080 SA
BRANCH  10  11
ATOM     11  C   UNL d   1     -45.525  11.794  23.161  0.00  0.00     0.049 A 
ATOM     12  C   UNL d   1     -45.161  12.391  22.730  0.00  0.00     0.087 A 
ATOM     13  N   UNL d   1     -44.383  12.163  22.575  0.00  0.00    -0.245 NA
ATOM     14  C   UNL d   1     -45.519  13.096  22.496  0.00  0.00     0.021 C 
ATOM     15  C   UNL d   1     -44.276  11.413  22.919  0.00  0.00     0.082 A 
ATOM     16  C   UNL d   1     -44.982  11.190  23.279  0.00  0.00     0.025 A 
ATOM     17  C   UNL d   1     -43.619  10.911  22.945  0.00  0.00     0.019 A 
ATOM     18  C   UNL d   1     -45.032  10.467  23.665  0.00  0.00     0.002 A 
ATOM     19  C   UNL d   1     -44.384   9.959  23.698  0.00  0.00     0.000 A 
ATOM     20  C   UNL d   1     -43.672  10.192  23.330  0.00  0.00     0.002 A 
ENDBRANCH  10  11
ENDBRANCH   9  10
ENDBRANCH   3   9
BRANCH   2  21
ATOM     21  C   UNL d   1     -49.933  14.416  23.033  0.00  0.00     0.064 A 
ATOM     22  C   UNL d   1     -50.013  14.932  23.673  0.00  0.00     0.018 A 
ATOM     23  C   UNL d   1     -50.583  15.540  23.643  0.00  0.00     0.002 A 
ATOM     24  C   UNL d   1     -51.064  15.623  22.974  0.00  0.00     0.000 A 
ATOM     25  C   UNL d   1     -50.981  15.106  22.339  0.00  0.00     0.002 A 
ATOM     26  C   UNL d   1     -50.420  14.508  22.369  0.00  0.00     0.018 A 
ENDBRANCH   2  21
TORSDOF 4
ENDMDL
