MODEL 1
REMARK VINA RESULT:      28.7      0.000      0.000
REMARK  4 active torsions:
REMARK  status: ('A' for Active; 'I' for Inactive)
REMARK    1  A    between atoms: C_5  and  N_1 
REMARK    2  A    between atoms: C_9  and  C_3 
REMARK    3  A    between atoms: C_7  and  C_4 
REMARK    4  A    between atoms: N_10  and  C_5 
ROOT
ATOM      1  N   UNL d   1      45.830 -16.880  43.021  0.00  0.00    -0.203 N 
ATOM      2  N   UNL d   1      45.690 -16.068  43.102  0.00  0.00    -0.163 NA
ATOM      3  C   UNL d   1      45.739 -15.856  43.879  0.00  0.00     0.103 A 
ATOM      4  C   UNL d   1      45.974 -17.196  43.780  0.00  0.00     0.087 A 
ATOM      5  C   UNL d   1      45.919 -16.568  44.316  0.00  0.00     0.040 A 
ENDROOT
BRANCH   4   6
ATOM      6  C   UNL d   1      46.142 -17.977  43.992  0.00  0.00     0.018 A 
ATOM      7  C   UNL d   1      45.978 -18.256  44.745  0.00  0.00     0.002 A 
ATOM      8  C   UNL d   1      46.145 -19.034  44.955  0.00  0.00     0.007 A 
ATOM      9  C   UNL d   1      46.481 -19.540  44.402  0.00  0.00     0.035 A 
ATOM     10  C   UNL d   1      46.647 -19.280  43.660  0.00  0.00     0.007 A 
ATOM     11 BR   UNL d   1      46.644 -20.329  44.636  0.00  0.00    -0.049 Br
ATOM     12  C   UNL d   1      46.479 -18.498  43.448  0.00  0.00     0.002 A 
ENDBRANCH   4   6
BRANCH   1  13
ATOM     13  C   UNL d   1      45.829 -17.319  42.301  0.00  0.00     0.222 C 
ATOM     14  S   UNL d   1      46.566 -17.477  41.917  0.00  0.00    -0.037 SA
BRANCH  13  15
ATOM     15  N   UNL d   1      45.110 -17.603  41.957  0.00  0.00    -0.214 NA
ATOM     16  C   UNL d   1      45.137 -18.139  41.322  0.00  0.00     0.122 C 
ENDBRANCH  13  15
ENDBRANCH   1  13
BRANCH   3  17
ATOM     17  C   UNL d   1      45.630 -15.084  44.175  0.00  0.00     0.019 A 
ATOM     18  C   UNL d   1      46.206 -14.505  44.066  0.00  0.00     0.002 A 
ATOM     19  C   UNL d   1      46.078 -13.737  44.370  0.00  0.00     0.000 A 
ATOM     20  C   UNL d   1      45.386 -13.565  44.772  0.00  0.00     0.000 A 
ATOM     21  C   UNL d   1      44.821 -14.157  44.871  0.00  0.00     0.000 A 
ATOM     22  C   UNL d   1      44.939 -14.903  44.579  0.00  0.00     0.002 A 
ENDBRANCH   3  17
TORSDOF 4
ENDMDL
MODEL 2
REMARK VINA RESULT:      30.8      1.783      2.733
REMARK  4 active torsions:
REMARK  status: ('A' for Active; 'I' for Inactive)
REMARK    1  A    between atoms: C_5  and  N_1 
REMARK    2  A    between atoms: C_9  and  C_3 
REMARK    3  A    between atoms: C_7  and  C_4 
REMARK    4  A    between atoms: N_10  and  C_5 
ROOT
ATOM      1  N   UNL d   1      46.026 -18.588  43.443  0.00  0.00    -0.203 N 
ATOM      2  N   UNL d   1      45.903 -17.989  44.001  0.00  0.00    -0.163 NA
ATOM      3  C   UNL d   1      45.907 -17.269  43.639  0.00  0.00     0.103 A 
ATOM      4  C   UNL d   1      46.112 -18.230  42.693  0.00  0.00     0.087 A 
ATOM      5  C   UNL d   1      46.040 -17.414  42.807  0.00  0.00     0.040 A 
ENDROOT
BRANCH   4   6
ATOM      6  C   UNL d   1      46.244 -18.590  41.960  0.00  0.00     0.018 A 
ATOM      7  C   UNL d   1      46.350 -19.401  41.900  0.00  0.00     0.002 A 
ATOM      8  C   UNL d   1      46.482 -19.757  41.170  0.00  0.00     0.007 A 
ATOM      9  C   UNL d   1      46.508 -19.295  40.491  0.00  0.00     0.035 A 
ATOM     10  C   UNL d   1      46.406 -18.499  40.537  0.00  0.00     0.007 A 
ATOM     11 BR   UNL d   1      46.643 -19.678  39.757  0.00  0.00    -0.049 Br
ATOM     12  C   UNL d   1      46.274 -18.140  41.270  0.00  0.00     0.002 A 
ENDBRANCH   4   6
BRANCH   1  13
ATOM     13  C   UNL d   1      46.059 -19.416  43.595  0.00  0.00     0.222 C 
ATOM     14  S   UNL d   1      45.590 -19.940  43.123  0.00  0.00    -0.037 SA
BRANCH  13  15
ATOM     15  N   UNL d   1      46.549 -19.734  44.207  0.00  0.00    -0.214 NA
ATOM     16  C   UNL d   1      46.204 -20.038  44.900  0.00  0.00     0.122 C 
ENDBRANCH  13  15
ENDBRANCH   1  13
BRANCH   3  17
ATOM     17  C   UNL d   1      45.801 -16.537  44.023  0.00  0.00     0.019 A 
ATOM     18  C   UNL d   1      45.115 -16.379  44.450  0.00  0.00     0.002 A 
ATOM     19  C   UNL d   1      45.027 -15.639  44.828  0.00  0.00     0.000 A 
ATOM     20  C   UNL d   1      45.620 -15.077  44.773  0.00  0.00     0.000 A 
ATOM     21  C   UNL d   1      46.301 -15.253  44.342  0.00  0.00     0.000 A 
ATOM     22  C   UNL d   1      46.391 -15.968  43.973  0.00  0.00     0.002 A 
ENDBRANCH   3  17
TORSDOF 4
ENDMDL
