MODEL 1
REMARK VINA RESULT:      51.7      0.000      0.000
REMARK  5 active torsions:
REMARK  status: ('A' for Active; 'I' for Inactive)
REMARK    1  A    between atoms: N_8  and  C_2 
REMARK    2  A    between atoms: S_5  and  C_13 
REMARK    3  A    between atoms: C_17  and  S_5 
REMARK       I    between atoms: C_9  and  N_8 
REMARK    4  A    between atoms: C_12  and  C_9 
REMARK    5  A    between atoms: C_13  and  C_12 
ROOT
ATOM      1  N   UNL d   1     -49.724  26.685  33.403  0.00  0.00    -0.183 NA
ATOM      2  C   UNL d   1     -49.632  27.131  34.095  0.00  0.00     0.282 C 
ATOM      3  O   UNL d   1     -50.055  26.913  34.781  0.00  0.00    -0.265 OA
ENDROOT
BRANCH   1   4
ATOM      4  C   UNL d   1     -50.220  26.041  33.385  0.00  0.00     0.197 A 
ATOM      5  S   UNL d   1     -49.985  25.258  33.385  0.00  0.00    -0.044 SA
ATOM      6  C   UNL d   1     -50.676  24.796  33.364  0.00  0.00     0.088 A 
ATOM      7  C   UNL d   1     -51.329  25.290  33.350  0.00  0.00     0.089 A 
ATOM      8  C   UNL d   1     -50.781  23.964  33.354  0.00  0.00     0.199 A 
ATOM      9  N   UNL d   1     -51.039  26.056  33.364  0.00  0.00    -0.221 NA
ATOM     10  C   UNL d   1     -52.091  24.981  33.328  0.00  0.00    -0.003 A 
ATOM     11  C   UNL d   1     -52.201  24.169  33.319  0.00  0.00     0.042 A 
ATOM     12  C   UNL d   1     -51.550  23.664  33.332  0.00  0.00     0.020 A 
ATOM     13  C   UNL d   1     -52.859  24.663  33.306  0.00  0.00     0.009 C 
ATOM     14  C   UNL d   1     -52.317  23.351  33.309  0.00  0.00     0.009 C 
ATOM     15  O   UNL d   1     -50.128  23.462  33.367  0.00  0.00    -0.286 OA
ENDBRANCH   1   4
BRANCH   2  16
ATOM     16  C   UNL d   1     -49.136  27.775  34.113  0.00  0.00     0.075 C 
BRANCH  16  17
ATOM     17  C   UNL d   1     -48.576  27.798  34.601  0.00  0.00     0.104 C 
BRANCH  17  18
ATOM     18  S   UNL d   1     -48.211  28.464  34.953  0.00  0.00     0.211 S 
ATOM     19  O   UNL d   1     -47.667  28.507  34.325  0.00  0.00    -0.217 OA
ATOM     20  O   UNL d   1     -48.765  28.417  35.589  0.00  0.00    -0.217 OA
BRANCH  18  21
ATOM     21  C   UNL d   1     -47.856  29.122  35.306  0.00  0.00     0.088 A 
ATOM     22  C   UNL d   1     -47.623  29.093  36.097  0.00  0.00     0.011 A 
ATOM     23  C   UNL d   1     -47.266  29.752  36.452  0.00  0.00     0.001 A 
ATOM     24  C   UNL d   1     -47.145  30.436  36.011  0.00  0.00     0.000 A 
ATOM     25  C   UNL d   1     -47.374  30.477  35.219  0.00  0.00     0.001 A 
ATOM     26  C   UNL d   1     -47.732  29.815  34.865  0.00  0.00     0.011 A 
ENDBRANCH  18  21
ENDBRANCH  17  18
ENDBRANCH  16  17
ENDBRANCH   2  16
TORSDOF 5
ENDMDL
