MODEL 1
REMARK VINA RESULT:      44.9      0.000      0.000
REMARK  7 active torsions:
REMARK  status: ('A' for Active; 'I' for Inactive)
REMARK    1  A    between atoms: C_19  and  N_5 
REMARK    2  A    between atoms: C_12  and  C_6 
REMARK       I    between atoms: N_20  and  C_12 
REMARK    3  A    between atoms: C_21  and  C_19 
REMARK    4  A    between atoms: C_26  and  N_20 
REMARK    5  A    between atoms: C_23  and  C_26 
REMARK    6  A    between atoms: C_27  and  C_23 
REMARK    7  A    between atoms: O_24  and  C_27 
ROOT
ATOM      1  C   UNL d   1      14.804  14.006  -1.135  0.00  0.00     0.155 A 
ATOM      2  C   UNL d   1      14.401  14.276  -1.802  0.00  0.00     0.091 A 
ATOM      3  N   UNL d   1      15.222  14.535  -0.662  0.00  0.00    -0.210 NA
ATOM      4  N   UNL d   1      14.828  15.609  -1.535  0.00  0.00    -0.258 N 
ATOM      5  N   UNL d   1      14.789  13.205  -0.940  0.00  0.00    -0.274 N 
ATOM      6  C   UNL d   1      13.969  12.932  -2.074  0.00  0.00     0.094 A 
ATOM      7  C   UNL d   1      14.409  15.079  -2.007  0.00  0.00     0.269 A 
ATOM      8  C   UNL d   1      14.373  12.666  -1.406  0.00  0.00     0.175 A 
ATOM      9  C   UNL d   1      15.238  15.339  -0.857  0.00  0.00     0.152 A 
ATOM     10  C   UNL d   1      13.978  13.736  -2.279  0.00  0.00     0.016 A 
ATOM     11  C   UNL d   1      14.843  16.413  -1.729  0.00  0.00     0.084 A 
ATOM     12  C   UNL d   1      15.653  15.870  -0.388  0.00  0.00     0.038 A 
ATOM     13  N   UNL d   1      14.359  11.861  -1.209  0.00  0.00    -0.128 N 
ATOM     14  C   UNL d   1      15.261  16.942  -1.257  0.00  0.00     0.018 A 
ATOM     15  C   UNL d   1      15.670  16.668  -0.580  0.00  0.00     0.005 A 
ATOM     16  O   UNL d   1      14.004  15.342  -2.676  0.00  0.00    -0.266 OA
ATOM     17  C   UNL d   1      15.283  17.747  -1.443  0.00  0.00     0.002 C 
ENDROOT
BRANCH   6  18
ATOM     18  C   UNL d   1      13.553  12.401  -2.544  0.00  0.00     0.282 C 
ATOM     19  O   UNL d   1      12.934  11.958  -2.225  0.00  0.00    -0.265 OA
ATOM     20  N   UNL d   1      13.752  12.309  -3.338  0.00  0.00    -0.206 NA
BRANCH  20  21
ATOM     21  C   UNL d   1      13.342  11.780  -3.818  0.00  0.00     0.104 C 
BRANCH  21  22
ATOM     22  C   UNL d   1      12.924  12.043  -4.477  0.00  0.00     0.047 C 
BRANCH  22  23
ATOM     23  C   UNL d   1      13.335  12.355  -5.120  0.00  0.00     0.118 C 
BRANCH  23  24
ATOM     24  O   UNL d   1      13.689  11.853  -5.676  0.00  0.00    -0.326 OA
ATOM     25  C   UNL d   1      14.143  12.163  -6.291  0.00  0.00     0.181 C 
ENDBRANCH  23  24
ENDBRANCH  22  23
ENDBRANCH  21  22
ENDBRANCH  20  21
ENDBRANCH   6  18
BRANCH   5  26
ATOM     26  C   UNL d   1      15.193  12.935  -0.272  0.00  0.00     0.083 C 
BRANCH  26  27
ATOM     27  C   UNL d   1      15.259  12.125  -0.121  0.00  0.00     0.019 C 
ATOM     28  C   UNL d   1      16.002  11.781  -0.017  0.00  0.00     0.002 C 
ENDBRANCH  26  27
ENDBRANCH   5  26
TORSDOF 7
ENDMDL
MODEL 2
REMARK VINA RESULT:      46.8      1.874      3.875
REMARK  7 active torsions:
REMARK  status: ('A' for Active; 'I' for Inactive)
REMARK    1  A    between atoms: C_19  and  N_5 
REMARK    2  A    between atoms: C_12  and  C_6 
REMARK       I    between atoms: N_20  and  C_12 
REMARK    3  A    between atoms: C_21  and  C_19 
REMARK    4  A    between atoms: C_26  and  N_20 
REMARK    5  A    between atoms: C_23  and  C_26 
REMARK    6  A    between atoms: C_27  and  C_23 
REMARK    7  A    between atoms: O_24  and  C_27 
ROOT
ATOM      1  C   UNL d   1      13.540  13.809  -4.281  0.00  0.00     0.155 A 
ATOM      2  C   UNL d   1      13.797  14.083  -3.546  0.00  0.00     0.091 A 
ATOM      3  N   UNL d   1      13.586  14.296  -4.942  0.00  0.00    -0.210 NA
ATOM      4  N   UNL d   1      14.151  15.337  -4.124  0.00  0.00    -0.258 N 
ATOM      5  N   UNL d   1      13.236  13.047  -4.353  0.00  0.00    -0.274 N 
ATOM      6  C   UNL d   1      13.441  12.820  -2.960  0.00  0.00     0.094 A 
ATOM      7  C   UNL d   1      14.105  14.849  -3.462  0.00  0.00     0.269 A 
ATOM      8  C   UNL d   1      13.185  12.550  -3.696  0.00  0.00     0.175 A 
ATOM      9  C   UNL d   1      13.891  15.062  -4.871  0.00  0.00     0.152 A 
ATOM     10  C   UNL d   1      13.749  13.586  -2.876  0.00  0.00     0.016 A 
ATOM     11  C   UNL d   1      14.457  16.103  -4.053  0.00  0.00     0.084 A 
ATOM     12  C   UNL d   1      13.939  15.552  -5.529  0.00  0.00     0.038 A 
ATOM     13  N   UNL d   1      12.879  11.783  -3.770  0.00  0.00    -0.128 N 
ATOM     14  C   UNL d   1      14.503  16.590  -4.715  0.00  0.00     0.018 A 
ATOM     15  C   UNL d   1      14.242  16.312  -5.460  0.00  0.00     0.005 A 
ATOM     16  O   UNL d   1      14.360  15.116  -2.724  0.00  0.00    -0.266 OA
ATOM     17  C   UNL d   1      14.806  17.356  -4.653  0.00  0.00     0.002 C 
ENDROOT
BRANCH   6  18
ATOM     18  C   UNL d   1      13.393  12.331  -2.301  0.00  0.00     0.282 C 
ATOM     19  O   UNL d   1      12.770  11.796  -2.222  0.00  0.00    -0.265 OA
ATOM     20  N   UNL d   1      13.970  12.373  -1.714  0.00  0.00    -0.206 NA
BRANCH  20  21
ATOM     21  C   UNL d   1      13.933  11.888  -1.049  0.00  0.00     0.104 C 
BRANCH  21  22
ATOM     22  C   UNL d   1      14.504  11.934  -0.459  0.00  0.00     0.047 C 
BRANCH  22  23
ATOM     23  C   UNL d   1      14.745  12.674  -0.184  0.00  0.00     0.118 C 
BRANCH  23  24
ATOM     24  O   UNL d   1      15.542  12.820  -0.015  0.00  0.00    -0.326 OA
ATOM     25  C   UNL d   1      15.870  13.564  -0.157  0.00  0.00     0.181 C 
ENDBRANCH  23  24
ENDBRANCH  22  23
ENDBRANCH  21  22
ENDBRANCH  20  21
ENDBRANCH   6  18
BRANCH   5  26
ATOM     26  C   UNL d   1      12.978  12.773  -5.088  0.00  0.00     0.083 C 
BRANCH  26  27
ATOM     27  C   UNL d   1      13.300  12.086  -5.416  0.00  0.00     0.019 C 
ATOM     28  C   UNL d   1      13.247  11.949  -6.229  0.00  0.00     0.002 C 
ENDBRANCH  26  27
ENDBRANCH   5  26
TORSDOF 7
ENDMDL
