MODEL 1
REMARK VINA RESULT:      17.7      0.000      0.000
REMARK  3 active torsions:
REMARK  status: ('A' for Active; 'I' for Inactive)
REMARK    1  A    between atoms: N_6  and  S_1 
REMARK    2  A    between atoms: C_11  and  S_1 
REMARK    3  A    between atoms: C_2  and  N_6 
ROOT
ATOM      1  C   UNL d   1      46.182 -18.075  44.077  0.00  0.00     0.106 A 
ATOM      2  C   UNL d   1      46.361 -19.324  43.473  0.00  0.00     0.110 A 
ATOM      3  C   UNL d   1      46.274 -18.871  44.152  0.00  0.00     0.090 A 
ATOM      4  C   UNL d   1      46.356 -18.998  42.740  0.00  0.00     0.217 A 
ATOM      5  C   UNL d   1      46.176 -17.734  43.325  0.00  0.00     0.035 A 
ATOM      6  C   UNL d   1      46.264 -18.201  42.661  0.00  0.00     0.099 A 
ATOM      7  O   UNL d   1      46.446 -19.472  42.052  0.00  0.00    -0.285 OA
ATOM      8 CL   UNL d   1      46.464 -20.200  43.533  0.00  0.00    -0.078 Cl
ATOM      9 CL   UNL d   1      46.281 -19.225  44.913  0.00  0.00    -0.080 Cl
ATOM     10 CL   UNL d   1      46.255 -17.829  41.886  0.00  0.00    -0.079 Cl
ENDROOT
BRANCH   1  11
ATOM     11  N   UNL d   1      46.095 -17.621  44.756  0.00  0.00    -0.158 NA
BRANCH  11  12
ATOM     12  S   UNL d   1      45.879 -16.817  44.688  0.00  0.00     0.285 S 
ATOM     13  O   UNL d   1      46.647 -16.637  44.431  0.00  0.00    -0.198 OA
ATOM     14  O   UNL d   1      45.087 -17.008  44.954  0.00  0.00    -0.198 OA
BRANCH  12  15
ATOM     15  C   UNL d   1      45.637 -15.997  44.625  0.00  0.00     0.105 A 
ATOM     16  C   UNL d   1      46.119 -15.422  44.254  0.00  0.00     0.013 A 
ATOM     17  C   UNL d   1      45.872 -14.629  44.199  0.00  0.00     0.001 A 
ATOM     18  C   UNL d   1      45.141 -14.419  44.519  0.00  0.00     0.000 A 
ATOM     19  C   UNL d   1      44.664 -14.958  44.879  0.00  0.00     0.001 A 
ATOM     20  C   UNL d   1      44.906 -15.787  44.944  0.00  0.00     0.013 A 
ENDBRANCH  12  15
ENDBRANCH  11  12
ENDBRANCH   1  11
TORSDOF 3
ENDMDL
