MODEL 1
REMARK VINA RESULT:      36.0      0.000      0.000
REMARK  3 active torsions:
REMARK  status: ('A' for Active; 'I' for Inactive)
REMARK    1  A    between atoms: C_7  and  N_1 
REMARK    2  A    between atoms: C_13  and  C_7 
REMARK    3  A    between atoms: O_18  and  C_10 
ROOT
ATOM      1  N   UNL d   1     -57.206 -98.762 -44.736  0.00  0.00    -0.226 N 
ATOM      2  C   UNL d   1     -57.568 -98.770 -45.436  0.00  0.00     0.343 A 
ATOM      3  N   UNL d   1     -58.463 -98.777 -45.356  0.00  0.00    -0.241 N 
ATOM      4  C   UNL d   1     -57.648 -98.762 -44.121  0.00  0.00     0.273 A 
ATOM      5  C   UNL d   1     -58.718 -98.774 -44.666  0.00  0.00     0.158 A 
ATOM      6  C   UNL d   1     -58.306 -98.766 -43.947  0.00  0.00     0.113 A 
ATOM      7  N   UNL d   1     -59.545 -98.781 -44.670  0.00  0.00    -0.226 NA
ATOM      8  O   UNL d   1     -57.443 -98.772 -45.975  0.00  0.00    -0.245 OA
ATOM      9  C   UNL d   1     -58.721 -98.764 -43.232  0.00  0.00     0.103 A 
ATOM     10  O   UNL d   1     -57.356 -98.756 -43.677  0.00  0.00    -0.266 OA
ATOM     11  C   UNL d   1     -58.893 -98.784 -45.983  0.00  0.00     0.105 C 
ATOM     12  C   UNL d   1     -59.960 -98.779 -43.955  0.00  0.00     0.103 A 
ATOM     13  C   UNL d   1     -59.548 -98.771 -43.236  0.00  0.00     0.045 A 
ENDROOT
BRANCH   1  14
ATOM     14  C   UNL d   1     -56.384 -98.755 -44.682  0.00  0.00     0.087 C 
BRANCH  14  15
ATOM     15  C   UNL d   1     -55.961 -99.457 -44.625  0.00  0.00     0.018 A 
ATOM     16  C   UNL d   1     -56.361-100.193 -44.677  0.00  0.00     0.002 A 
ATOM     17  C   UNL d   1     -55.953-100.894 -44.622  0.00  0.00     0.011 A 
ATOM     18  C   UNL d   1     -55.144-100.876 -44.515  0.00  0.00     0.058 A 
ATOM     19  C   UNL d   1     -54.739-100.154 -44.462  0.00  0.00     0.011 A 
ATOM     20 CL   UNL d   1     -54.726-101.585 -44.458  0.00  0.00    -0.082 Cl
ATOM     21  C   UNL d   1     -55.143 -99.455 -44.516  0.00  0.00     0.002 A 
ENDBRANCH  14  15
ENDBRANCH   1  14
BRANCH   9  22
ATOM     22  O   UNL d   1     -58.242 -98.755 -42.446  0.00  0.00    -0.328 OA
ATOM     23  C   UNL d   1     -58.625 -98.830 -41.719  0.00  0.00     0.181 C 
ENDBRANCH   9  22
TORSDOF 3
ENDMDL
MODEL 2
REMARK VINA RESULT:      37.3      0.763      1.939
REMARK  3 active torsions:
REMARK  status: ('A' for Active; 'I' for Inactive)
REMARK    1  A    between atoms: C_7  and  N_1 
REMARK    2  A    between atoms: C_13  and  C_7 
REMARK    3  A    between atoms: O_18  and  C_10 
ROOT
ATOM      1  N   UNL d   1     -57.137 -98.755 -43.905  0.00  0.00    -0.226 N 
ATOM      2  C   UNL d   1     -57.452 -98.755 -43.183  0.00  0.00     0.343 A 
ATOM      3  N   UNL d   1     -58.351 -98.756 -43.203  0.00  0.00    -0.241 N 
ATOM      4  C   UNL d   1     -57.619 -98.755 -44.490  0.00  0.00     0.273 A 
ATOM      5  C   UNL d   1     -58.650 -98.756 -43.875  0.00  0.00     0.158 A 
ATOM      6  C   UNL d   1     -58.287 -98.755 -44.620  0.00  0.00     0.113 A 
ATOM      7  N   UNL d   1     -59.476 -98.756 -43.817  0.00  0.00    -0.226 NA
ATOM      8  O   UNL d   1     -57.292 -98.756 -42.653  0.00  0.00    -0.245 OA
ATOM      9  C   UNL d   1     -58.749 -98.755 -45.306  0.00  0.00     0.103 A 
ATOM     10  O   UNL d   1     -57.357 -98.755 -44.953  0.00  0.00    -0.266 OA
ATOM     11  C   UNL d   1     -58.739 -98.756 -42.549  0.00  0.00     0.105 C 
ATOM     12  C   UNL d   1     -59.937 -98.756 -44.502  0.00  0.00     0.103 A 
ATOM     13  C   UNL d   1     -59.573 -98.756 -45.247  0.00  0.00     0.045 A 
ENDROOT
BRANCH   1  14
ATOM     14  C   UNL d   1     -56.320 -98.755 -44.014  0.00  0.00     0.087 C 
BRANCH  14  15
ATOM     15  C   UNL d   1     -55.918 -99.454 -44.167  0.00  0.00     0.018 A 
ATOM     16  C   UNL d   1     -56.297-100.193 -44.043  0.00  0.00     0.002 A 
ATOM     17  C   UNL d   1     -55.908-100.891 -44.191  0.00  0.00     0.011 A 
ATOM     18  C   UNL d   1     -55.139-100.868 -44.463  0.00  0.00     0.058 A 
ATOM     19  C   UNL d   1     -54.754-100.144 -44.588  0.00  0.00     0.011 A 
ATOM     20 CL   UNL d   1     -54.740-101.574 -44.614  0.00  0.00    -0.082 Cl
ATOM     21  C   UNL d   1     -55.139 -99.447 -44.442  0.00  0.00     0.002 A 
ENDBRANCH  14  15
ENDBRANCH   1  14
BRANCH   9  22
ATOM     22  O   UNL d   1     -58.323 -98.755 -46.122  0.00  0.00    -0.328 OA
ATOM     23  C   UNL d   1     -58.757 -98.767 -46.823  0.00  0.00     0.181 C 
ENDBRANCH   9  22
TORSDOF 3
ENDMDL
