MODEL 1
REMARK VINA RESULT:      -7.1      0.000      0.000
REMARK  6 active torsions:
REMARK  status: ('A' for Active; 'I' for Inactive)
REMARK    1  A    between atoms: N_3  and  C_1 
REMARK    2  A    between atoms: C_4  and  C_2 
REMARK       I    between atoms: C_6  and  N_3 
REMARK    3  A    between atoms: C_11  and  C_6 
REMARK    4  A    between atoms: C_13  and  C_11 
REMARK    5  A    between atoms: O_19  and  C_14 
REMARK    6  A    between atoms: C_20  and  O_19 
ROOT
ATOM      1  N   UNL d   1     -49.342  13.769  22.973  0.00  0.00    -0.201 NA
ATOM      2  C   UNL d   1     -48.732  13.220  22.892  0.00  0.00     0.280 C 
ATOM      3  O   UNL d   1     -48.756  12.658  22.275  0.00  0.00    -0.265 OA
ENDROOT
BRANCH   2   4
ATOM      4  C   UNL d   1     -48.095  13.224  23.420  0.00  0.00     0.062 C 
BRANCH   4   5
ATOM      5  C   UNL d   1     -47.317  13.287  23.130  0.00  0.00     0.005 A 
ATOM      6  C   UNL d   1     -47.007  14.026  22.933  0.00  0.00     0.002 A 
ATOM      7  C   UNL d   1     -46.236  14.084  22.646  0.00  0.00     0.025 A 
ATOM      8  C   UNL d   1     -45.768  13.393  22.554  0.00  0.00     0.100 A 
ATOM      9  C   UNL d   1     -46.083  12.661  22.752  0.00  0.00     0.025 A 
ATOM     10  C   UNL d   1     -46.850  12.596  23.038  0.00  0.00     0.002 A 
BRANCH   8  11
ATOM     11  O   UNL d   1     -44.992  13.466  22.264  0.00  0.00    -0.305 OA
BRANCH  11  12
ATOM     12  C   UNL d   1     -44.639  12.862  21.834  0.00  0.00     0.123 C 
ATOM     13  C   UNL d   1     -43.892  12.958  21.507  0.00  0.00     0.029 C 
ENDBRANCH  11  12
ENDBRANCH   8  11
ENDBRANCH   4   5
ENDBRANCH   2   4
BRANCH   1  14
ATOM     14  C   UNL d   1     -49.979  13.759  22.439  0.00  0.00     0.119 A 
ATOM     15  C   UNL d   1     -50.529  14.367  22.348  0.00  0.00     0.084 A 
ATOM     16  C   UNL d   1     -51.064  14.136  21.765  0.00  0.00     0.014 A 
ATOM     17  C   UNL d   1     -50.845  13.377  21.491  0.00  0.00     0.037 A 
ATOM     18  S   UNL d   1     -50.172  13.158  21.918  0.00  0.00    -0.067 SA
BRANCH  15  19
ATOM     19  C   UNL d   1     -50.554  15.089  22.761  0.00  0.00     0.299 C 
ATOM     20  O   UNL d   1     -50.129  15.737  22.504  0.00  0.00    -0.264 OA
ATOM     21  N   UNL d   1     -51.020  15.144  23.447  0.00  0.00    -0.102 N 
ENDBRANCH  15  19
ENDBRANCH   1  14
TORSDOF 6
ENDMDL
MODEL 2
REMARK VINA RESULT:      -6.8      1.356      1.556
REMARK  6 active torsions:
REMARK  status: ('A' for Active; 'I' for Inactive)
REMARK    1  A    between atoms: N_3  and  C_1 
REMARK    2  A    between atoms: C_4  and  C_2 
REMARK       I    between atoms: C_6  and  N_3 
REMARK    3  A    between atoms: C_11  and  C_6 
REMARK    4  A    between atoms: C_13  and  C_11 
REMARK    5  A    between atoms: O_19  and  C_14 
REMARK    6  A    between atoms: C_20  and  O_19 
ROOT
ATOM      1  N   UNL d   1     -49.179  13.083  23.031  0.00  0.00    -0.201 NA
ATOM      2  C   UNL d   1     -48.747  12.380  23.029  0.00  0.00     0.280 C 
ATOM      3  O   UNL d   1     -48.761  11.885  22.356  0.00  0.00    -0.265 OA
ENDROOT
BRANCH   2   4
ATOM      4  C   UNL d   1     -48.300  12.164  23.690  0.00  0.00     0.062 C 
BRANCH   4   5
ATOM      5  C   UNL d   1     -47.494  11.976  23.602  0.00  0.00     0.005 A 
ATOM      6  C   UNL d   1     -46.949  12.569  23.420  0.00  0.00     0.002 A 
ATOM      7  C   UNL d   1     -46.151  12.379  23.333  0.00  0.00     0.025 A 
ATOM      8  C   UNL d   1     -45.894  11.586  23.429  0.00  0.00     0.100 A 
ATOM      9  C   UNL d   1     -46.441  11.002  23.610  0.00  0.00     0.025 A 
ATOM     10  C   UNL d   1     -47.237  11.183  23.698  0.00  0.00     0.002 A 
BRANCH   8  11
ATOM     11  O   UNL d   1     -45.086  11.409  23.338  0.00  0.00    -0.305 OA
BRANCH  11  12
ATOM     12  C   UNL d   1     -44.808  10.639  23.409  0.00  0.00     0.123 C 
ATOM     13  C   UNL d   1     -44.012  10.468  23.303  0.00  0.00     0.029 C 
ENDBRANCH  11  12
ENDBRANCH   8  11
ENDBRANCH   4   5
ENDBRANCH   2   4
BRANCH   1  14
ATOM     14  C   UNL d   1     -49.626  13.295  22.363  0.00  0.00     0.119 A 
ATOM     15  C   UNL d   1     -50.023  14.011  22.268  0.00  0.00     0.084 A 
ATOM     16  C   UNL d   1     -50.395  13.997  21.533  0.00  0.00     0.014 A 
ATOM     17  C   UNL d   1     -50.227  13.263  21.167  0.00  0.00     0.037 A 
ATOM     18  S   UNL d   1     -49.751  12.841  21.694  0.00  0.00    -0.067 SA
BRANCH  15  19
ATOM     19  C   UNL d   1     -50.052  14.645  22.807  0.00  0.00     0.299 C 
ATOM     20  O   UNL d   1     -50.607  14.663  23.408  0.00  0.00    -0.264 OA
ATOM     21  N   UNL d   1     -49.507  15.267  22.727  0.00  0.00    -0.102 N 
ENDBRANCH  15  19
ENDBRANCH   1  14
TORSDOF 6
ENDMDL
MODEL 3
REMARK VINA RESULT:      -5.3      8.801      9.615
REMARK  6 active torsions:
REMARK  status: ('A' for Active; 'I' for Inactive)
REMARK    1  A    between atoms: N_3  and  C_1 
REMARK    2  A    between atoms: C_4  and  C_2 
REMARK       I    between atoms: C_6  and  N_3 
REMARK    3  A    between atoms: C_11  and  C_6 
REMARK    4  A    between atoms: C_13  and  C_11 
REMARK    5  A    between atoms: O_19  and  C_14 
REMARK    6  A    between atoms: C_20  and  O_19 
ROOT
ATOM      1  N   UNL d   1     -40.152  15.784  18.693  0.00  0.00    -0.201 NA
ATOM      2  C   UNL d   1     -39.719  15.821  19.393  0.00  0.00     0.280 C 
ATOM      3  O   UNL d   1     -38.884  15.808  19.368  0.00  0.00    -0.265 OA
ENDROOT
BRANCH   2   4
ATOM      4  C   UNL d   1     -40.108  15.873  20.121  0.00  0.00     0.062 C 
BRANCH   4   5
ATOM      5  C   UNL d   1     -39.901  15.354  20.739  0.00  0.00     0.005 A 
ATOM      6  C   UNL d   1     -39.349  15.587  21.306  0.00  0.00     0.002 A 
ATOM      7  C   UNL d   1     -39.146  15.070  21.917  0.00  0.00     0.025 A 
ATOM      8  C   UNL d   1     -39.500  14.311  21.961  0.00  0.00     0.100 A 
ATOM      9  C   UNL d   1     -40.049  14.086  21.393  0.00  0.00     0.025 A 
ATOM     10  C   UNL d   1     -40.255  14.595  20.782  0.00  0.00     0.002 A 
BRANCH   8  11
ATOM     11  O   UNL d   1     -39.287  13.799  22.582  0.00  0.00    -0.305 OA
BRANCH  11  12
ATOM     12  C   UNL d   1     -38.500  13.630  22.743  0.00  0.00     0.123 C 
ATOM     13  C   UNL d   1     -38.293  13.166  23.389  0.00  0.00     0.029 C 
ENDBRANCH  11  12
ENDBRANCH   8  11
ENDBRANCH   4   5
ENDBRANCH   2   4
BRANCH   1  14
ATOM     14  C   UNL d   1     -39.755  15.732  17.964  0.00  0.00     0.119 A 
ATOM     15  C   UNL d   1     -40.107  15.526  17.248  0.00  0.00     0.084 A 
ATOM     16  C   UNL d   1     -39.522  15.541  16.667  0.00  0.00     0.014 A 
ATOM     17  C   UNL d   1     -38.799  15.760  17.026  0.00  0.00     0.037 A 
ATOM     18  S   UNL d   1     -38.961  15.874  17.829  0.00  0.00    -0.067 SA
BRANCH  15  19
ATOM     19  C   UNL d   1     -40.906  15.333  17.117  0.00  0.00     0.299 C 
ATOM     20  O   UNL d   1     -41.188  14.580  17.261  0.00  0.00    -0.264 OA
ATOM     21  N   UNL d   1     -41.420  15.922  16.835  0.00  0.00    -0.102 N 
ENDBRANCH  15  19
ENDBRANCH   1  14
TORSDOF 6
ENDMDL
MODEL 4
REMARK VINA RESULT:      -5.1      8.595      9.760
REMARK  6 active torsions:
REMARK  status: ('A' for Active; 'I' for Inactive)
REMARK    1  A    between atoms: N_3  and  C_1 
REMARK    2  A    between atoms: C_4  and  C_2 
REMARK       I    between atoms: C_6  and  N_3 
REMARK    3  A    between atoms: C_11  and  C_6 
REMARK    4  A    between atoms: C_13  and  C_11 
REMARK    5  A    between atoms: O_19  and  C_14 
REMARK    6  A    between atoms: C_20  and  O_19 
ROOT
ATOM      1  N   UNL d   1     -40.114  14.427  20.669  0.00  0.00    -0.201 NA
ATOM      2  C   UNL d   1     -40.410  14.798  19.994  0.00  0.00     0.280 C 
ATOM      3  O   UNL d   1     -40.393  15.630  19.935  0.00  0.00    -0.265 OA
ENDROOT
BRANCH   2   4
ATOM      4  C   UNL d   1     -40.724  14.347  19.375  0.00  0.00     0.062 C 
BRANCH   4   5
ATOM      5  C   UNL d   1     -40.361  14.362  18.627  0.00  0.00     0.005 A 
ATOM      6  C   UNL d   1     -39.801  13.789  18.427  0.00  0.00     0.002 A 
ATOM      7  C   UNL d   1     -39.443  13.807  17.684  0.00  0.00     0.025 A 
ATOM      8  C   UNL d   1     -39.647  14.406  17.133  0.00  0.00     0.100 A 
ATOM      9  C   UNL d   1     -40.204  14.973  17.338  0.00  0.00     0.025 A 
ATOM     10  C   UNL d   1     -40.564  14.961  18.076  0.00  0.00     0.002 A 
BRANCH   8  11
ATOM     11  O   UNL d   1     -39.278  14.412  16.387  0.00  0.00    -0.305 OA
BRANCH  11  12
ATOM     12  C   UNL d   1     -38.521  14.715  16.288  0.00  0.00     0.123 C 
ATOM     13  C   UNL d   1     -38.151  14.691  15.556  0.00  0.00     0.029 C 
ENDBRANCH  11  12
ENDBRANCH   8  11
ENDBRANCH   4   5
ENDBRANCH   2   4
BRANCH   1  14
ATOM     14  C   UNL d   1     -39.799  14.886  21.287  0.00  0.00     0.119 A 
ATOM     15  C   UNL d   1     -39.297  14.603  21.876  0.00  0.00     0.084 A 
ATOM     16  C   UNL d   1     -39.116  15.233  22.376  0.00  0.00     0.014 A 
ATOM     17  C   UNL d   1     -39.511  15.915  22.094  0.00  0.00     0.037 A 
ATOM     18  S   UNL d   1     -39.929  15.683  21.420  0.00  0.00    -0.067 SA
BRANCH  15  19
ATOM     19  C   UNL d   1     -39.014  13.826  21.966  0.00  0.00     0.299 C 
ATOM     20  O   UNL d   1     -38.337  13.576  21.582  0.00  0.00    -0.264 OA
ATOM     21  N   UNL d   1     -39.431  13.300  22.455  0.00  0.00    -0.102 N 
ENDBRANCH  15  19
ENDBRANCH   1  14
TORSDOF 6
ENDMDL
MODEL 5
REMARK VINA RESULT:      -4.4      8.005     10.237
REMARK  6 active torsions:
REMARK  status: ('A' for Active; 'I' for Inactive)
REMARK    1  A    between atoms: N_3  and  C_1 
REMARK    2  A    between atoms: C_4  and  C_2 
REMARK       I    between atoms: C_6  and  N_3 
REMARK    3  A    between atoms: C_11  and  C_6 
REMARK    4  A    between atoms: C_13  and  C_11 
REMARK    5  A    between atoms: O_19  and  C_14 
REMARK    6  A    between atoms: C_20  and  O_19 
ROOT
ATOM      1  N   UNL d   1     -39.668  15.433  19.677  0.00  0.00    -0.201 NA
ATOM      2  C   UNL d   1     -39.031  15.601  19.181  0.00  0.00     0.280 C 
ATOM      3  O   UNL d   1     -38.251  15.559  19.476  0.00  0.00    -0.265 OA
ENDROOT
BRANCH   2   4
ATOM      4  C   UNL d   1     -39.162  15.811  18.392  0.00  0.00     0.062 C 
BRANCH   4   5
ATOM      5  C   UNL d   1     -38.955  15.282  17.783  0.00  0.00     0.005 A 
ATOM      6  C   UNL d   1     -38.165  15.193  17.564  0.00  0.00     0.002 A 
ATOM      7  C   UNL d   1     -37.963  14.667  16.960  0.00  0.00     0.025 A 
ATOM      8  C   UNL d   1     -38.561  14.226  16.570  0.00  0.00     0.100 A 
ATOM      9  C   UNL d   1     -39.345  14.320  16.793  0.00  0.00     0.025 A 
ATOM     10  C   UNL d   1     -39.553  14.840  17.393  0.00  0.00     0.002 A 
BRANCH   8  11
ATOM     11  O   UNL d   1     -38.344  13.700  15.963  0.00  0.00    -0.305 OA
BRANCH  11  12
ATOM     12  C   UNL d   1     -38.015  13.970  15.261  0.00  0.00     0.123 C 
ATOM     13  C   UNL d   1     -37.940  13.473  14.612  0.00  0.00     0.029 C 
ENDBRANCH  11  12
ENDBRANCH   8  11
ENDBRANCH   4   5
ENDBRANCH   2   4
BRANCH   1  14
ATOM     14  C   UNL d   1     -39.530  15.223  20.470  0.00  0.00     0.119 A 
ATOM     15  C   UNL d   1     -40.114  15.008  21.010  0.00  0.00     0.084 A 
ATOM     16  C   UNL d   1     -39.744  14.843  21.728  0.00  0.00     0.014 A 
ATOM     17  C   UNL d   1     -38.920  14.957  21.632  0.00  0.00     0.037 A 
ATOM     18  S   UNL d   1     -38.805  15.192  20.848  0.00  0.00    -0.067 SA
BRANCH  15  19
ATOM     19  C   UNL d   1     -40.934  14.960  20.873  0.00  0.00     0.299 C 
ATOM     20  O   UNL d   1     -41.399  15.632  20.862  0.00  0.00    -0.264 OA
ATOM     21  N   UNL d   1     -41.278  14.215  20.746  0.00  0.00    -0.102 N 
ENDBRANCH  15  19
ENDBRANCH   1  14
TORSDOF 6
ENDMDL
MODEL 6
REMARK VINA RESULT:      -4.4      8.772     10.191
REMARK  6 active torsions:
REMARK  status: ('A' for Active; 'I' for Inactive)
REMARK    1  A    between atoms: N_3  and  C_1 
REMARK    2  A    between atoms: C_4  and  C_2 
REMARK       I    between atoms: C_6  and  N_3 
REMARK    3  A    between atoms: C_11  and  C_6 
REMARK    4  A    between atoms: C_13  and  C_11 
REMARK    5  A    between atoms: O_19  and  C_14 
REMARK    6  A    between atoms: C_20  and  O_19 
ROOT
ATOM      1  N   UNL d   1     -38.898  14.416  19.905  0.00  0.00    -0.201 NA
ATOM      2  C   UNL d   1     -38.531  14.572  19.184  0.00  0.00     0.280 C 
ATOM      3  O   UNL d   1     -37.940  15.159  19.134  0.00  0.00    -0.265 OA
ENDROOT
BRANCH   2   4
ATOM      4  C   UNL d   1     -38.746  14.147  18.507  0.00  0.00     0.062 C 
BRANCH   4   5
ATOM      5  C   UNL d   1     -39.291  14.475  17.969  0.00  0.00     0.005 A 
ATOM      6  C   UNL d   1     -40.048  14.154  17.901  0.00  0.00     0.002 A 
ATOM      7  C   UNL d   1     -40.585  14.481  17.366  0.00  0.00     0.025 A 
ATOM      8  C   UNL d   1     -40.362  15.138  16.894  0.00  0.00     0.100 A 
ATOM      9  C   UNL d   1     -39.607  15.451  16.967  0.00  0.00     0.025 A 
ATOM     10  C   UNL d   1     -39.068  15.131  17.497  0.00  0.00     0.002 A 
BRANCH   8  11
ATOM     11  O   UNL d   1     -40.914  15.458  16.359  0.00  0.00    -0.305 OA
BRANCH  11  12
ATOM     12  C   UNL d   1     -41.635  15.753  16.616  0.00  0.00     0.123 C 
ATOM     13  C   UNL d   1     -42.235  15.922  16.082  0.00  0.00     0.029 C 
ENDBRANCH  11  12
ENDBRANCH   8  11
ENDBRANCH   4   5
ENDBRANCH   2   4
BRANCH   1  14
ATOM     14  C   UNL d   1     -38.677  14.846  20.582  0.00  0.00     0.119 A 
ATOM     15  C   UNL d   1     -39.106  14.874  21.285  0.00  0.00     0.084 A 
ATOM     16  C   UNL d   1     -38.696  15.359  21.810  0.00  0.00     0.014 A 
ATOM     17  C   UNL d   1     -38.004  15.636  21.429  0.00  0.00     0.037 A 
ATOM     18  S   UNL d   1     -38.008  15.309  20.670  0.00  0.00    -0.067 SA
BRANCH  15  19
ATOM     19  C   UNL d   1     -39.824  14.489  21.452  0.00  0.00     0.299 C 
ATOM     20  O   UNL d   1     -40.537  14.791  21.188  0.00  0.00    -0.264 OA
ATOM     21  N   UNL d   1     -39.810  13.785  21.893  0.00  0.00    -0.102 N 
ENDBRANCH  15  19
ENDBRANCH   1  14
TORSDOF 6
ENDMDL
