MODEL 1
REMARK VINA RESULT:      62.1      0.000      0.000
REMARK  8 active torsions:
REMARK  status: ('A' for Active; 'I' for Inactive)
REMARK    1  A    between atoms: N_7  and  N_1 
REMARK    2  A    between atoms: S_9  and  C_2 
REMARK       I    between atoms: C_8  and  N_7 
REMARK    3  A    between atoms: C_19  and  C_8 
REMARK    4  A    between atoms: C_18  and  S_9 
REMARK    5  A    between atoms: C_10  and  C_18 
REMARK       I    between atoms: N_13  and  C_10 
REMARK    6  A    between atoms: C_12  and  C_14 
REMARK    7  A    between atoms: C_14  and  N_13 
REMARK    8  A    between atoms: C_22  and  C_19 
ROOT
ATOM      1  N   UNL d   1      13.427  13.085  -3.402  0.00  0.00    -0.168 N 
ATOM      2  C   UNL d   1      13.739  13.722  -3.792  0.00  0.00     0.199 A 
ATOM      3  C   UNL d   1      13.149  12.432  -3.829  0.00  0.00     0.283 A 
ATOM      4  N   UNL d   1      13.786  13.732  -4.631  0.00  0.00    -0.221 NA
ATOM      5  C   UNL d   1      13.193  12.437  -4.666  0.00  0.00     0.076 A 
ATOM      6  C   UNL d   1      13.512  13.087  -5.063  0.00  0.00     0.088 A 
ATOM      7  O   UNL d   1      12.830  11.780  -3.438  0.00  0.00    -0.265 OA
ATOM      8  C   UNL d   1      12.913  11.780  -5.088  0.00  0.00     0.006 A 
ATOM      9  C   UNL d   1      13.551  13.083  -5.881  0.00  0.00     0.019 A 
ATOM     10  C   UNL d   1      12.959  11.790  -5.914  0.00  0.00     0.000 A 
ATOM     11  C   UNL d   1      13.277  12.439  -6.311  0.00  0.00     0.002 A 
ENDROOT
BRANCH   2  12
ATOM     12  S   UNL d   1      14.012  14.364  -3.372  0.00  0.00    -0.043 SA
BRANCH  12  13
ATOM     13  C   UNL d   1      13.753  15.122  -3.560  0.00  0.00     0.101 C 
BRANCH  13  14
ATOM     14  C   UNL d   1      14.287  15.687  -3.813  0.00  0.00     0.286 C 
ATOM     15  N   UNL d   1      14.161  16.089  -4.517  0.00  0.00    -0.206 NA
ATOM     16  O   UNL d   1      14.956  15.854  -3.359  0.00  0.00    -0.265 OA
BRANCH  15  17
ATOM     17  C   UNL d   1      14.696  16.654  -4.770  0.00  0.00     0.103 C 
BRANCH  17  18
ATOM     18  C   UNL d   1      14.463  17.233  -5.303  0.00  0.00     0.030 A 
ATOM     19  C   UNL d   1      14.839  17.967  -5.313  0.00  0.00     0.059 A 
ATOM     20 CL   UNL d   1      15.454  18.119  -4.784  0.00  0.00    -0.082 Cl
ATOM     21  C   UNL d   1      14.606  18.546  -5.846  0.00  0.00     0.011 A 
ATOM     22  C   UNL d   1      13.992  18.394  -6.375  0.00  0.00     0.001 A 
ATOM     23  C   UNL d   1      13.616  17.657  -6.363  0.00  0.00     0.000 A 
ATOM     24  C   UNL d   1      13.849  17.081  -5.831  0.00  0.00     0.002 A 
ENDBRANCH  17  18
ENDBRANCH  15  17
ENDBRANCH  13  14
ENDBRANCH  12  13
ENDBRANCH   2  12
BRANCH   1  25
ATOM     25  N   UNL d   1      13.383  13.079  -2.587  0.00  0.00    -0.119 NA
ATOM     26  C   UNL d   1      13.724  12.466  -2.168  0.00  0.00     0.296 C 
ATOM     27  O   UNL d   1      14.113  11.852  -2.558  0.00  0.00    -0.264 OA
BRANCH  26  28
ATOM     28  C   UNL d   1      13.678  12.463  -1.342  0.00  0.00     0.064 C 
BRANCH  28  29
ATOM     29  C   UNL d   1      14.337  12.638  -0.902  0.00  0.00     0.005 A 
ATOM     30  C   UNL d   1      14.592  13.421  -0.851  0.00  0.00     0.000 A 
ATOM     31  C   UNL d   1      15.262  13.600  -0.404  0.00  0.00     0.000 A 
ATOM     32  C   UNL d   1      15.667  13.010  -0.018  0.00  0.00     0.000 A 
ATOM     33  C   UNL d   1      15.402  12.225  -0.075  0.00  0.00     0.000 A 
ATOM     34  C   UNL d   1      14.741  12.049  -0.516  0.00  0.00     0.000 A 
ENDBRANCH  28  29
ENDBRANCH  26  28
ENDBRANCH   1  25
TORSDOF 8
ENDMDL
