MODEL 1
REMARK VINA RESULT:      -4.4      0.000      0.000
REMARK  6 active torsions:
REMARK  status: ('A' for Active; 'I' for Inactive)
REMARK    1  A    between atoms: C_6  and  C_2 
REMARK    2  A    between atoms: C_7  and  C_6 
REMARK    3  A    between atoms: C_8  and  C_15 
REMARK       I    between atoms: N_9  and  C_8 
REMARK    4  A    between atoms: C_16  and  N_9 
REMARK    5  A    between atoms: O_13  and  C_12 
REMARK    6  A    between atoms: C_15  and  O_13 
ROOT
ATOM      1  C   UNL d   1      57.489   0.180  31.820  0.00  0.00     0.023 A 
ATOM      2  C   UNL d   1      57.986   0.284  31.170  0.00  0.00     0.100 A 
ATOM      3  C   UNL d   1      57.762   0.325  32.579  0.00  0.00     0.002 A 
ATOM      4  C   UNL d   1      58.763   0.536  31.281  0.00  0.00     0.025 A 
ATOM      5  C   UNL d   1      58.542   0.578  32.700  0.00  0.00     0.000 A 
ATOM      6  C   UNL d   1      59.040   0.682  32.044  0.00  0.00     0.002 A 
ENDROOT
BRANCH   2   7
ATOM      7  O   UNL d   1      57.708   0.137  30.404  0.00  0.00    -0.300 OA
BRANCH   7   8
ATOM      8  C   UNL d   1      58.214  -0.220  29.851  0.00  0.00     0.185 C 
BRANCH   8   9
ATOM      9  C   UNL d   1      58.120  -0.055  29.041  0.00  0.00     0.304 C 
ATOM     10  N   UNL d   1      58.462  -0.559  28.480  0.00  0.00    -0.206 NA
ATOM     11  O   UNL d   1      57.689   0.606  28.801  0.00  0.00    -0.263 OA
BRANCH  10  12
ATOM     12  C   UNL d   1      58.893  -1.219  28.719  0.00  0.00     0.085 A 
ATOM     13  C   UNL d   1      58.494  -1.924  28.906  0.00  0.00     0.019 A 
ATOM     14  C   UNL d   1      58.920  -2.589  29.147  0.00  0.00     0.002 A 
ATOM     15  C   UNL d   1      59.749  -2.552  29.203  0.00  0.00     0.000 A 
ATOM     16  C   UNL d   1      60.140  -1.846  29.015  0.00  0.00     0.002 A 
ATOM     17  C   UNL d   1      59.709  -1.184  28.775  0.00  0.00     0.019 A 
ENDBRANCH  10  12
ENDBRANCH   8   9
ENDBRANCH   7   8
ENDBRANCH   2   7
BRANCH   1  18
ATOM     18  C   UNL d   1      56.708  -0.072  31.712  0.00  0.00     0.013 C 
BRANCH  18  19
ATOM     19  C   UNL d   1      56.201  -0.157  32.356  0.00  0.00     0.092 A 
ATOM     20  C   UNL d   1      55.915  -0.861  32.661  0.00  0.00     0.288 A 
ATOM     21  N   UNL d   1      55.429  -0.688  33.301  0.00  0.00    -0.163 NA
ATOM     22  O   UNL d   1      56.085  -1.617  32.376  0.00  0.00    -0.265 OA
ATOM     23  C   UNL d   1      55.414   0.136  33.394  0.00  0.00     0.313 A 
ATOM     24  S   UNL d   1      55.893   0.466  32.807  0.00  0.00    -0.021 SA
ATOM     25  O   UNL d   1      54.993   0.556  33.973  0.00  0.00    -0.258 OA
ENDBRANCH  18  19
ENDBRANCH   1  18
TORSDOF 6
ENDMDL
MODEL 2
REMARK VINA RESULT:      -2.0      2.289      4.548
REMARK  6 active torsions:
REMARK  status: ('A' for Active; 'I' for Inactive)
REMARK    1  A    between atoms: C_6  and  C_2 
REMARK    2  A    between atoms: C_7  and  C_6 
REMARK    3  A    between atoms: C_8  and  C_15 
REMARK       I    between atoms: N_9  and  C_8 
REMARK    4  A    between atoms: C_16  and  N_9 
REMARK    5  A    between atoms: O_13  and  C_12 
REMARK    6  A    between atoms: C_15  and  O_13 
ROOT
ATOM      1  C   UNL d   1      59.768  -1.332  29.064  0.00  0.00     0.023 A 
ATOM      2  C   UNL d   1      59.459  -0.623  29.350  0.00  0.00     0.100 A 
ATOM      3  C   UNL d   1      60.573  -1.482  29.109  0.00  0.00     0.002 A 
ATOM      4  C   UNL d   1      59.960  -0.059  29.684  0.00  0.00     0.025 A 
ATOM      5  C   UNL d   1      61.083  -0.922  29.442  0.00  0.00     0.000 A 
ATOM      6  C   UNL d   1      60.770  -0.209  29.729  0.00  0.00     0.002 A 
ENDROOT
BRANCH   2   7
ATOM      7  O   UNL d   1      58.646  -0.473  29.304  0.00  0.00    -0.300 OA
BRANCH   7   8
ATOM      8  C   UNL d   1      58.284  -0.011  29.893  0.00  0.00     0.185 C 
BRANCH   8   9
ATOM      9  C   UNL d   1      57.591   0.413  29.715  0.00  0.00     0.304 C 
ATOM     10  N   UNL d   1      57.040   0.562  30.314  0.00  0.00    -0.206 NA
ATOM     11  O   UNL d   1      57.457   0.681  28.947  0.00  0.00    -0.263 OA
BRANCH  10  12
ATOM     12  C   UNL d   1      57.175   0.294  31.082  0.00  0.00     0.085 A 
ATOM     13  C   UNL d   1      56.769  -0.377  31.360  0.00  0.00     0.019 A 
ATOM     14  C   UNL d   1      56.900  -0.651  32.128  0.00  0.00     0.002 A 
ATOM     15  C   UNL d   1      57.438  -0.255  32.622  0.00  0.00     0.000 A 
ATOM     16  C   UNL d   1      57.839   0.413  32.338  0.00  0.00     0.002 A 
ATOM     17  C   UNL d   1      57.704   0.682  31.570  0.00  0.00     0.019 A 
ENDBRANCH  10  12
ENDBRANCH   8   9
ENDBRANCH   7   8
ENDBRANCH   2   7
BRANCH   1  18
ATOM     18  C   UNL d   1      59.267  -1.900  28.729  0.00  0.00     0.013 C 
BRANCH  18  19
ATOM     19  C   UNL d   1      59.444  -2.703  28.789  0.00  0.00     0.092 A 
ATOM     20  C   UNL d   1      58.912  -3.324  28.733  0.00  0.00     0.288 A 
ATOM     21  N   UNL d   1      59.326  -4.028  28.825  0.00  0.00    -0.163 NA
ATOM     22  O   UNL d   1      58.099  -3.255  28.605  0.00  0.00    -0.265 OA
ATOM     23  C   UNL d   1      60.125  -3.841  28.939  0.00  0.00     0.313 A 
ATOM     24  S   UNL d   1      60.198  -3.017  28.917  0.00  0.00    -0.021 SA
ATOM     25  O   UNL d   1      60.743  -4.383  29.056  0.00  0.00    -0.258 OA
ENDBRANCH  18  19
ENDBRANCH   1  18
TORSDOF 6
ENDMDL
