MODEL 1
REMARK VINA RESULT:       3.0      0.000      0.000
REMARK  6 active torsions:
REMARK  status: ('A' for Active; 'I' for Inactive)
REMARK    1  A    between atoms: C_12  and  N_3 
REMARK    2  A    between atoms: C_8  and  C_4 
REMARK    3  A    between atoms: O_23  and  C_11 
REMARK    4  A    between atoms: C_19  and  C_12 
REMARK    5  A    between atoms: N_13  and  C_19 
REMARK    6  A    between atoms: O_26  and  C_17 
ROOT
ATOM      1  C   UNL d   1      57.710  -1.115  30.657  0.00  0.00     0.083 A 
ATOM      2  C   UNL d   1      57.504  -1.874  30.905  0.00  0.00     0.161 A 
ATOM      3  N   UNL d   1      58.362  -1.978  29.891  0.00  0.00    -0.270 N 
ATOM      4  C   UNL d   1      58.235  -1.185  30.036  0.00  0.00     0.074 A 
ATOM      5  C   UNL d   1      57.910  -2.413  30.427  0.00  0.00     0.288 A 
ATOM      6  C   UNL d   1      57.390  -0.456  31.032  0.00  0.00     0.201 A 
ATOM      7  O   UNL d   1      56.976  -1.975  31.528  0.00  0.00    -0.302 OA
ATOM      8  C   UNL d   1      56.862  -0.557  31.656  0.00  0.00     0.064 A 
ATOM      9  C   UNL d   1      56.655  -1.316  31.905  0.00  0.00     0.103 A 
ATOM     10  O   UNL d   1      57.867  -3.235  30.482  0.00  0.00    -0.264 OA
ATOM     11  O   UNL d   1      57.597   0.303  30.784  0.00  0.00    -0.286 OA
ATOM     12  C   UNL d   1      56.547   0.098  32.026  0.00  0.00     0.035 A 
ATOM     13  C   UNL d   1      56.128  -1.417  32.528  0.00  0.00     0.027 A 
ATOM     14  C   UNL d   1      56.014   0.001  32.656  0.00  0.00     0.140 A 
ATOM     15  C   UNL d   1      55.812  -0.762  32.898  0.00  0.00     0.032 A 
ATOM     16  F   UNL d   1      55.693   0.660  33.031  0.00  0.00    -0.204 F 
ENDROOT
BRANCH   4  17
ATOM     17  C   UNL d   1      58.587  -0.561  29.618  0.00  0.00     0.041 A 
ATOM     18  C   UNL d   1      59.338  -0.293  29.823  0.00  0.00     0.118 A 
ATOM     19  C   UNL d   1      59.682   0.326  29.405  0.00  0.00     0.116 A 
ATOM     20  C   UNL d   1      59.274   0.680  28.779  0.00  0.00     0.026 A 
ATOM     21  C   UNL d   1      58.519   0.412  28.573  0.00  0.00     0.002 A 
ATOM     22  C   UNL d   1      58.175  -0.210  28.995  0.00  0.00     0.004 A 
BRANCH  18  23
ATOM     23  O   UNL d   1      59.742  -0.648  30.446  0.00  0.00    -0.326 OA
ATOM     24  C   UNL d   1      60.363  -0.213  30.781  0.00  0.00     0.181 C 
ENDBRANCH  18  23
BRANCH  19  25
ATOM     25  O   UNL d   1      60.436   0.594  29.610  0.00  0.00    -0.326 OA
ATOM     26  C   UNL d   1      61.050   0.557  29.064  0.00  0.00     0.181 C 
ENDBRANCH  19  25
ENDBRANCH   4  17
BRANCH   3  27
ATOM     27  C   UNL d   1      58.853  -2.301  29.312  0.00  0.00     0.102 C 
BRANCH  27  28
ATOM     28  C   UNL d   1      58.791  -3.099  29.106  0.00  0.00     0.100 C 
BRANCH  28  29
ATOM     29  N   UNL d   1      59.463  -3.526  28.889  0.00  0.00    -0.298 N 
ATOM     30  C   UNL d   1      60.157  -3.127  28.695  0.00  0.00     0.107 A 
ATOM     31  C   UNL d   1      60.824  -3.546  28.479  0.00  0.00     0.142 A 
ATOM     32  O   UNL d   1      60.800  -4.376  28.457  0.00  0.00    -0.300 OA
ATOM     33  C   UNL d   1      60.106  -4.776  28.651  0.00  0.00     0.142 A 
ATOM     34  C   UNL d   1      59.433  -4.352  28.868  0.00  0.00     0.107 A 
ENDBRANCH  28  29
ENDBRANCH  27  28
ENDBRANCH   3  27
TORSDOF 6
ENDMDL
