MODEL 1
REMARK VINA RESULT:      32.0      0.000      0.000
REMARK  4 active torsions:
REMARK  status: ('A' for Active; 'I' for Inactive)
REMARK    1  A    between atoms: C_3  and  C_1 
REMARK    2  A    between atoms: N_2  and  C_9 
REMARK    3  A    between atoms: N_6  and  C_3 
REMARK    4  A    between atoms: C_10  and  C_5 
ROOT
ATOM      1  C   UNL d   1     -58.455 -98.992 -43.989  0.00  0.00     0.126 A 
ATOM      2  O   UNL d   1     -57.701 -99.123 -43.666  0.00  0.00    -0.305 OA
ATOM      3  C   UNL d   1     -57.184 -99.218 -44.299  0.00  0.00     0.100 A 
ATOM      4  C   UNL d   1     -58.375 -99.010 -44.784  0.00  0.00     0.029 A 
ATOM      5  C   UNL d   1     -57.612 -99.146 -44.984  0.00  0.00     0.027 A 
ENDROOT
BRANCH   3   6
ATOM      6  C   UNL d   1     -56.367 -99.363 -44.333  0.00  0.00     0.024 A 
ATOM      7  C   UNL d   1     -56.083-100.147 -44.242  0.00  0.00     0.025 A 
ATOM      8  C   UNL d   1     -55.266-100.292 -44.277  0.00  0.00     0.127 A 
ATOM      9  C   UNL d   1     -54.737 -99.664 -44.401  0.00  0.00     0.024 A 
ATOM     10  C   UNL d   1     -55.025 -98.903 -44.488  0.00  0.00     0.002 A 
ATOM     11  C   UNL d   1     -55.837 -98.758 -44.454  0.00  0.00     0.002 A 
BRANCH   8  12
ATOM     12  N   UNL d   1     -54.988-101.052 -44.189  0.00  0.00    -0.114 N 
ATOM     13  O   UNL d   1     -54.720-101.364 -43.465  0.00  0.00    -0.532 OA
ATOM     14  O   UNL d   1     -54.938-101.601 -44.789  0.00  0.00    -0.532 OA
ENDBRANCH   8  12
ENDBRANCH   3   6
BRANCH   1  15
ATOM     15  C   UNL d   1     -59.181 -98.861 -43.595  0.00  0.00     0.143 C 
ATOM     16  S   UNL d   1     -59.878 -98.764 -44.008  0.00  0.00    -0.057 SA
BRANCH  15  17
ATOM     17  N   UNL d   1     -59.214 -98.827 -42.767  0.00  0.00    -0.290 N 
ATOM     18  C   UNL d   1     -58.517 -98.792 -42.360  0.00  0.00     0.108 A 
ATOM     19  C   UNL d   1     -58.558 -98.757 -41.533  0.00  0.00     0.142 A 
ATOM     20  O   UNL d   1     -59.258 -98.758 -41.157  0.00  0.00    -0.300 OA
ATOM     21  C   UNL d   1     -59.950 -98.792 -41.540  0.00  0.00     0.142 A 
ATOM     22  C   UNL d   1     -59.931 -98.828 -42.392  0.00  0.00     0.108 A 
ENDBRANCH  15  17
ENDBRANCH   1  15
TORSDOF 4
ENDMDL
