MODEL 1
REMARK VINA RESULT:      62.6      0.000      0.000
REMARK  5 active torsions:
REMARK  status: ('A' for Active; 'I' for Inactive)
REMARK    1  A    between atoms: N_6  and  S_1 
REMARK    2  A    between atoms: C_7  and  S_1 
REMARK    3  A    between atoms: C_9  and  C_2 
REMARK       I    between atoms: N_16  and  C_9 
REMARK    4  A    between atoms: C_26  and  N_16 
REMARK    5  A    between atoms: C_18  and  C_26 
ROOT
ATOM      1  C   UNL d   1      46.278 -17.391  39.410  0.00  0.00     0.158 A 
ATOM      2  C   UNL d   1      46.387 -17.254  40.219  0.00  0.00     0.029 A 
ATOM      3  O   UNL d   1      46.169 -18.196  39.303  0.00  0.00    -0.302 OA
ATOM      4  C   UNL d   1      46.342 -17.980  40.586  0.00  0.00     0.026 A 
ATOM      5  C   UNL d   1      46.345 -18.960  41.641  0.00  0.00     0.104 A 
ATOM      6  C   UNL d   1      46.207 -18.570  40.029  0.00  0.00     0.100 A 
ATOM      7  C   UNL d   1      46.411 -18.176  41.400  0.00  0.00     0.015 A 
ATOM      8  C   UNL d   1      46.208 -19.554  41.070  0.00  0.00     0.015 A 
ATOM      9  C   UNL d   1      46.141 -19.349  40.271  0.00  0.00     0.025 A 
ATOM     10  C   UNL d   1      46.515 -16.519  40.569  0.00  0.00     0.002 C 
ENDROOT
BRANCH   1  11
ATOM     11  C   UNL d   1      46.294 -16.759  38.882  0.00  0.00     0.302 C 
ATOM     12  N   UNL d   1      45.948 -16.839  38.136  0.00  0.00    -0.203 NA
ATOM     13  O   UNL d   1      46.647 -16.047  39.083  0.00  0.00    -0.263 OA
BRANCH  12  14
ATOM     14  C   UNL d   1      45.959 -16.211  37.599  0.00  0.00     0.129 C 
BRANCH  14  15
ATOM     15  C   UNL d   1      45.246 -15.877  37.321  0.00  0.00     0.144 A 
ATOM     16  O   UNL d   1      44.591 -16.369  37.157  0.00  0.00    -0.301 OA
ATOM     17  C   UNL d   1      43.893 -16.038  36.885  0.00  0.00     0.123 A 
ATOM     18  C   UNL d   1      43.237 -16.515  36.718  0.00  0.00     0.027 A 
ATOM     19  C   UNL d   1      43.830 -15.227  36.772  0.00  0.00     0.123 A 
ATOM     20  C   UNL d   1      42.531 -16.193  36.445  0.00  0.00     0.002 A 
ATOM     21  C   UNL d   1      42.484 -15.372  36.336  0.00  0.00     0.002 A 
ATOM     22  C   UNL d   1      43.127 -14.889  36.497  0.00  0.00     0.027 A 
ATOM     23  O   UNL d   1      44.492 -14.746  36.940  0.00  0.00    -0.301 OA
ATOM     24  C   UNL d   1      45.192 -15.062  37.211  0.00  0.00     0.149 A 
ENDBRANCH  14  15
ENDBRANCH  12  14
ENDBRANCH   1  11
BRANCH   5  25
ATOM     25  S   UNL d   1      46.414 -19.152  42.445  0.00  0.00     0.272 S 
ATOM     26  O   UNL d   1      46.647 -19.921  42.241  0.00  0.00    -0.200 OA
ATOM     27  O   UNL d   1      46.178 -18.374  42.654  0.00  0.00    -0.200 OA
BRANCH  25  28
ATOM     28  N   UNL d   1      46.484 -19.348  43.258  0.00  0.00    -0.225 N 
ATOM     29  C   UNL d   1      46.496 -18.742  43.811  0.00  0.00     0.118 A 
ATOM     30  C   UNL d   1      46.565 -18.921  44.616  0.00  0.00     0.142 A 
ATOM     31  O   UNL d   1      46.622 -19.732  44.862  0.00  0.00    -0.300 OA
ATOM     32  C   UNL d   1      46.607 -20.328  44.290  0.00  0.00     0.142 A 
ATOM     33  C   UNL d   1      46.538 -20.134  43.493  0.00  0.00     0.118 A 
ENDBRANCH  25  28
ENDBRANCH   5  25
TORSDOF 5
ENDMDL
