MODEL 1
REMARK VINA RESULT:      -4.2      0.000      0.000
REMARK  3 active torsions:
REMARK  status: ('A' for Active; 'I' for Inactive)
REMARK    1  A    between atoms: S_9  and  C_3 
REMARK    2  A    between atoms: C_15  and  S_9 
REMARK    3  A    between atoms: C_11  and  C_15 
ROOT
ATOM      1  N   UNL d   1      58.256  -0.612  29.727  0.00  0.00    -0.263 N 
ATOM      2  C   UNL d   1      58.477  -0.055  29.149  0.00  0.00     0.202 A 
ATOM      3  C   UNL d   1      57.814  -0.202  30.302  0.00  0.00     0.202 A 
ATOM      4  N   UNL d   1      58.178   0.682  29.362  0.00  0.00    -0.121 NA
ATOM      5  S   UNL d   1      58.923  -0.464  28.568  0.00  0.00    -0.047 SA
ATOM      6  N   UNL d   1      57.765   0.588  30.080  0.00  0.00    -0.121 NA
ATOM      7  C   UNL d   1      58.558  -1.348  29.508  0.00  0.00     0.074 A 
ATOM      8  C   UNL d   1      58.969  -1.263  28.797  0.00  0.00     0.049 A 
ATOM      9  C   UNL d   1      58.510  -2.086  29.870  0.00  0.00     0.018 A 
ATOM     10  C   UNL d   1      59.324  -1.908  28.455  0.00  0.00     0.008 A 
ATOM     11  C   UNL d   1      58.873  -2.739  29.518  0.00  0.00     0.002 A 
ATOM     12  C   UNL d   1      59.281  -2.645  28.807  0.00  0.00     0.001 A 
ENDROOT
BRANCH   3  13
ATOM     13  S   UNL d   1      57.485  -0.536  30.972  0.00  0.00    -0.047 SA
BRANCH  13  14
ATOM     14  C   UNL d   1      57.124  -0.059  31.535  0.00  0.00     0.045 C 
BRANCH  14  15
ATOM     15  C   UNL d   1      56.727  -0.402  32.174  0.00  0.00     0.036 A 
ATOM     16  S   UNL d   1      56.704  -0.103  32.946  0.00  0.00    -0.086 SA
ATOM     17  C   UNL d   1      56.249  -0.617  33.396  0.00  0.00     0.035 A 
ATOM     18  C   UNL d   1      55.988  -1.232  32.913  0.00  0.00     0.007 A 
ATOM     19  C   UNL d   1      56.288  -1.092  32.157  0.00  0.00     0.007 A 
ENDBRANCH  14  15
ENDBRANCH  13  14
ENDBRANCH   3  13
TORSDOF 3
ENDMDL
MODEL 2
REMARK VINA RESULT:      -3.8      1.024      3.756
REMARK  3 active torsions:
REMARK  status: ('A' for Active; 'I' for Inactive)
REMARK    1  A    between atoms: S_9  and  C_3 
REMARK    2  A    between atoms: C_15  and  S_9 
REMARK    3  A    between atoms: C_11  and  C_15 
ROOT
ATOM      1  N   UNL d   1      57.769  -0.399  30.709  0.00  0.00    -0.263 N 
ATOM      2  C   UNL d   1      57.857   0.427  30.768  0.00  0.00     0.202 A 
ATOM      3  C   UNL d   1      58.241  -0.648  30.070  0.00  0.00     0.202 A 
ATOM      4  N   UNL d   1      58.372   0.682  30.179  0.00  0.00    -0.121 NA
ATOM      5  S   UNL d   1      57.382   0.682  31.411  0.00  0.00    -0.047 SA
ATOM      6  N   UNL d   1      58.611   0.011  29.745  0.00  0.00    -0.121 NA
ATOM      7  C   UNL d   1      57.251  -0.648  31.302  0.00  0.00     0.074 A 
ATOM      8  C   UNL d   1      57.011   0.012  31.736  0.00  0.00     0.049 A 
ATOM      9  C   UNL d   1      56.970  -1.397  31.500  0.00  0.00     0.018 A 
ATOM     10  C   UNL d   1      56.497  -0.079  32.358  0.00  0.00     0.008 A 
ATOM     11  C   UNL d   1      56.447  -1.483  32.133  0.00  0.00     0.002 A 
ATOM     12  C   UNL d   1      56.212  -0.818  32.561  0.00  0.00     0.001 A 
ENDROOT
BRANCH   3  13
ATOM     13  S   UNL d   1      58.321  -1.421  29.814  0.00  0.00    -0.047 SA
BRANCH  13  14
ATOM     14  C   UNL d   1      58.870  -1.607  29.233  0.00  0.00     0.045 C 
BRANCH  14  15
ATOM     15  C   UNL d   1      59.001  -2.396  29.025  0.00  0.00     0.036 A 
ATOM     16  S   UNL d   1      59.629  -2.867  29.287  0.00  0.00    -0.086 SA
ATOM     17  C   UNL d   1      59.542  -3.609  28.945  0.00  0.00     0.035 A 
ATOM     18  C   UNL d   1      58.866  -3.605  28.473  0.00  0.00     0.007 A 
ATOM     19  C   UNL d   1      58.535  -2.850  28.528  0.00  0.00     0.007 A 
ENDBRANCH  14  15
ENDBRANCH  13  14
ENDBRANCH   3  13
TORSDOF 3
ENDMDL
MODEL 3
REMARK VINA RESULT:      -3.7      1.678      1.859
REMARK  3 active torsions:
REMARK  status: ('A' for Active; 'I' for Inactive)
REMARK    1  A    between atoms: S_9  and  C_3 
REMARK    2  A    between atoms: C_15  and  S_9 
REMARK    3  A    between atoms: C_11  and  C_15 
ROOT
ATOM      1  N   UNL d   1      58.657   0.556  29.813  0.00  0.00    -0.263 N 
ATOM      2  C   UNL d   1      58.496   0.645  29.001  0.00  0.00     0.202 A 
ATOM      3  C   UNL d   1      57.921   0.520  30.202  0.00  0.00     0.202 A 
ATOM      4  N   UNL d   1      57.681   0.664  28.891  0.00  0.00    -0.121 NA
ATOM      5  S   UNL d   1      59.235   0.682  28.604  0.00  0.00    -0.047 SA
ATOM      6  N   UNL d   1      57.324   0.586  29.640  0.00  0.00    -0.121 NA
ATOM      7  C   UNL d   1      59.476   0.539  29.916  0.00  0.00     0.074 A 
ATOM      8  C   UNL d   1      59.836   0.615  29.177  0.00  0.00     0.049 A 
ATOM      9  C   UNL d   1      59.937   0.462  30.594  0.00  0.00     0.018 A 
ATOM     10  C   UNL d   1      60.646   0.615  29.121  0.00  0.00     0.008 A 
ATOM     11  C   UNL d   1      60.760   0.462  30.530  0.00  0.00     0.002 A 
ATOM     12  C   UNL d   1      61.112   0.539  29.788  0.00  0.00     0.001 A 
ENDROOT
BRANCH   3  13
ATOM     13  S   UNL d   1      57.817   0.434  31.008  0.00  0.00    -0.047 SA
BRANCH  13  14
ATOM     14  C   UNL d   1      57.102   0.640  31.355  0.00  0.00     0.045 C 
BRANCH  14  15
ATOM     15  C   UNL d   1      56.889   0.319  32.087  0.00  0.00     0.036 A 
ATOM     16  S   UNL d   1      57.051   0.653  32.827  0.00  0.00    -0.086 SA
ATOM     17  C   UNL d   1      56.741   0.151  33.397  0.00  0.00     0.035 A 
ATOM     18  C   UNL d   1      56.389  -0.492  33.022  0.00  0.00     0.007 A 
ATOM     19  C   UNL d   1      56.484  -0.382  32.209  0.00  0.00     0.007 A 
ENDBRANCH  14  15
ENDBRANCH  13  14
ENDBRANCH   3  13
TORSDOF 3
ENDMDL
MODEL 4
REMARK VINA RESULT:      -2.7      9.205      9.495
REMARK  3 active torsions:
REMARK  status: ('A' for Active; 'I' for Inactive)
REMARK    1  A    between atoms: S_9  and  C_3 
REMARK    2  A    between atoms: C_15  and  S_9 
REMARK    3  A    between atoms: C_11  and  C_15 
ROOT
ATOM      1  N   UNL d   1      59.582  -9.725  32.260  0.00  0.00    -0.263 N 
ATOM      2  C   UNL d   1      60.089  -9.746  31.600  0.00  0.00     0.202 A 
ATOM      3  C   UNL d   1      60.067  -9.686  32.936  0.00  0.00     0.202 A 
ATOM      4  N   UNL d   1      60.868  -9.721  31.862  0.00  0.00    -0.121 NA
ATOM      5  S   UNL d   1      59.603  -9.785  30.916  0.00  0.00    -0.047 SA
ATOM      6  N   UNL d   1      60.853  -9.684  32.694  0.00  0.00    -0.121 NA
ATOM      7  C   UNL d   1      58.802  -9.750  31.990  0.00  0.00     0.074 A 
ATOM      8  C   UNL d   1      58.809  -9.787  31.166  0.00  0.00     0.049 A 
ATOM      9  C   UNL d   1      58.085  -9.744  32.397  0.00  0.00     0.018 A 
ATOM     10  C   UNL d   1      58.109  -9.817  30.757  0.00  0.00     0.008 A 
ATOM     11  C   UNL d   1      57.376  -9.775  31.976  0.00  0.00     0.002 A 
ATOM     12  C   UNL d   1      57.393  -9.811  31.151  0.00  0.00     0.001 A 
ENDROOT
BRANCH   3  13
ATOM     13  S   UNL d   1      59.800  -9.656  33.708  0.00  0.00    -0.047 SA
BRANCH  13  14
ATOM     14  C   UNL d   1      60.333  -9.553  34.324  0.00  0.00     0.045 C 
BRANCH  14  15
ATOM     15  C   UNL d   1      60.061  -9.345  35.076  0.00  0.00     0.036 A 
ATOM     16  S   UNL d   1      59.548  -9.794  35.546  0.00  0.00    -0.086 SA
ATOM     17  C   UNL d   1      59.426  -9.379  36.245  0.00  0.00     0.035 A 
ATOM     18  C   UNL d   1      59.857  -8.678  36.215  0.00  0.00     0.007 A 
ATOM     19  C   UNL d   1      60.248  -8.663  35.488  0.00  0.00     0.007 A 
ENDBRANCH  14  15
ENDBRANCH  13  14
ENDBRANCH   3  13
TORSDOF 3
ENDMDL
MODEL 5
REMARK VINA RESULT:      -2.6      9.123      9.289
REMARK  3 active torsions:
REMARK  status: ('A' for Active; 'I' for Inactive)
REMARK    1  A    between atoms: S_9  and  C_3 
REMARK    2  A    between atoms: C_15  and  S_9 
REMARK    3  A    between atoms: C_11  and  C_15 
ROOT
ATOM      1  N   UNL d   1      58.278  -9.817  30.980  0.00  0.00    -0.263 N 
ATOM      2  C   UNL d   1      57.483  -9.817  30.729  0.00  0.00     0.202 A 
ATOM      3  C   UNL d   1      58.268  -9.817  31.813  0.00  0.00     0.202 A 
ATOM      4  N   UNL d   1      56.995  -9.818  31.391  0.00  0.00    -0.121 NA
ATOM      5  S   UNL d   1      57.489  -9.816  29.890  0.00  0.00    -0.047 SA
ATOM      6  N   UNL d   1      57.485  -9.818  32.065  0.00  0.00    -0.121 NA
ATOM      7  C   UNL d   1      58.762  -9.816  30.311  0.00  0.00     0.074 A 
ATOM      8  C   UNL d   1      58.283  -9.815  29.639  0.00  0.00     0.049 A 
ATOM      9  C   UNL d   1      59.582  -9.815  30.234  0.00  0.00     0.018 A 
ATOM     10  C   UNL d   1      58.622  -9.815  28.902  0.00  0.00     0.008 A 
ATOM     11  C   UNL d   1      59.921  -9.814  29.482  0.00  0.00     0.002 A 
ATOM     12  C   UNL d   1      59.435  -9.814  28.814  0.00  0.00     0.001 A 
ENDROOT
BRANCH   3  13
ATOM     13  S   UNL d   1      58.929  -9.817  32.294  0.00  0.00    -0.047 SA
BRANCH  13  14
ATOM     14  C   UNL d   1      58.846  -9.749  33.107  0.00  0.00     0.045 C 
BRANCH  14  15
ATOM     15  C   UNL d   1      59.515  -9.665  33.585  0.00  0.00     0.036 A 
ATOM     16  S   UNL d   1      59.551  -9.814  34.399  0.00  0.00    -0.086 SA
ATOM     17  C   UNL d   1      60.318  -9.658  34.646  0.00  0.00     0.035 A 
ATOM     18  C   UNL d   1      60.762  -9.415  33.995  0.00  0.00     0.007 A 
ATOM     19  C   UNL d   1      60.258  -9.421  33.341  0.00  0.00     0.007 A 
ENDBRANCH  14  15
ENDBRANCH  13  14
ENDBRANCH   3  13
TORSDOF 3
ENDMDL
MODEL 6
REMARK VINA RESULT:      -2.5      2.326      4.931
REMARK  3 active torsions:
REMARK  status: ('A' for Active; 'I' for Inactive)
REMARK    1  A    between atoms: S_9  and  C_3 
REMARK    2  A    between atoms: C_15  and  S_9 
REMARK    3  A    between atoms: C_11  and  C_15 
ROOT
ATOM      1  N   UNL d   1      56.884   0.669  33.534  0.00  0.00    -0.263 N 
ATOM      2  C   UNL d   1      57.163   0.678  34.319  0.00  0.00     0.202 A 
ATOM      3  C   UNL d   1      57.554   0.668  33.039  0.00  0.00     0.202 A 
ATOM      4  N   UNL d   1      57.986   0.682  34.309  0.00  0.00    -0.121 NA
ATOM      5  S   UNL d   1      56.490   0.679  34.821  0.00  0.00    -0.047 SA
ATOM      6  N   UNL d   1      58.228   0.676  33.512  0.00  0.00    -0.121 NA
ATOM      7  C   UNL d   1      56.059   0.665  33.551  0.00  0.00     0.074 A 
ATOM      8  C   UNL d   1      55.812   0.671  34.338  0.00  0.00     0.049 A 
ATOM      9  C   UNL d   1      55.502   0.656  32.944  0.00  0.00     0.018 A 
ATOM     10  C   UNL d   1      55.019   0.668  34.513  0.00  0.00     0.008 A 
ATOM     11  C   UNL d   1      54.698   0.654  33.127  0.00  0.00     0.002 A 
ATOM     12  C   UNL d   1      54.459   0.660  33.917  0.00  0.00     0.001 A 
ENDROOT
BRANCH   3  13
ATOM     13  S   UNL d   1      57.539   0.660  32.222  0.00  0.00    -0.047 SA
BRANCH  13  14
ATOM     14  C   UNL d   1      58.241   0.660  31.797  0.00  0.00     0.045 C 
BRANCH  14  15
ATOM     15  C   UNL d   1      58.234   0.496  30.987  0.00  0.00     0.036 A 
ATOM     16  S   UNL d   1      58.865   0.183  30.552  0.00  0.00    -0.086 SA
ATOM     17  C   UNL d   1      58.616   0.111  29.773  0.00  0.00     0.035 A 
ATOM     18  C   UNL d   1      57.837   0.374  29.718  0.00  0.00     0.007 A 
ATOM     19  C   UNL d   1      57.607   0.612  30.475  0.00  0.00     0.007 A 
ENDBRANCH  14  15
ENDBRANCH  13  14
ENDBRANCH   3  13
TORSDOF 3
ENDMDL
MODEL 7
REMARK VINA RESULT:      -1.6      1.985      4.544
REMARK  3 active torsions:
REMARK  status: ('A' for Active; 'I' for Inactive)
REMARK    1  A    between atoms: S_9  and  C_3 
REMARK    2  A    between atoms: C_15  and  S_9 
REMARK    3  A    between atoms: C_11  and  C_15 
ROOT
ATOM      1  N   UNL d   1      56.599  -0.593  32.574  0.00  0.00    -0.263 N 
ATOM      2  C   UNL d   1      56.007  -1.178  32.558  0.00  0.00     0.202 A 
ATOM      3  C   UNL d   1      56.992  -0.627  31.840  0.00  0.00     0.202 A 
ATOM      4  N   UNL d   1      56.033  -1.564  31.832  0.00  0.00    -0.121 NA
ATOM      5  S   UNL d   1      55.608  -1.147  33.297  0.00  0.00    -0.047 SA
ATOM      6  N   UNL d   1      56.647  -1.219  31.386  0.00  0.00    -0.121 NA
ATOM      7  C   UNL d   1      56.567  -0.210  33.305  0.00  0.00     0.074 A 
ATOM      8  C   UNL d   1      55.961  -0.547  33.752  0.00  0.00     0.049 A 
ATOM      9  C   UNL d   1      57.018   0.405  33.617  0.00  0.00     0.018 A 
ATOM     10  C   UNL d   1      55.810  -0.270  34.501  0.00  0.00     0.008 A 
ATOM     11  C   UNL d   1      56.860   0.682  34.378  0.00  0.00     0.002 A 
ATOM     12  C   UNL d   1      56.251   0.340  34.819  0.00  0.00     0.001 A 
ENDROOT
BRANCH   3  13
ATOM     13  S   UNL d   1      57.615  -0.148  31.615  0.00  0.00    -0.047 SA
BRANCH  13  14
ATOM     14  C   UNL d   1      57.885  -0.161  30.840  0.00  0.00     0.045 C 
BRANCH  14  15
ATOM     15  C   UNL d   1      58.626   0.156  30.655  0.00  0.00     0.036 A 
ATOM     16  S   UNL d   1      58.922   0.277  29.891  0.00  0.00    -0.086 SA
ATOM     17  C   UNL d   1      59.674   0.600  29.967  0.00  0.00     0.035 A 
ATOM     18  C   UNL d   1      59.848   0.681  30.768  0.00  0.00     0.007 A 
ATOM     19  C   UNL d   1      59.194   0.404  31.189  0.00  0.00     0.007 A 
ENDBRANCH  14  15
ENDBRANCH  13  14
ENDBRANCH   3  13
TORSDOF 3
ENDMDL
