MODEL 1
REMARK VINA RESULT:       6.7      0.000      0.000
REMARK  5 active torsions:
REMARK  status: ('A' for Active; 'I' for Inactive)
REMARK    1  A    between atoms: N_4  and  C_1 
REMARK    2  A    between atoms: N_5  and  C_1 
REMARK       I    between atoms: C_2  and  N_3 
REMARK    3  A    between atoms: C_8  and  C_2 
REMARK    4  A    between atoms: N_3  and  N_4 
REMARK    5  A    between atoms: C_9  and  N_5 
ROOT
ATOM      1  N   UNL d   1      46.062 -16.554  44.108  0.00  0.00    -0.273 N 
ATOM      2  H   UNL d   1      46.301 -16.254  43.383  0.00  0.00     0.189 HD
ENDROOT
BRANCH   1   3
ATOM      3  N   UNL d   1      46.172 -17.361  44.287  0.00  0.00    -0.264 N 
ATOM      4  C   UNL d   1      46.317 -17.892  43.658  0.00  0.00     0.271 C 
ATOM      5  O   UNL d   1      46.353 -17.642  42.885  0.00  0.00    -0.266 OA
ATOM      6  H   UNL d   1      46.137 -17.618  45.051  0.00  0.00     0.190 HD
BRANCH   4   7
ATOM      7  C   UNL d   1      46.428 -18.710  43.832  0.00  0.00     0.057 A 
ATOM      8  C   UNL d   1      46.530 -18.963  44.608  0.00  0.00     0.005 A 
ATOM      9  C   UNL d   1      46.639 -19.767  44.770  0.00  0.00     0.000 A 
ATOM     10  C   UNL d   1      46.646 -20.318  44.157  0.00  0.00     0.000 A 
ATOM     11  C   UNL d   1      46.545 -20.062  43.386  0.00  0.00     0.000 A 
ATOM     12  C   UNL d   1      46.436 -19.269  43.210  0.00  0.00     0.005 A 
ENDBRANCH   4   7
ENDBRANCH   1   3
BRANCH   1  13
ATOM     13  C   UNL d   1      45.712 -16.047  44.659  0.00  0.00     0.191 C 
ATOM     14  S   UNL d   1      44.959 -16.208  44.955  0.00  0.00    -0.039 SA
BRANCH  13  15
ATOM     15  N   UNL d   1      46.125 -15.369  44.914  0.00  0.00    -0.331 N 
ATOM     16  H   UNL d   1      46.804 -15.447  45.365  0.00  0.00     0.168 HD
BRANCH  15  17
ATOM     17  C   UNL d   1      45.843 -14.624  44.708  0.00  0.00     0.058 A 
ATOM     18  C   UNL d   1      46.320 -13.961  44.843  0.00  0.00     0.017 A 
ATOM     19  C   UNL d   1      46.039 -13.211  44.637  0.00  0.00     0.002 A 
ATOM     20  C   UNL d   1      45.291 -13.124  44.301  0.00  0.00     0.000 A 
ATOM     21  C   UNL d   1      44.826 -13.806  44.174  0.00  0.00     0.002 A 
ATOM     22  C   UNL d   1      45.094 -14.537  44.372  0.00  0.00     0.017 A 
ENDBRANCH  15  17
ENDBRANCH  13  15
ENDBRANCH   1  13
TORSDOF 5
ENDMDL
MODEL 2
REMARK VINA RESULT:       7.8      1.042      4.906
REMARK  5 active torsions:
REMARK  status: ('A' for Active; 'I' for Inactive)
REMARK    1  A    between atoms: N_4  and  C_1 
REMARK    2  A    between atoms: N_5  and  C_1 
REMARK       I    between atoms: C_2  and  N_3 
REMARK    3  A    between atoms: C_8  and  C_2 
REMARK    4  A    between atoms: N_3  and  N_4 
REMARK    5  A    between atoms: C_9  and  N_5 
ROOT
ATOM      1  N   UNL d   1      45.771 -16.987  44.382  0.00  0.00    -0.273 N 
ATOM      2  H   UNL d   1      45.287 -17.314  44.957  0.00  0.00     0.189 HD
ENDROOT
BRANCH   1   3
ATOM      3  N   UNL d   1      45.936 -16.171  44.383  0.00  0.00    -0.264 N 
ATOM      4  C   UNL d   1      45.353 -15.647  44.675  0.00  0.00     0.271 C 
ATOM      5  O   UNL d   1      44.638 -15.915  44.955  0.00  0.00    -0.266 OA
ATOM      6  H   UNL d   1      46.643 -15.896  44.107  0.00  0.00     0.190 HD
BRANCH   4   7
ATOM      7  C   UNL d   1      45.513 -14.819  44.679  0.00  0.00     0.057 A 
ATOM      8  C   UNL d   1      44.932 -14.280  44.461  0.00  0.00     0.005 A 
ATOM      9  C   UNL d   1      45.096 -13.469  44.467  0.00  0.00     0.000 A 
ATOM     10  C   UNL d   1      45.842 -13.197  44.692  0.00  0.00     0.000 A 
ATOM     11  C   UNL d   1      46.417 -13.737  44.909  0.00  0.00     0.000 A 
ATOM     12  C   UNL d   1      46.269 -14.543  44.907  0.00  0.00     0.005 A 
ENDBRANCH   4   7
ENDBRANCH   1   3
BRANCH   1  13
ATOM     13  C   UNL d   1      46.093 -17.479  43.800  0.00  0.00     0.191 C 
ATOM     14  S   UNL d   1      45.868 -17.393  43.011  0.00  0.00    -0.039 SA
BRANCH  13  15
ATOM     15  N   UNL d   1      46.647 -18.063  44.016  0.00  0.00    -0.331 N 
ATOM     16  H   UNL d   1      47.242 -17.887  44.549  0.00  0.00     0.168 HD
BRANCH  15  17
ATOM     17  C   UNL d   1      46.588 -18.815  43.688  0.00  0.00     0.058 A 
ATOM     18  C   UNL d   1      46.493 -19.467  44.189  0.00  0.00     0.017 A 
ATOM     19  C   UNL d   1      46.433 -20.225  43.862  0.00  0.00     0.002 A 
ATOM     20  C   UNL d   1      46.468 -20.330  43.045  0.00  0.00     0.000 A 
ATOM     21  C   UNL d   1      46.564 -19.659  42.558  0.00  0.00     0.002 A 
ATOM     22  C   UNL d   1      46.623 -18.920  42.870  0.00  0.00     0.017 A 
ENDBRANCH  15  17
ENDBRANCH  13  15
ENDBRANCH   1  13
TORSDOF 5
ENDMDL
