MODEL 1
REMARK VINA RESULT:     -11.2      0.000      0.000
REMARK  4 active torsions:
REMARK  status: ('A' for Active; 'I' for Inactive)
REMARK    1  A    between atoms: N_3  and  S_1 
REMARK    2  A    between atoms: C_13  and  S_1 
REMARK    3  A    between atoms: C_2  and  N_3 
REMARK    4  A    between atoms: N_8  and  C_4 
REMARK       I    between atoms: C_10  and  N_9 
ROOT
ATOM      1  C   UNL d   1      53.563  33.051  53.429  0.00  0.00     0.110 A 
ATOM      2  C   UNL d   1      52.743  33.727  53.488  0.00  0.00     0.083 A 
ATOM      3  C   UNL d   1      54.051  33.330  54.029  0.00  0.00     0.020 A 
ATOM      4  C   UNL d   1      52.957  34.230  54.107  0.00  0.00     0.018 A 
ATOM      5  C   UNL d   1      53.692  33.971  54.377  0.00  0.00     0.003 A 
ATOM      6  C   UNL d   1      54.064  34.362  55.001  0.00  0.00     0.000 A 
ATOM      7  C   UNL d   1      54.792  33.056  54.290  0.00  0.00     0.002 A 
ATOM      8  C   UNL d   1      52.597  34.872  54.455  0.00  0.00     0.002 A 
ATOM      9  C   UNL d   1      52.962  35.280  55.090  0.00  0.00     0.000 A 
ATOM     10  C   UNL d   1      55.157  33.462  54.922  0.00  0.00     0.000 A 
ATOM     11  C   UNL d   1      53.702  35.010  55.353  0.00  0.00     0.000 A 
ATOM     12  C   UNL d   1      54.796  34.109  55.275  0.00  0.00     0.000 A 
ENDROOT
BRANCH   1  13
ATOM     13  N   UNL d   1      53.770  32.407  52.973  0.00  0.00    -0.157 NA
BRANCH  13  14
ATOM     14  S   UNL d   1      53.487  31.651  53.140  0.00  0.00     0.285 S 
ATOM     15  O   UNL d   1      53.058  31.666  52.434  0.00  0.00    -0.198 OA
ATOM     16  O   UNL d   1      53.915  31.642  53.838  0.00  0.00    -0.198 OA
BRANCH  14  17
ATOM     17  C   UNL d   1      53.204  30.901  53.299  0.00  0.00     0.105 A 
ATOM     18  C   UNL d   1      53.563  30.442  53.878  0.00  0.00     0.013 A 
ATOM     19  C   UNL d   1      53.291  29.681  54.055  0.00  0.00     0.001 A 
ATOM     20  C   UNL d   1      52.631  29.388  53.621  0.00  0.00     0.000 A 
ATOM     21  C   UNL d   1      52.273  29.845  53.045  0.00  0.00     0.001 A 
ATOM     22  C   UNL d   1      52.555  30.597  52.882  0.00  0.00     0.013 A 
ENDBRANCH  14  17
ENDBRANCH  13  14
ENDBRANCH   1  13
BRANCH   2  23
ATOM     23  N   UNL d   1      52.031  33.840  53.099  0.00  0.00    -0.300 N 
ATOM     24  C   UNL d   1      51.327  33.627  53.472  0.00  0.00     0.100 A 
ATOM     25  C   UNL d   1      50.639  33.741  53.087  0.00  0.00     0.102 A 
ATOM     26  N   UNL d   1      50.590  34.072  52.307  0.00  0.00    -0.269 N 
ATOM     27  C   UNL d   1      51.289  34.283  51.940  0.00  0.00     0.102 A 
ATOM     28  C   UNL d   1      49.880  34.192  51.904  0.00  0.00     0.265 C 
ATOM     29  C   UNL d   1      52.047  34.161  52.356  0.00  0.00     0.100 A 
ATOM     30  O   UNL d   1      49.141  33.997  52.227  0.00  0.00    -0.267 OA
ATOM     31  C   UNL d   1      49.827  34.513  51.148  0.00  0.00     0.066 C 
ENDBRANCH   2  23
TORSDOF 4
ENDMDL
MODEL 2
REMARK VINA RESULT:      -8.5      1.348      3.580
REMARK  4 active torsions:
REMARK  status: ('A' for Active; 'I' for Inactive)
REMARK    1  A    between atoms: N_3  and  S_1 
REMARK    2  A    between atoms: C_13  and  S_1 
REMARK    3  A    between atoms: C_2  and  N_3 
REMARK    4  A    between atoms: N_8  and  C_4 
REMARK       I    between atoms: C_10  and  N_9 
ROOT
ATOM      1  C   UNL d   1      52.923  33.963  53.215  0.00  0.00     0.110 A 
ATOM      2  C   UNL d   1      53.124  33.008  53.642  0.00  0.00     0.083 A 
ATOM      3  C   UNL d   1      53.269  34.466  53.764  0.00  0.00     0.020 A 
ATOM      4  C   UNL d   1      53.538  33.193  54.332  0.00  0.00     0.018 A 
ATOM      5  C   UNL d   1      53.594  34.016  54.358  0.00  0.00     0.003 A 
ATOM      6  C   UNL d   1      53.980  34.384  54.988  0.00  0.00     0.000 A 
ATOM      7  C   UNL d   1      53.318  35.296  53.776  0.00  0.00     0.002 A 
ATOM      8  C   UNL d   1      53.863  32.743  54.927  0.00  0.00     0.002 A 
ATOM      9  C   UNL d   1      54.259  33.101  55.573  0.00  0.00     0.000 A 
ATOM     10  C   UNL d   1      53.712  35.655  54.419  0.00  0.00     0.000 A 
ATOM     11  C   UNL d   1      54.309  33.930  55.589  0.00  0.00     0.000 A 
ATOM     12  C   UNL d   1      54.040  35.202  55.020  0.00  0.00     0.000 A 
ENDROOT
BRANCH   1  13
ATOM     13  N   UNL d   1      52.547  34.247  52.549  0.00  0.00    -0.157 NA
BRANCH  13  14
ATOM     14  S   UNL d   1      51.725  34.292  52.502  0.00  0.00     0.285 S 
ATOM     15  O   UNL d   1      51.751  33.865  51.796  0.00  0.00    -0.198 OA
ATOM     16  O   UNL d   1      51.706  34.716  53.203  0.00  0.00    -0.198 OA
BRANCH  14  17
ATOM     17  C   UNL d   1      50.910  34.334  52.451  0.00  0.00     0.105 A 
ATOM     18  C   UNL d   1      50.532  34.112  51.755  0.00  0.00     0.013 A 
ATOM     19  C   UNL d   1      49.709  34.147  51.683  0.00  0.00     0.001 A 
ATOM     20  C   UNL d   1      49.266  34.417  52.347  0.00  0.00     0.000 A 
ATOM     21  C   UNL d   1      49.643  34.638  53.038  0.00  0.00     0.001 A 
ATOM     22  C   UNL d   1      50.459  34.597  53.094  0.00  0.00     0.013 A 
ENDBRANCH  14  17
ENDBRANCH  13  14
ENDBRANCH   1  13
BRANCH   2  23
ATOM     23  N   UNL d   1      52.976  32.225  53.454  0.00  0.00    -0.300 N 
ATOM     24  C   UNL d   1      52.321  31.846  53.785  0.00  0.00     0.100 A 
ATOM     25  C   UNL d   1      52.183  31.085  53.598  0.00  0.00     0.102 A 
ATOM     26  N   UNL d   1      52.677  30.636  53.073  0.00  0.00    -0.269 N 
ATOM     27  C   UNL d   1      53.324  31.013  52.747  0.00  0.00     0.102 A 
ATOM     28  C   UNL d   1      52.538  29.847  52.876  0.00  0.00     0.265 C 
ATOM     29  C   UNL d   1      53.481  31.848  52.947  0.00  0.00     0.100 A 
ATOM     30  O   UNL d   1      51.897  29.415  53.177  0.00  0.00    -0.267 OA
ATOM     31  C   UNL d   1      53.013  29.408  52.368  0.00  0.00     0.066 C 
ENDBRANCH   2  23
TORSDOF 4
ENDMDL
