MODEL 1
REMARK VINA RESULT:      -6.6      0.000      0.000
REMARK  5 active torsions:
REMARK  status: ('A' for Active; 'I' for Inactive)
REMARK    1  A    between atoms: C_4  and  S_1 
REMARK    2  A    between atoms: N_5  and  S_1 
REMARK    3  A    between atoms: C_2  and  C_9 
REMARK       I    between atoms: N_3  and  C_2 
REMARK    4  A    between atoms: C_14  and  N_5 
REMARK    5  A    between atoms: C_15  and  C_14 
ROOT
ATOM      1  C   UNL d   1     -42.380-123.280 -49.550  0.00  0.00     0.057 A 
ATOM      2  C   UNL d   1     -42.531-122.540 -49.890  0.00  0.00     0.005 A 
ATOM      3  C   UNL d   1     -41.886-123.817 -49.932  0.00  0.00     0.005 A 
ATOM      4  C   UNL d   1     -41.691-122.879 -50.995  0.00  0.00     0.020 A 
ATOM      5  C   UNL d   1     -42.185-122.341 -50.614  0.00  0.00     0.002 A 
ATOM      6  C   UNL d   1     -41.539-123.615 -50.660  0.00  0.00     0.002 A 
ENDROOT
BRANCH   4   7
ATOM      7  C   UNL d   1     -41.341-122.684 -51.722  0.00  0.00     0.112 C 
BRANCH   7   8
ATOM      8  N   UNL d   1     -41.348-123.238 -52.335  0.00  0.00    -0.157 NA
BRANCH   8   9
ATOM      9  S   UNL d   1     -41.456-122.982 -53.124  0.00  0.00     0.285 S 
ATOM     10  O   UNL d   1     -41.250-122.208 -52.899  0.00  0.00    -0.198 OA
ATOM     11  O   UNL d   1     -41.661-123.757 -53.344  0.00  0.00    -0.198 OA
BRANCH   9  12
ATOM     12  C   UNL d   1     -41.563-122.727 -53.908  0.00  0.00     0.106 A 
ATOM     13  C   UNL d   1     -42.118-122.138 -54.073  0.00  0.00     0.024 A 
ATOM     14  C   UNL d   1     -42.229-121.879 -54.850  0.00  0.00     0.059 A 
ATOM     15 CL   UNL d   1     -42.784-121.290 -55.021  0.00  0.00    -0.082 Cl
ATOM     16  C   UNL d   1     -41.783-122.213 -55.457  0.00  0.00     0.011 A 
ATOM     17  C   UNL d   1     -41.230-122.799 -55.290  0.00  0.00     0.002 A 
ATOM     18  C   UNL d   1     -41.123-123.054 -54.515  0.00  0.00     0.013 A 
ENDBRANCH   9  12
ENDBRANCH   8   9
ENDBRANCH   7   8
ENDBRANCH   4   7
BRANCH   1  19
ATOM     19  C   UNL d   1     -42.730-123.486 -48.814  0.00  0.00     0.265 C 
ATOM     20  N   UNL d   1     -42.302-123.378 -48.111  0.00  0.00    -0.272 N 
ATOM     21  C   UNL d   1     -41.539-123.069 -48.133  0.00  0.00     0.083 A 
ATOM     22  C   UNL d   1     -42.645-123.581 -47.386  0.00  0.00     0.083 A 
ATOM     23  C   UNL d   1     -41.123-122.964 -47.437  0.00  0.00     0.019 A 
ATOM     24  C   UNL d   1     -41.464-123.166 -46.721  0.00  0.00     0.003 A 
ATOM     25  C   UNL d   1     -42.221-123.473 -46.685  0.00  0.00     0.019 A 
ATOM     26  O   UNL d   1     -43.504-123.800 -48.793  0.00  0.00    -0.267 OA
ENDBRANCH   1  19
TORSDOF 5
ENDMDL
