MODEL 1
REMARK VINA RESULT:      -7.6      0.000      0.000
REMARK  8 active torsions:
REMARK  status: ('A' for Active; 'I' for Inactive)
REMARK    1  A    between atoms: O_10  and  C_1 
REMARK    2  A    between atoms: C_12  and  C_4 
REMARK    3  A    between atoms: N_7  and  C_12 
REMARK    4  A    between atoms: C_15  and  N_8 
REMARK    5  A    between atoms: C_9  and  C_16 
REMARK       I    between atoms: N_11  and  C_9 
REMARK    6  A    between atoms: C_16  and  O_10 
REMARK    7  A    between atoms: C_22  and  N_11 
REMARK    8  A    between atoms: C_21  and  C_15 
ROOT
ATOM      1  C   UNL d   1      48.773  35.193  52.606  0.00  0.00     0.164 A 
ATOM      2  C   UNL d   1      49.452  34.522  51.619  0.00  0.00     0.070 A 
ATOM      3  C   UNL d   1      48.783  34.891  51.868  0.00  0.00     0.222 A 
ATOM      4  C   UNL d   1      50.089  34.460  52.100  0.00  0.00     0.121 A 
ATOM      5  C   UNL d   1      49.410  35.130  53.087  0.00  0.00     0.150 A 
ATOM      6  O   UNL d   1      50.063  34.766  52.834  0.00  0.00    -0.301 OA
ATOM      7  O   UNL d   1      48.153  34.953  51.393  0.00  0.00    -0.284 OA
ENDROOT
BRANCH   4   8
ATOM      8  C   UNL d   1      50.749  34.091  51.843  0.00  0.00     0.105 C 
BRANCH   8   9
ATOM      9  N   UNL d   1      51.344  33.892  52.377  0.00  0.00    -0.298 N 
ATOM     10  C   UNL d   1      51.960  34.424  52.544  0.00  0.00     0.100 A 
ATOM     11  C   UNL d   1      52.560  34.219  53.083  0.00  0.00     0.100 A 
ATOM     12  N   UNL d   1      52.547  33.484  53.458  0.00  0.00    -0.300 N 
ATOM     13  C   UNL d   1      51.931  32.943  53.295  0.00  0.00     0.100 A 
ATOM     14  C   UNL d   1      51.336  33.151  52.757  0.00  0.00     0.100 A 
BRANCH  12  15
ATOM     15  C   UNL d   1      53.021  33.091  54.004  0.00  0.00     0.080 C 
BRANCH  15  16
ATOM     16  C   UNL d   1      53.743  33.262  54.385  0.00  0.00     0.018 A 
ATOM     17  C   UNL d   1      53.747  33.643  55.121  0.00  0.00     0.002 A 
ATOM     18  C   UNL d   1      54.466  33.808  55.491  0.00  0.00     0.000 A 
ATOM     19  C   UNL d   1      55.177  33.597  55.135  0.00  0.00     0.000 A 
ATOM     20  C   UNL d   1      55.172  33.211  54.390  0.00  0.00     0.000 A 
ATOM     21  C   UNL d   1      54.450  33.047  54.022  0.00  0.00     0.002 A 
ENDBRANCH  15  16
ENDBRANCH  12  15
ENDBRANCH   8   9
ENDBRANCH   4   8
BRANCH   1  22
ATOM     22  O   UNL d   1      48.378  35.583  53.181  0.00  0.00    -0.295 OA
BRANCH  22  23
ATOM     23  C   UNL d   1      47.652  35.953  53.014  0.00  0.00     0.185 C 
BRANCH  23  24
ATOM     24  C   UNL d   1      47.208  36.258  53.636  0.00  0.00     0.304 C 
ATOM     25  N   UNL d   1      46.472  36.346  54.014  0.00  0.00    -0.206 NA
ATOM     26  O   UNL d   1      47.554  36.709  54.231  0.00  0.00    -0.263 OA
BRANCH  25  27
ATOM     27  C   UNL d   1      45.654  36.193  54.039  0.00  0.00     0.085 C 
ATOM     28  C   UNL d   1      45.159  36.511  53.462  0.00  0.00     0.021 C 
ATOM     29  C   UNL d   1      45.336  35.723  54.642  0.00  0.00     0.021 C 
ENDBRANCH  25  27
ENDBRANCH  23  24
ENDBRANCH  22  23
ENDBRANCH   1  22
TORSDOF 8
ENDMDL
MODEL 2
REMARK VINA RESULT:      -7.4      1.940      2.743
REMARK  8 active torsions:
REMARK  status: ('A' for Active; 'I' for Inactive)
REMARK    1  A    between atoms: O_10  and  C_1 
REMARK    2  A    between atoms: C_12  and  C_4 
REMARK    3  A    between atoms: N_7  and  C_12 
REMARK    4  A    between atoms: C_15  and  N_8 
REMARK    5  A    between atoms: C_9  and  C_16 
REMARK       I    between atoms: N_11  and  C_9 
REMARK    6  A    between atoms: C_16  and  O_10 
REMARK    7  A    between atoms: C_22  and  N_11 
REMARK    8  A    between atoms: C_21  and  C_15 
ROOT
ATOM      1  C   UNL d   1      49.925  34.508  52.269  0.00  0.00     0.164 A 
ATOM      2  C   UNL d   1      50.970  34.576  53.157  0.00  0.00     0.070 A 
ATOM      3  C   UNL d   1      50.185  34.660  53.008  0.00  0.00     0.222 A 
ATOM      4  C   UNL d   1      51.475  34.347  52.581  0.00  0.00     0.121 A 
ATOM      5  C   UNL d   1      50.430  34.278  51.693  0.00  0.00     0.150 A 
ATOM      6  O   UNL d   1      51.200  34.199  51.849  0.00  0.00    -0.301 OA
ATOM      7  O   UNL d   1      49.686  34.887  53.578  0.00  0.00    -0.284 OA
ENDROOT
BRANCH   4   8
ATOM      8  C   UNL d   1      52.254  34.267  52.739  0.00  0.00     0.105 C 
BRANCH   8   9
ATOM      9  N   UNL d   1      52.550  33.542  52.995  0.00  0.00    -0.298 N 
ATOM     10  C   UNL d   1      52.455  32.858  52.533  0.00  0.00     0.100 A 
ATOM     11  C   UNL d   1      52.756  32.128  52.794  0.00  0.00     0.100 A 
ATOM     12  N   UNL d   1      53.152  32.076  53.516  0.00  0.00    -0.300 N 
ATOM     13  C   UNL d   1      53.252  32.760  53.987  0.00  0.00     0.100 A 
ATOM     14  C   UNL d   1      52.951  33.485  53.723  0.00  0.00     0.100 A 
BRANCH  12  15
ATOM     15  C   UNL d   1      53.516  31.479  53.950  0.00  0.00     0.080 C 
BRANCH  15  16
ATOM     16  C   UNL d   1      53.405  30.656  54.022  0.00  0.00     0.018 A 
ATOM     17  C   UNL d   1      53.419  30.171  53.349  0.00  0.00     0.002 A 
ATOM     18  C   UNL d   1      53.308  29.358  53.429  0.00  0.00     0.000 A 
ATOM     19  C   UNL d   1      53.184  29.024  54.172  0.00  0.00     0.000 A 
ATOM     20  C   UNL d   1      53.170  29.514  54.851  0.00  0.00     0.000 A 
ATOM     21  C   UNL d   1      53.282  30.330  54.767  0.00  0.00     0.002 A 
ENDBRANCH  15  16
ENDBRANCH  12  15
ENDBRANCH   8   9
ENDBRANCH   4   8
BRANCH   1  22
ATOM     22  O   UNL d   1      49.317  34.468  51.753  0.00  0.00    -0.295 OA
BRANCH  22  23
ATOM     23  C   UNL d   1      48.774  35.095  51.694  0.00  0.00     0.185 C 
BRANCH  23  24
ATOM     24  C   UNL d   1      48.069  34.975  51.288  0.00  0.00     0.304 C 
ATOM     25  N   UNL d   1      47.265  35.160  51.180  0.00  0.00    -0.206 NA
ATOM     26  O   UNL d   1      48.014  34.432  50.672  0.00  0.00    -0.263 OA
BRANCH  25  27
ATOM     27  C   UNL d   1      46.593  35.599  51.401  0.00  0.00     0.085 C 
ATOM     28  C   UNL d   1      45.877  35.478  51.009  0.00  0.00     0.021 C 
ATOM     29  C   UNL d   1      46.640  36.157  52.011  0.00  0.00     0.021 C 
ENDBRANCH  25  27
ENDBRANCH  23  24
ENDBRANCH  22  23
ENDBRANCH   1  22
TORSDOF 8
ENDMDL
MODEL 3
REMARK VINA RESULT:      -7.3      2.612      6.595
REMARK  8 active torsions:
REMARK  status: ('A' for Active; 'I' for Inactive)
REMARK    1  A    between atoms: O_10  and  C_1 
REMARK    2  A    between atoms: C_12  and  C_4 
REMARK    3  A    between atoms: N_7  and  C_12 
REMARK    4  A    between atoms: C_15  and  N_8 
REMARK    5  A    between atoms: C_9  and  C_16 
REMARK       I    between atoms: N_11  and  C_9 
REMARK    6  A    between atoms: C_16  and  O_10 
REMARK    7  A    between atoms: C_22  and  N_11 
REMARK    8  A    between atoms: C_21  and  C_15 
ROOT
ATOM      1  C   UNL d   1      52.949  32.039  53.296  0.00  0.00     0.164 A 
ATOM      2  C   UNL d   1      52.931  33.398  53.489  0.00  0.00     0.070 A 
ATOM      3  C   UNL d   1      53.194  32.673  53.714  0.00  0.00     0.222 A 
ATOM      4  C   UNL d   1      52.437  33.480  52.865  0.00  0.00     0.121 A 
ATOM      5  C   UNL d   1      52.455  32.121  52.672  0.00  0.00     0.150 A 
ATOM      6  O   UNL d   1      52.202  32.838  52.459  0.00  0.00    -0.301 OA
ATOM      7  O   UNL d   1      53.682  32.591  54.331  0.00  0.00    -0.284 OA
ENDROOT
BRANCH   4   8
ATOM      8  C   UNL d   1      52.181  34.206  52.651  0.00  0.00     0.105 C 
BRANCH   8   9
ATOM      9  N   UNL d   1      51.376  34.379  52.661  0.00  0.00    -0.298 N 
ATOM     10  C   UNL d   1      51.014  34.672  53.350  0.00  0.00     0.100 A 
ATOM     11  C   UNL d   1      50.201  34.846  53.357  0.00  0.00     0.100 A 
ATOM     12  N   UNL d   1      49.745  34.729  52.679  0.00  0.00    -0.300 N 
ATOM     13  C   UNL d   1      50.102  34.435  51.983  0.00  0.00     0.100 A 
ATOM     14  C   UNL d   1      50.912  34.263  51.980  0.00  0.00     0.100 A 
BRANCH  12  15
ATOM     15  C   UNL d   1      48.955  34.832  52.474  0.00  0.00     0.080 C 
BRANCH  15  16
ATOM     16  C   UNL d   1      48.391  35.433  52.594  0.00  0.00     0.018 A 
ATOM     17  C   UNL d   1      48.309  35.786  53.340  0.00  0.00     0.002 A 
ATOM     18  C   UNL d   1      47.747  36.381  53.450  0.00  0.00     0.000 A 
ATOM     19  C   UNL d   1      47.269  36.625  52.826  0.00  0.00     0.000 A 
ATOM     20  C   UNL d   1      47.352  36.268  52.073  0.00  0.00     0.000 A 
ATOM     21  C   UNL d   1      47.916  35.672  51.965  0.00  0.00     0.002 A 
ENDBRANCH  15  16
ENDBRANCH  12  15
ENDBRANCH   8   9
ENDBRANCH   4   8
BRANCH   1  22
ATOM     22  O   UNL d   1      52.959  31.248  53.183  0.00  0.00    -0.295 OA
BRANCH  22  23
ATOM     23  C   UNL d   1      53.419  30.760  53.676  0.00  0.00     0.185 C 
BRANCH  23  24
ATOM     24  C   UNL d   1      53.272  29.951  53.683  0.00  0.00     0.304 C 
ATOM     25  N   UNL d   1      53.251  29.231  54.101  0.00  0.00    -0.206 NA
ATOM     26  O   UNL d   1      53.018  29.553  53.009  0.00  0.00    -0.263 OA
BRANCH  25  27
ATOM     27  C   UNL d   1      53.363  28.808  54.809  0.00  0.00     0.085 C 
ATOM     28  C   UNL d   1      53.103  29.128  55.524  0.00  0.00     0.021 C 
ATOM     29  C   UNL d   1      53.732  28.067  54.799  0.00  0.00     0.021 C 
ENDBRANCH  25  27
ENDBRANCH  23  24
ENDBRANCH  22  23
ENDBRANCH   1  22
TORSDOF 8
ENDMDL
