MODEL 1
REMARK VINA RESULT:      -6.8      0.000      0.000
REMARK  9 active torsions:
REMARK  status: ('A' for Active; 'I' for Inactive)
REMARK    1  A    between atoms: C_12  and  C_3 
REMARK    2  A    between atoms: S_14  and  C_7 
REMARK       I    between atoms: C_9  and  N_18 
REMARK    3  A    between atoms: C_13  and  C_9 
REMARK    4  A    between atoms: C_11  and  C_21 
REMARK       I    between atoms: N_15  and  C_11 
REMARK    5  A    between atoms: C_22  and  C_12 
REMARK    6  A    between atoms: C_21  and  S_14 
REMARK    7  A    between atoms: C_23  and  N_15 
REMARK    8  A    between atoms: N_18  and  C_22 
REMARK    9  A    between atoms: C_25  and  C_23 
ROOT
ATOM      1  N   UNL d   1     -43.886  12.794  21.897  0.00  0.00    -0.191 N 
ATOM      2  C   UNL d   1     -43.940  12.073  22.308  0.00  0.00     0.187 A 
ATOM      3  C   UNL d   1     -43.122  12.855  21.583  0.00  0.00     0.188 A 
ATOM      4  N   UNL d   1     -44.539  13.300  21.863  0.00  0.00    -0.156 NA
ATOM      5  N   UNL d   1     -43.207  11.696  22.243  0.00  0.00    -0.127 NA
ATOM      6  N   UNL d   1     -42.702  12.172  21.799  0.00  0.00    -0.127 NA
ATOM      7  C   UNL d   1     -45.246  13.083  22.240  0.00  0.00     0.131 A 
ATOM      8  C   UNL d   1     -44.643  11.869  22.677  0.00  0.00     0.043 A 
ATOM      9  C   UNL d   1     -45.298  12.370  22.646  0.00  0.00     0.031 A 
ENDROOT
BRANCH   7  10
ATOM     10  S   UNL d   1     -45.900  13.596  22.203  0.00  0.00    -0.061 SA
BRANCH  10  11
ATOM     11  C   UNL d   1     -46.372  13.713  22.879  0.00  0.00     0.099 C 
BRANCH  11  12
ATOM     12  C   UNL d   1     -47.147  13.995  22.792  0.00  0.00     0.286 C 
ATOM     13  N   UNL d   1     -47.775  13.509  22.951  0.00  0.00    -0.206 NA
ATOM     14  O   UNL d   1     -47.286  14.770  22.544  0.00  0.00    -0.265 OA
BRANCH  13  15
ATOM     15  C   UNL d   1     -48.553  13.787  22.866  0.00  0.00     0.102 C 
BRANCH  15  16
ATOM     16  C   UNL d   1     -49.170  13.263  22.906  0.00  0.00     0.019 A 
ATOM     17  C   UNL d   1     -49.393  12.912  23.619  0.00  0.00     0.004 A 
ATOM     18  C   UNL d   1     -50.017  12.383  23.658  0.00  0.00     0.030 A 
ATOM     19  C   UNL d   1     -50.434  12.196  22.971  0.00  0.00     0.140 A 
ATOM     20  C   UNL d   1     -50.211  12.547  22.262  0.00  0.00     0.030 A 
ATOM     21  F   UNL d   1     -51.063  11.666  22.997  0.00  0.00    -0.204 F 
ATOM     22  C   UNL d   1     -49.595  13.068  22.226  0.00  0.00     0.004 A 
ENDBRANCH  15  16
ENDBRANCH  13  15
ENDBRANCH  11  12
ENDBRANCH  10  11
ENDBRANCH   7  10
BRANCH   3  23
ATOM     23  C   UNL d   1     -42.836  13.488  21.135  0.00  0.00     0.061 C 
BRANCH  23  24
ATOM     24  C   UNL d   1     -42.020  13.628  21.081  0.00  0.00     0.105 C 
BRANCH  24  25
ATOM     25  N   UNL d   1     -41.713  13.996  20.408  0.00  0.00    -0.206 NA
ATOM     26  C   UNL d   1     -40.965  14.360  20.441  0.00  0.00     0.279 C 
ATOM     27  O   UNL d   1     -40.537  14.348  21.154  0.00  0.00    -0.265 OA
BRANCH  26  28
ATOM     28  C   UNL d   1     -40.658  14.727  19.773  0.00  0.00     0.058 A 
ATOM     29  C   UNL d   1     -40.707  15.548  19.699  0.00  0.00     0.005 A 
ATOM     30  C   UNL d   1     -40.401  15.922  19.032  0.00  0.00     0.000 A 
ATOM     31  C   UNL d   1     -40.045  15.469  18.437  0.00  0.00     0.000 A 
ATOM     32  C   UNL d   1     -39.996  14.648  18.511  0.00  0.00     0.000 A 
ATOM     33  C   UNL d   1     -39.739  15.839  17.771  0.00  0.00     0.000 C 
ATOM     34  C   UNL d   1     -40.306  14.278  19.184  0.00  0.00     0.005 A 
ENDBRANCH  26  28
ENDBRANCH  24  25
ENDBRANCH  23  24
ENDBRANCH   3  23
TORSDOF 9
ENDMDL
MODEL 2
REMARK VINA RESULT:      -6.7      2.641      7.773
REMARK  9 active torsions:
REMARK  status: ('A' for Active; 'I' for Inactive)
REMARK    1  A    between atoms: C_12  and  C_3 
REMARK    2  A    between atoms: S_14  and  C_7 
REMARK       I    between atoms: C_9  and  N_18 
REMARK    3  A    between atoms: C_13  and  C_9 
REMARK    4  A    between atoms: C_11  and  C_21 
REMARK       I    between atoms: N_15  and  C_11 
REMARK    5  A    between atoms: C_22  and  C_12 
REMARK    6  A    between atoms: C_21  and  S_14 
REMARK    7  A    between atoms: C_23  and  N_15 
REMARK    8  A    between atoms: N_18  and  C_22 
REMARK    9  A    between atoms: C_25  and  C_23 
ROOT
ATOM      1  N   UNL d   1     -44.637  12.655  22.324  0.00  0.00    -0.191 N 
ATOM      2  C   UNL d   1     -44.309  11.946  22.608  0.00  0.00     0.187 A 
ATOM      3  C   UNL d   1     -45.398  12.732  22.641  0.00  0.00     0.188 A 
ATOM      4  N   UNL d   1     -44.199  13.137  21.815  0.00  0.00    -0.156 NA
ATOM      5  N   UNL d   1     -44.872  11.592  23.099  0.00  0.00    -0.127 NA
ATOM      6  N   UNL d   1     -45.542  12.071  23.122  0.00  0.00    -0.127 NA
ATOM      7  C   UNL d   1     -43.434  12.909  21.590  0.00  0.00     0.131 A 
ATOM      8  C   UNL d   1     -43.552  11.729  22.380  0.00  0.00     0.043 A 
ATOM      9  C   UNL d   1     -43.111  12.207  21.871  0.00  0.00     0.031 A 
ENDROOT
BRANCH   7  10
ATOM     10  S   UNL d   1     -42.998  13.397  21.076  0.00  0.00    -0.061 SA
BRANCH  10  11
ATOM     11  C   UNL d   1     -42.165  13.367  21.086  0.00  0.00     0.099 C 
BRANCH  11  12
ATOM     12  C   UNL d   1     -41.731  13.979  20.732  0.00  0.00     0.286 C 
ATOM     13  N   UNL d   1     -41.268  13.827  20.086  0.00  0.00    -0.206 NA
ATOM     14  O   UNL d   1     -41.766  14.746  21.035  0.00  0.00    -0.265 OA
BRANCH  13  15
ATOM     15  C   UNL d   1     -40.832  14.436  19.729  0.00  0.00     0.102 C 
BRANCH  15  16
ATOM     16  C   UNL d   1     -40.396  14.279  19.064  0.00  0.00     0.019 A 
ATOM     17  C   UNL d   1     -39.638  13.953  19.111  0.00  0.00     0.004 A 
ATOM     18  C   UNL d   1     -39.200  13.795  18.438  0.00  0.00     0.030 A 
ATOM     19  C   UNL d   1     -39.519  13.962  17.696  0.00  0.00     0.140 A 
ATOM     20  C   UNL d   1     -40.274  14.286  17.651  0.00  0.00     0.030 A 
ATOM     21  F   UNL d   1     -39.088  13.807  17.012  0.00  0.00    -0.204 F 
ATOM     22  C   UNL d   1     -40.704  14.442  18.316  0.00  0.00     0.004 A 
ENDBRANCH  15  16
ENDBRANCH  13  15
ENDBRANCH  11  12
ENDBRANCH  10  11
ENDBRANCH   7  10
BRANCH   3  23
ATOM     23  C   UNL d   1     -45.916  13.361  22.499  0.00  0.00     0.061 C 
BRANCH  23  24
ATOM     24  C   UNL d   1     -46.726  13.219  22.388  0.00  0.00     0.105 C 
BRANCH  24  25
ATOM     25  N   UNL d   1     -47.278  13.764  22.670  0.00  0.00    -0.206 NA
ATOM     26  C   UNL d   1     -48.059  13.747  22.383  0.00  0.00     0.279 C 
ATOM     27  O   UNL d   1     -48.272  13.180  21.813  0.00  0.00    -0.265 OA
BRANCH  26  28
ATOM     28  C   UNL d   1     -48.610  14.289  22.663  0.00  0.00     0.058 A 
ATOM     29  C   UNL d   1     -49.170  14.050  23.222  0.00  0.00     0.005 A 
ATOM     30  C   UNL d   1     -49.725  14.589  23.506  0.00  0.00     0.000 A 
ATOM     31  C   UNL d   1     -49.718  15.368  23.228  0.00  0.00     0.000 A 
ATOM     32  C   UNL d   1     -49.158  15.607  22.669  0.00  0.00     0.000 A 
ATOM     33  C   UNL d   1     -50.270  15.906  23.510  0.00  0.00     0.000 C 
ATOM     34  C   UNL d   1     -48.603  15.061  22.387  0.00  0.00     0.005 A 
ENDBRANCH  26  28
ENDBRANCH  24  25
ENDBRANCH  23  24
ENDBRANCH   3  23
TORSDOF 9
ENDMDL
MODEL 3
REMARK VINA RESULT:      -5.8      2.787      7.876
REMARK  9 active torsions:
REMARK  status: ('A' for Active; 'I' for Inactive)
REMARK    1  A    between atoms: C_12  and  C_3 
REMARK    2  A    between atoms: S_14  and  C_7 
REMARK       I    between atoms: C_9  and  N_18 
REMARK    3  A    between atoms: C_13  and  C_9 
REMARK    4  A    between atoms: C_11  and  C_21 
REMARK       I    between atoms: N_15  and  C_11 
REMARK    5  A    between atoms: C_22  and  C_12 
REMARK    6  A    between atoms: C_21  and  S_14 
REMARK    7  A    between atoms: C_23  and  N_15 
REMARK    8  A    between atoms: N_18  and  C_22 
REMARK    9  A    between atoms: C_25  and  C_23 
ROOT
ATOM      1  N   UNL d   1     -44.789  11.739  22.864  0.00  0.00    -0.191 N 
ATOM      2  C   UNL d   1     -44.301  11.122  23.134  0.00  0.00     0.187 A 
ATOM      3  C   UNL d   1     -45.535  11.649  23.212  0.00  0.00     0.188 A 
ATOM      4  N   UNL d   1     -44.489  12.301  22.338  0.00  0.00    -0.156 NA
ATOM      5  N   UNL d   1     -44.753  10.656  23.647  0.00  0.00    -0.127 NA
ATOM      6  N   UNL d   1     -45.511  10.976  23.698  0.00  0.00    -0.127 NA
ATOM      7  C   UNL d   1     -43.702  12.245  22.082  0.00  0.00     0.131 A 
ATOM      8  C   UNL d   1     -43.525  11.076  22.875  0.00  0.00     0.043 A 
ATOM      9  C   UNL d   1     -43.220  11.634  22.350  0.00  0.00     0.031 A 
ENDROOT
BRANCH   7  10
ATOM     10  S   UNL d   1     -43.404  12.814  21.552  0.00  0.00    -0.061 SA
BRANCH  10  11
ATOM     11  C   UNL d   1     -42.582  12.921  21.480  0.00  0.00     0.099 C 
BRANCH  11  12
ATOM     12  C   UNL d   1     -42.287  13.644  21.198  0.00  0.00     0.286 C 
ATOM     13  N   UNL d   1     -41.503  13.718  21.012  0.00  0.00    -0.206 NA
ATOM     14  O   UNL d   1     -42.790  14.292  21.104  0.00  0.00    -0.265 OA
BRANCH  13  15
ATOM     15  C   UNL d   1     -41.205  14.439  20.729  0.00  0.00     0.102 C 
BRANCH  15  16
ATOM     16  C   UNL d   1     -40.406  14.528  20.626  0.00  0.00     0.019 A 
ATOM     17  C   UNL d   1     -39.932  14.879  21.203  0.00  0.00     0.004 A 
ATOM     18  C   UNL d   1     -39.125  14.967  21.097  0.00  0.00     0.030 A 
ATOM     19  C   UNL d   1     -38.775  14.700  20.398  0.00  0.00     0.140 A 
ATOM     20  C   UNL d   1     -39.249  14.351  19.825  0.00  0.00     0.030 A 
ATOM     21  F   UNL d   1     -37.965  14.784  20.280  0.00  0.00    -0.204 F 
ATOM     22  C   UNL d   1     -40.045  14.265  19.932  0.00  0.00     0.004 A 
ENDBRANCH  15  16
ENDBRANCH  13  15
ENDBRANCH  11  12
ENDBRANCH  10  11
ENDBRANCH   7  10
BRANCH   3  23
ATOM     23  C   UNL d   1     -46.185  12.147  23.091  0.00  0.00     0.061 C 
BRANCH  23  24
ATOM     24  C   UNL d   1     -46.949  11.892  23.288  0.00  0.00     0.105 C 
BRANCH  24  25
ATOM     25  N   UNL d   1     -47.603  12.273  22.957  0.00  0.00    -0.206 NA
ATOM     26  C   UNL d   1     -48.363  11.948  23.055  0.00  0.00     0.279 C 
ATOM     27  O   UNL d   1     -48.453  11.243  23.487  0.00  0.00    -0.265 OA
BRANCH  26  28
ATOM     28  C   UNL d   1     -49.016  12.325  22.726  0.00  0.00     0.058 A 
ATOM     29  C   UNL d   1     -49.460  12.848  23.186  0.00  0.00     0.005 A 
ATOM     30  C   UNL d   1     -50.115  13.228  22.862  0.00  0.00     0.000 A 
ATOM     31  C   UNL d   1     -50.323  13.084  22.074  0.00  0.00     0.000 A 
ATOM     32  C   UNL d   1     -49.879  12.561  21.614  0.00  0.00     0.000 A 
ATOM     33  C   UNL d   1     -50.975  13.462  21.749  0.00  0.00     0.000 C 
ATOM     34  C   UNL d   1     -49.222  12.181  21.946  0.00  0.00     0.005 A 
ENDBRANCH  26  28
ENDBRANCH  24  25
ENDBRANCH  23  24
ENDBRANCH   3  23
TORSDOF 9
ENDMDL
