MODEL 1
REMARK VINA RESULT:      56.8      0.000      0.000
REMARK  5 active torsions:
REMARK  status: ('A' for Active; 'I' for Inactive)
REMARK    1  A    between atoms: N_2  and  C_1 
REMARK    2  A    between atoms: C_9  and  C_5 
REMARK    3  A    between atoms: C_6  and  C_10 
REMARK       I    between atoms: N_11  and  C_6 
REMARK    4  A    between atoms: C_8  and  N_11 
REMARK    5  A    between atoms: C_10  and  C_9 
ROOT
ATOM      1  C   UNL d   1      61.635  47.535  50.301  0.00  0.00     0.279 C 
ATOM      2  N   UNL d   1      61.662  48.362  50.251  0.00  0.00    -0.208 NA
ATOM      3  O   UNL d   1      61.069  47.153  50.766  0.00  0.00    -0.265 OA
ENDROOT
BRANCH   1   4
ATOM      4  C   UNL d   1      62.178  47.091  49.885  0.00  0.00     0.063 C 
BRANCH   4   5
ATOM      5  C   UNL d   1      61.971  46.784  49.146  0.00  0.00     0.011 C 
BRANCH   5   6
ATOM      6  C   UNL d   1      61.905  45.960  49.049  0.00  0.00     0.031 A 
ATOM      7  S   UNL d   1      61.265  45.452  49.054  0.00  0.00    -0.064 SA
ATOM      8  C   UNL d   1      61.528  44.688  48.929  0.00  0.00     0.156 A 
ATOM      9  C   UNL d   1      62.343  44.732  48.846  0.00  0.00     0.031 A 
ATOM     10  C   UNL d   1      62.585  45.510  48.919  0.00  0.00     0.009 A 
BRANCH   8  11
ATOM     11  N   UNL d   1      61.066  43.996  48.891  0.00  0.00    -0.107 N 
ATOM     12  O   UNL d   1      61.437  43.260  48.916  0.00  0.00    -0.531 OA
ATOM     13  O   UNL d   1      60.240  44.054  48.829  0.00  0.00    -0.531 OA
ENDBRANCH   8  11
ENDBRANCH   5   6
ENDBRANCH   4   5
ENDBRANCH   1   4
BRANCH   2  14
ATOM     14  C   UNL d   1      61.110  48.813  50.674  0.00  0.00     0.085 A 
ATOM     15  C   UNL d   1      60.411  49.032  50.328  0.00  0.00     0.019 A 
ATOM     16  C   UNL d   1      59.867  49.477  50.746  0.00  0.00     0.002 A 
ATOM     17  C   UNL d   1      59.146  49.707  50.399  0.00  0.00     0.000 C 
ATOM     18  C   UNL d   1      60.032  49.694  51.501  0.00  0.00     0.000 A 
ATOM     19  C   UNL d   1      60.737  49.480  51.871  0.00  0.00     0.002 A 
ATOM     20  C   UNL d   1      61.280  49.037  51.455  0.00  0.00     0.019 A 
ATOM     21  C   UNL d   1      60.903  49.706  52.650  0.00  0.00     0.000 C 
ENDBRANCH   2  14
TORSDOF 5
ENDMDL
MODEL 2
REMARK VINA RESULT:      57.0      2.620      4.822
REMARK  5 active torsions:
REMARK  status: ('A' for Active; 'I' for Inactive)
REMARK    1  A    between atoms: N_2  and  C_1 
REMARK    2  A    between atoms: C_9  and  C_5 
REMARK    3  A    between atoms: C_6  and  C_10 
REMARK       I    between atoms: N_11  and  C_6 
REMARK    4  A    between atoms: C_8  and  N_11 
REMARK    5  A    between atoms: C_10  and  C_9 
ROOT
ATOM      1  C   UNL d   1      60.483  48.943  50.917  0.00  0.00     0.279 C 
ATOM      2  N   UNL d   1      60.545  48.358  50.332  0.00  0.00    -0.208 NA
ATOM      3  O   UNL d   1      60.741  48.805  51.689  0.00  0.00    -0.265 OA
ENDROOT
BRANCH   1   4
ATOM      4  C   UNL d   1      60.160  49.667  50.725  0.00  0.00     0.063 C 
BRANCH   4   5
ATOM      5  C   UNL d   1      59.558  49.708  50.161  0.00  0.00     0.011 C 
BRANCH   5   6
ATOM      6  C   UNL d   1      58.764  49.674  50.407  0.00  0.00     0.031 A 
ATOM      7  S   UNL d   1      58.056  49.707  50.000  0.00  0.00    -0.064 SA
ATOM      8  C   UNL d   1      57.437  49.646  50.531  0.00  0.00     0.156 A 
ATOM      9  C   UNL d   1      57.774  49.575  51.275  0.00  0.00     0.031 A 
ATOM     10  C   UNL d   1      58.589  49.591  51.210  0.00  0.00     0.009 A 
BRANCH   8  11
ATOM     11  N   UNL d   1      56.623  49.654  50.357  0.00  0.00    -0.107 N 
ATOM     12  O   UNL d   1      56.078  49.705  50.975  0.00  0.00    -0.531 OA
ATOM     13  O   UNL d   1      56.367  49.611  49.569  0.00  0.00    -0.531 OA
ENDBRANCH   8  11
ENDBRANCH   5   6
ENDBRANCH   4   5
ENDBRANCH   1   4
BRANCH   2  14
ATOM     14  C   UNL d   1      60.872  47.623  50.527  0.00  0.00     0.085 A 
ATOM     15  C   UNL d   1      60.742  47.299  51.258  0.00  0.00     0.019 A 
ATOM     16  C   UNL d   1      61.065  46.572  51.450  0.00  0.00     0.002 A 
ATOM     17  C   UNL d   1      60.937  46.231  52.197  0.00  0.00     0.000 C 
ATOM     18  C   UNL d   1      61.513  46.184  50.907  0.00  0.00     0.000 A 
ATOM     19  C   UNL d   1      61.657  46.498  50.158  0.00  0.00     0.002 A 
ATOM     20  C   UNL d   1      61.335  47.221  49.967  0.00  0.00     0.019 A 
ATOM     21  C   UNL d   1      62.119  46.094  49.602  0.00  0.00     0.000 C 
ENDBRANCH   2  14
TORSDOF 5
ENDMDL
