MODEL 1
REMARK VINA RESULT:       1.2      0.000      0.000
REMARK  5 active torsions:
REMARK  status: ('A' for Active; 'I' for Inactive)
REMARK    1  A    between atoms: C_7  and  C_1 
REMARK    2  A    between atoms: C_13  and  C_2 
REMARK    3  A    between atoms: C_12  and  N_3 
REMARK    4  A    between atoms: C_4  and  C_7 
REMARK    5  A    between atoms: O_17  and  C_13 
ROOT
ATOM      1  N   UNL d   1      32.468  19.594 -22.704  0.00  0.00    -0.305 N 
ATOM      2  C   UNL d   1      32.043  18.675 -23.573  0.00  0.00     0.018 A 
ATOM      3  C   UNL d   1      32.765  18.869 -22.468  0.00  0.00     0.064 A 
ATOM      4  C   UNL d   1      32.019  19.483 -23.388  0.00  0.00     0.064 A 
ATOM      5  C   UNL d   1      32.499  18.293 -23.011  0.00  0.00     0.019 A 
ATOM      6  C   UNL d   1      33.241  18.726 -21.813  0.00  0.00     0.019 C 
ATOM      7  C   UNL d   1      31.619  20.068 -23.813  0.00  0.00     0.019 C 
ENDROOT
BRANCH   2   8
ATOM      8  C   UNL d   1      31.669  18.312 -24.216  0.00  0.00     0.006 C 
BRANCH   8   9
ATOM      9  C   UNL d   1      31.948  17.598 -24.505  0.00  0.00     0.065 A 
ATOM     10  C   UNL d   1      31.560  16.871 -24.452  0.00  0.00     0.086 A 
ATOM     11  C   UNL d   1      32.037  16.298 -24.816  0.00  0.00     0.090 A 
ATOM     12  C   UNL d   1      31.858  15.502 -24.885  0.00  0.00     0.021 C 
ATOM     13  N   UNL d   1      32.719  16.669 -25.094  0.00  0.00    -0.208 NA
ATOM     14  C   UNL d   1      32.666  17.477 -24.902  0.00  0.00     0.279 A 
ATOM     15  O   UNL d   1      33.221  18.054 -25.072  0.00  0.00    -0.265 OA
BRANCH  10  16
ATOM     16  C   UNL d   1      30.827  16.735 -24.100  0.00  0.00     0.297 C 
ATOM     17  O   UNL d   1      30.778  16.370 -23.356  0.00  0.00    -0.259 OA
BRANCH  16  18
ATOM     18  O   UNL d   1      30.126  16.960 -24.482  0.00  0.00    -0.296 OA
ATOM     19  C   UNL d   1      29.393  16.735 -24.181  0.00  0.00     0.185 C 
ENDBRANCH  16  18
ENDBRANCH  10  16
ENDBRANCH   8   9
ENDBRANCH   2   8
BRANCH   1  20
ATOM     20  C   UNL d   1      32.600  20.312 -22.317  0.00  0.00     0.092 A 
ATOM     21  C   UNL d   1      32.982  20.916 -22.698  0.00  0.00     0.156 A 
ATOM     22  F   UNL d   1      33.241  20.818 -23.475  0.00  0.00    -0.203 F 
ATOM     23  C   UNL d   1      33.118  21.642 -22.311  0.00  0.00     0.031 A 
ATOM     24  C   UNL d   1      32.853  21.732 -21.526  0.00  0.00     0.002 A 
ATOM     25  C   UNL d   1      32.465  21.111 -21.145  0.00  0.00     0.002 A 
ATOM     26  C   UNL d   1      32.338  20.401 -21.540  0.00  0.00     0.020 A 
ENDBRANCH   1  20
TORSDOF 5
ENDMDL
MODEL 2
REMARK VINA RESULT:       2.9      1.405      2.150
REMARK  5 active torsions:
REMARK  status: ('A' for Active; 'I' for Inactive)
REMARK    1  A    between atoms: C_7  and  C_1 
REMARK    2  A    between atoms: C_13  and  C_2 
REMARK    3  A    between atoms: C_12  and  N_3 
REMARK    4  A    between atoms: C_4  and  C_7 
REMARK    5  A    between atoms: O_17  and  C_13 
ROOT
ATOM      1  N   UNL d   1      32.753  20.718 -21.798  0.00  0.00    -0.305 N 
ATOM      2  C   UNL d   1      32.964  19.653 -22.575  0.00  0.00     0.018 A 
ATOM      3  C   UNL d   1      32.587  20.933 -22.571  0.00  0.00     0.064 A 
ATOM      4  C   UNL d   1      32.987  19.926 -21.792  0.00  0.00     0.064 A 
ATOM      5  C   UNL d   1      32.719  20.266 -23.057  0.00  0.00     0.019 A 
ATOM      6  C   UNL d   1      32.335  21.672 -22.828  0.00  0.00     0.019 C 
ATOM      7  C   UNL d   1      33.206  19.484 -21.129  0.00  0.00     0.019 C 
ENDROOT
BRANCH   2   8
ATOM      8  C   UNL d   1      33.155  18.889 -22.829  0.00  0.00     0.006 C 
BRANCH   8   9
ATOM      9  C   UNL d   1      32.961  18.646 -23.588  0.00  0.00     0.065 A 
ATOM     10  C   UNL d   1      32.692  17.896 -23.800  0.00  0.00     0.086 A 
ATOM     11  C   UNL d   1      32.564  17.891 -24.620  0.00  0.00     0.090 A 
ATOM     12  C   UNL d   1      32.296  17.254 -25.058  0.00  0.00     0.021 C 
ATOM     13  N   UNL d   1      32.753  18.638 -24.914  0.00  0.00    -0.208 NA
ATOM     14  C   UNL d   1      33.001  19.109 -24.275  0.00  0.00     0.279 A 
ATOM     15  O   UNL d   1      33.241  19.891 -24.311  0.00  0.00    -0.265 OA
BRANCH  10  16
ATOM     16  C   UNL d   1      32.571  17.260 -23.291  0.00  0.00     0.297 C 
ATOM     17  O   UNL d   1      33.214  16.816 -23.009  0.00  0.00    -0.259 OA
BRANCH  16  18
ATOM     18  O   UNL d   1      31.806  17.050 -23.050  0.00  0.00    -0.296 OA
ATOM     19  C   UNL d   1      31.579  16.259 -23.012  0.00  0.00     0.185 C 
ENDBRANCH  16  18
ENDBRANCH  10  16
ENDBRANCH   8   9
ENDBRANCH   2   8
BRANCH   1  20
ATOM     20  C   UNL d   1      32.694  21.215 -21.142  0.00  0.00     0.092 A 
ATOM     21  C   UNL d   1      32.139  21.071 -20.570  0.00  0.00     0.156 A 
ATOM     22  F   UNL d   1      31.630  20.426 -20.639  0.00  0.00    -0.203 F 
ATOM     23  C   UNL d   1      32.075  21.571 -19.906  0.00  0.00     0.031 A 
ATOM     24  C   UNL d   1      32.593  22.220 -19.844  0.00  0.00     0.002 A 
ATOM     25  C   UNL d   1      33.156  22.361 -20.431  0.00  0.00     0.002 A 
ATOM     26  C   UNL d   1      33.206  21.858 -21.081  0.00  0.00     0.020 A 
ENDBRANCH   1  20
TORSDOF 5
ENDMDL
MODEL 3
REMARK VINA RESULT:       3.0      1.695      2.668
REMARK  5 active torsions:
REMARK  status: ('A' for Active; 'I' for Inactive)
REMARK    1  A    between atoms: C_7  and  C_1 
REMARK    2  A    between atoms: C_13  and  C_2 
REMARK    3  A    between atoms: C_12  and  N_3 
REMARK    4  A    between atoms: C_4  and  C_7 
REMARK    5  A    between atoms: O_17  and  C_13 
ROOT
ATOM      1  N   UNL d   1      32.925  21.445 -21.598  0.00  0.00    -0.305 N 
ATOM      2  C   UNL d   1      33.040  20.360 -22.367  0.00  0.00     0.018 A 
ATOM      3  C   UNL d   1      33.037  21.694 -22.370  0.00  0.00     0.064 A 
ATOM      4  C   UNL d   1      32.925  20.619 -21.587  0.00  0.00     0.064 A 
ATOM      5  C   UNL d   1      33.109  21.015 -22.851  0.00  0.00     0.019 A 
ATOM      6  C   UNL d   1      33.073  22.473 -22.631  0.00  0.00     0.019 C 
ATOM      7  C   UNL d   1      32.830  20.137 -20.923  0.00  0.00     0.019 C 
ENDROOT
BRANCH   2   8
ATOM      8  C   UNL d   1      33.078  19.572 -22.617  0.00  0.00     0.006 C 
BRANCH   8   9
ATOM      9  C   UNL d   1      32.958  19.383 -23.405  0.00  0.00     0.065 A 
ATOM     10  C   UNL d   1      32.741  18.641 -23.695  0.00  0.00     0.086 A 
ATOM     11  C   UNL d   1      32.680  18.697 -24.521  0.00  0.00     0.090 A 
ATOM     12  C   UNL d   1      32.477  18.086 -25.027  0.00  0.00     0.021 C 
ATOM     13  N   UNL d   1      32.859  19.471 -24.741  0.00  0.00    -0.208 NA
ATOM     14  C   UNL d   1      33.032  19.900 -24.050  0.00  0.00     0.279 A 
ATOM     15  O   UNL d   1      33.239  20.690 -24.006  0.00  0.00    -0.265 OA
BRANCH  10  16
ATOM     16  C   UNL d   1      32.607  17.963 -23.247  0.00  0.00     0.297 C 
ATOM     17  O   UNL d   1      31.835  17.745 -23.032  0.00  0.00    -0.259 OA
BRANCH  16  18
ATOM     18  O   UNL d   1      33.239  17.486 -23.003  0.00  0.00    -0.296 OA
ATOM     19  C   UNL d   1      33.102  16.754 -22.649  0.00  0.00     0.185 C 
ENDBRANCH  16  18
ENDBRANCH  10  16
ENDBRANCH   8   9
ENDBRANCH   2   8
BRANCH   1  20
ATOM     20  C   UNL d   1      32.829  21.943 -20.946  0.00  0.00     0.092 A 
ATOM     21  C   UNL d   1      32.347  22.592 -20.998  0.00  0.00     0.156 A 
ATOM     22  F   UNL d   1      31.950  22.760 -21.700  0.00  0.00    -0.203 F 
ATOM     23  C   UNL d   1      32.247  23.097 -20.342  0.00  0.00     0.031 A 
ATOM     24  C   UNL d   1      32.652  22.920 -19.636  0.00  0.00     0.002 A 
ATOM     25  C   UNL d   1      33.141  22.256 -19.592  0.00  0.00     0.002 A 
ATOM     26  C   UNL d   1      33.229  21.768 -20.248  0.00  0.00     0.020 A 
ENDBRANCH   1  20
TORSDOF 5
ENDMDL
MODEL 4
REMARK VINA RESULT:       3.5      1.801      3.001
REMARK  5 active torsions:
REMARK  status: ('A' for Active; 'I' for Inactive)
REMARK    1  A    between atoms: C_7  and  C_1 
REMARK    2  A    between atoms: C_13  and  C_2 
REMARK    3  A    between atoms: C_12  and  N_3 
REMARK    4  A    between atoms: C_4  and  C_7 
REMARK    5  A    between atoms: O_17  and  C_13 
ROOT
ATOM      1  N   UNL d   1      32.782  21.530 -21.064  0.00  0.00    -0.305 N 
ATOM      2  C   UNL d   1      33.032  20.606 -21.994  0.00  0.00     0.018 A 
ATOM      3  C   UNL d   1      32.647  20.794 -20.731  0.00  0.00     0.064 A 
ATOM      4  C   UNL d   1      33.022  21.422 -21.847  0.00  0.00     0.064 A 
ATOM      5  C   UNL d   1      32.803  20.216 -21.313  0.00  0.00     0.019 A 
ATOM      6  C   UNL d   1      32.400  20.645 -19.961  0.00  0.00     0.019 C 
ATOM      7  C   UNL d   1      33.216  22.017 -22.386  0.00  0.00     0.019 C 
ENDROOT
BRANCH   2   8
ATOM      8  C   UNL d   1      33.239  20.244 -22.709  0.00  0.00     0.006 C 
BRANCH   8   9
ATOM      9  C   UNL d   1      33.032  19.464 -22.851  0.00  0.00     0.065 A 
ATOM     10  C   UNL d   1      32.786  19.155 -23.576  0.00  0.00     0.086 A 
ATOM     11  C   UNL d   1      32.632  18.346 -23.471  0.00  0.00     0.090 A 
ATOM     12  C   UNL d   1      32.375  17.830 -24.052  0.00  0.00     0.021 C 
ATOM     13  N   UNL d   1      32.783  18.155 -22.684  0.00  0.00    -0.208 NA
ATOM     14  C   UNL d   1      33.031  18.847 -22.296  0.00  0.00     0.279 A 
ATOM     15  O   UNL d   1      33.240  18.916 -21.507  0.00  0.00    -0.265 OA
BRANCH  10  16
ATOM     16  C   UNL d   1      32.705  19.573 -24.281  0.00  0.00     0.297 C 
ATOM     17  O   UNL d   1      33.205  19.414 -24.925  0.00  0.00    -0.259 OA
BRANCH  16  18
ATOM     18  O   UNL d   1      32.125  20.159 -24.362  0.00  0.00    -0.296 OA
ATOM     19  C   UNL d   1      31.972  20.501 -25.096  0.00  0.00     0.185 C 
ENDBRANCH  16  18
ENDBRANCH  10  16
ENDBRANCH   8   9
ENDBRANCH   2   8
BRANCH   1  20
ATOM     20  C   UNL d   1      32.692  22.252 -20.674  0.00  0.00     0.092 A 
ATOM     21  C   UNL d   1      32.097  22.759 -20.889  0.00  0.00     0.156 A 
ATOM     22  F   UNL d   1      31.579  22.556 -21.496  0.00  0.00    -0.203 F 
ATOM     23  C   UNL d   1      32.003  23.489 -20.498  0.00  0.00     0.031 A 
ATOM     24  C   UNL d   1      32.531  23.686 -19.885  0.00  0.00     0.002 A 
ATOM     25  C   UNL d   1      33.135  23.164 -19.673  0.00  0.00     0.002 A 
ATOM     26  C   UNL d   1      33.215  22.447 -20.068  0.00  0.00     0.020 A 
ENDBRANCH   1  20
TORSDOF 5
ENDMDL
MODEL 5
REMARK VINA RESULT:       3.8      1.794      4.349
REMARK  5 active torsions:
REMARK  status: ('A' for Active; 'I' for Inactive)
REMARK    1  A    between atoms: C_7  and  C_1 
REMARK    2  A    between atoms: C_13  and  C_2 
REMARK    3  A    between atoms: C_12  and  N_3 
REMARK    4  A    between atoms: C_4  and  C_7 
REMARK    5  A    between atoms: O_17  and  C_13 
ROOT
ATOM      1  N   UNL d   1      31.190  17.155 -24.102  0.00  0.00    -0.305 N 
ATOM      2  C   UNL d   1      32.193  17.885 -23.608  0.00  0.00     0.018 A 
ATOM      3  C   UNL d   1      31.876  16.941 -24.496  0.00  0.00     0.064 A 
ATOM      4  C   UNL d   1      31.378  17.740 -23.550  0.00  0.00     0.064 A 
ATOM      5  C   UNL d   1      32.503  17.397 -24.187  0.00  0.00     0.019 A 
ATOM      6  C   UNL d   1      31.940  16.377 -25.091  0.00  0.00     0.019 C 
ATOM      7  C   UNL d   1      30.854  18.114 -23.033  0.00  0.00     0.019 C 
ENDROOT
BRANCH   2   8
ATOM      8  C   UNL d   1      32.624  18.430 -23.158  0.00  0.00     0.006 C 
BRANCH   8   9
ATOM      9  C   UNL d   1      32.828  19.157 -23.476  0.00  0.00     0.065 A 
ATOM     10  C   UNL d   1      32.892  19.865 -23.058  0.00  0.00     0.086 A 
ATOM     11  C   UNL d   1      33.110  20.461 -23.593  0.00  0.00     0.090 A 
ATOM     12  C   UNL d   1      33.232  21.249 -23.406  0.00  0.00     0.021 C 
ATOM     13  N   UNL d   1      33.181  20.122 -24.340  0.00  0.00    -0.208 NA
ATOM     14  C   UNL d   1      33.006  19.312 -24.272  0.00  0.00     0.279 A 
ATOM     15  O   UNL d   1      33.009  18.760 -24.876  0.00  0.00    -0.265 OA
BRANCH  10  16
ATOM     16  C   UNL d   1      32.762  19.967 -22.250  0.00  0.00     0.297 C 
ATOM     17  O   UNL d   1      33.239  19.577 -21.694  0.00  0.00    -0.259 OA
BRANCH  16  18
ATOM     18  O   UNL d   1      32.154  20.461 -21.978  0.00  0.00    -0.296 OA
ATOM     19  C   UNL d   1      32.257  20.922 -21.303  0.00  0.00     0.185 C 
ENDBRANCH  16  18
ENDBRANCH  10  16
ENDBRANCH   8   9
ENDBRANCH   2   8
BRANCH   1  20
ATOM     20  C   UNL d   1      30.442  16.836 -24.240  0.00  0.00     0.092 A 
ATOM     21  C   UNL d   1      30.259  16.094 -23.969  0.00  0.00     0.156 A 
ATOM     22  F   UNL d   1      30.819  15.655 -23.554  0.00  0.00    -0.203 F 
ATOM     23  C   UNL d   1      29.505  15.768 -24.106  0.00  0.00     0.031 A 
ATOM     24  C   UNL d   1      28.944  16.219 -24.526  0.00  0.00     0.002 A 
ATOM     25  C   UNL d   1      29.138  16.974 -24.799  0.00  0.00     0.002 A 
ATOM     26  C   UNL d   1      29.887  17.282 -24.656  0.00  0.00     0.020 A 
ENDBRANCH   1  20
TORSDOF 5
ENDMDL
