MODEL 1
REMARK VINA RESULT:      89.8      0.000      0.000
REMARK  1 active torsions:
REMARK  status: ('A' for Active; 'I' for Inactive)
REMARK    1  A    between atoms: C_6  and  C_1 
REMARK       I    between atoms: N_9  and  C_6 
ROOT
ATOM      1  C   UNL d   1      60.689  48.789  50.902  0.00  0.00     0.107 A 
ATOM      2  C   UNL d   1      59.560  49.079  50.256  0.00  0.00     0.044 A 
ATOM      3  S   UNL d   1      60.072  48.780  51.447  0.00  0.00    -0.061 SA
ATOM      4  C   UNL d   1      59.374  48.959  51.048  0.00  0.00     0.112 A 
ATOM      5  C   UNL d   1      60.367  48.975  50.163  0.00  0.00     0.116 A 
ATOM      6  N   UNL d   1      58.584  49.031  51.302  0.00  0.00    -0.239 NA
ATOM      7  C   UNL d   1      58.964  49.269  49.715  0.00  0.00     0.005 A 
ATOM      8  C   UNL d   1      57.996  49.220  50.761  0.00  0.00     0.082 A 
ATOM      9  C   UNL d   1      58.194  49.338  49.968  0.00  0.00     0.018 A 
ATOM     10  N   UNL d   1      60.784  49.040  49.473  0.00  0.00    -0.147 N 
ATOM     11  C   UNL d   1      57.298  49.243  51.203  0.00  0.00     0.019 A 
ATOM     12  C   UNL d   1      57.772  49.529  49.279  0.00  0.00     0.002 A 
ATOM     13  C   UNL d   1      56.505  49.395  51.026  0.00  0.00     0.002 A 
ATOM     14  C   UNL d   1      56.968  49.682  49.109  0.00  0.00     0.000 A 
ATOM     15  C   UNL d   1      56.272  49.705  49.550  0.00  0.00     0.000 A 
ATOM     16  C   UNL d   1      56.081  49.586  50.345  0.00  0.00     0.000 A 
ENDROOT
BRANCH   1  17
ATOM     17  C   UNL d   1      61.461  48.643  51.061  0.00  0.00     0.272 C 
ATOM     18  N   UNL d   1      61.794  47.964  50.813  0.00  0.00    -0.272 N 
ATOM     19  C   UNL d   1      61.440  47.377  50.405  0.00  0.00     0.083 A 
ATOM     20  C   UNL d   1      62.564  47.748  50.935  0.00  0.00     0.083 A 
ATOM     21  C   UNL d   1      61.978  46.806  50.274  0.00  0.00     0.021 A 
ATOM     22  C   UNL d   1      62.666  47.028  50.597  0.00  0.00     0.021 A 
ATOM     23  O   UNL d   1      61.892  49.183  51.468  0.00  0.00    -0.266 OA
ENDBRANCH   1  17
TORSDOF 1
ENDMDL
