MODEL 1
REMARK VINA RESULT:      -4.8      0.000      0.000
REMARK  5 active torsions:
REMARK  status: ('A' for Active; 'I' for Inactive)
REMARK    1  A    between atoms: N_2  and  S_1 
REMARK    2  A    between atoms: C_3  and  S_1 
REMARK    3  A    between atoms: C_6  and  C_4 
REMARK    4  A    between atoms: O_15  and  C_6 
REMARK    5  A    between atoms: C_18  and  O_15 
ROOT
ATOM      1  N   UNL d   1     -41.740-122.400 -50.760  0.00  0.00    -0.229 N 
ATOM      2  C   UNL d   1     -41.438-122.427 -52.148  0.00  0.00     0.082 A 
ATOM      3  C   UNL d   1     -41.745-122.792 -51.476  0.00  0.00     0.097 A 
ATOM      4  C   UNL d   1     -41.430-121.637 -50.704  0.00  0.00     0.092 A 
ATOM      5  C   UNL d   1     -41.127-121.669 -52.104  0.00  0.00     0.008 A 
ATOM      6  C   UNL d   1     -41.123-121.273 -51.380  0.00  0.00     0.020 A 
ENDROOT
BRANCH   1   7
ATOM      7  S   UNL d   1     -42.047-122.765 -50.088  0.00  0.00     0.277 S 
ATOM      8  O   UNL d   1     -41.308-123.091 -49.928  0.00  0.00    -0.199 OA
ATOM      9  O   UNL d   1     -42.789-122.438 -50.249  0.00  0.00    -0.199 OA
BRANCH   7  10
ATOM     10  C   UNL d   1     -42.355-123.131 -49.415  0.00  0.00     0.133 A 
ATOM     11  S   UNL d   1     -43.016-123.499 -49.107  0.00  0.00    -0.074 SA
ATOM     12  C   UNL d   1     -42.852-123.722 -48.328  0.00  0.00     0.036 A 
ATOM     13  C   UNL d   1     -42.075-123.482 -48.164  0.00  0.00     0.008 A 
ATOM     14  C   UNL d   1     -41.768-123.117 -48.836  0.00  0.00     0.020 A 
ENDBRANCH   7  10
ENDBRANCH   1   7
BRANCH   2  15
ATOM     15  C   UNL d   1     -41.445-122.830 -52.872  0.00  0.00     0.302 C 
ATOM     16  O   UNL d   1     -41.303-123.640 -52.902  0.00  0.00    -0.259 OA
BRANCH  15  17
ATOM     17  O   UNL d   1     -41.595-122.413 -53.569  0.00  0.00    -0.271 OA
BRANCH  17  18
ATOM     18  C   UNL d   1     -41.599-122.805 -54.289  0.00  0.00     0.126 C 
ATOM     19  C   UNL d   1     -41.853-122.414 -54.971  0.00  0.00     0.029 C 
ENDBRANCH  17  18
ENDBRANCH  15  17
ENDBRANCH   2  15
TORSDOF 5
ENDMDL
MODEL 2
REMARK VINA RESULT:      -4.6      1.943      4.489
REMARK  5 active torsions:
REMARK  status: ('A' for Active; 'I' for Inactive)
REMARK    1  A    between atoms: N_2  and  S_1 
REMARK    2  A    between atoms: C_3  and  S_1 
REMARK    3  A    between atoms: C_6  and  C_4 
REMARK    4  A    between atoms: O_15  and  C_6 
REMARK    5  A    between atoms: C_18  and  O_15 
ROOT
ATOM      1  N   UNL d   1     -41.586-122.788 -53.201  0.00  0.00    -0.229 N 
ATOM      2  C   UNL d   1     -41.675-122.618 -51.794  0.00  0.00     0.082 A 
ATOM      3  C   UNL d   1     -41.797-122.333 -52.557  0.00  0.00     0.097 A 
ATOM      4  C   UNL d   1     -41.250-123.534 -53.092  0.00  0.00     0.092 A 
ATOM      5  C   UNL d   1     -41.342-123.358 -51.674  0.00  0.00     0.008 A 
ATOM      6  C   UNL d   1     -41.129-123.817 -52.325  0.00  0.00     0.020 A 
ENDROOT
BRANCH   1   7
ATOM      7  S   UNL d   1     -41.708-122.504 -53.965  0.00  0.00     0.277 S 
ATOM      8  O   UNL d   1     -42.282-123.082 -54.089  0.00  0.00    -0.199 OA
ATOM      9  O   UNL d   1     -41.132-121.924 -53.840  0.00  0.00    -0.199 OA
BRANCH   7  10
ATOM     10  C   UNL d   1     -41.830-122.218 -54.730  0.00  0.00     0.133 A 
ATOM     11  S   UNL d   1     -41.478-122.114 -55.460  0.00  0.00    -0.074 SA
ATOM     12  C   UNL d   1     -42.027-121.758 -55.965  0.00  0.00     0.036 A 
ATOM     13  C   UNL d   1     -42.724-121.645 -55.530  0.00  0.00     0.008 A 
ATOM     14  C   UNL d   1     -42.602-121.930 -54.766  0.00  0.00     0.020 A 
ENDBRANCH   7  10
ENDBRANCH   1   7
BRANCH   2  15
ATOM     15  C   UNL d   1     -41.892-122.151 -51.144  0.00  0.00     0.302 C 
ATOM     16  O   UNL d   1     -41.432-121.507 -50.919  0.00  0.00    -0.259 OA
BRANCH  15  17
ATOM     17  O   UNL d   1     -42.575-122.336 -50.719  0.00  0.00    -0.271 OA
BRANCH  17  18
ATOM     18  C   UNL d   1     -42.692-122.023 -49.971  0.00  0.00     0.126 C 
ATOM     19  C   UNL d   1     -43.299-122.311 -49.491  0.00  0.00     0.029 C 
ENDBRANCH  17  18
ENDBRANCH  15  17
ENDBRANCH   2  15
TORSDOF 5
ENDMDL
MODEL 3
REMARK VINA RESULT:      -4.4      1.410      4.034
REMARK  5 active torsions:
REMARK  status: ('A' for Active; 'I' for Inactive)
REMARK    1  A    between atoms: N_2  and  S_1 
REMARK    2  A    between atoms: C_3  and  S_1 
REMARK    3  A    between atoms: C_6  and  C_4 
REMARK    4  A    between atoms: O_15  and  C_6 
REMARK    5  A    between atoms: C_18  and  O_15 
ROOT
ATOM      1  N   UNL d   1     -41.405-122.404 -52.162  0.00  0.00    -0.229 N 
ATOM      2  C   UNL d   1     -41.581-122.684 -50.780  0.00  0.00     0.082 A 
ATOM      3  C   UNL d   1     -41.614-122.924 -51.568  0.00  0.00     0.097 A 
ATOM      4  C   UNL d   1     -41.160-121.638 -51.978  0.00  0.00     0.092 A 
ATOM      5  C   UNL d   1     -41.339-121.924 -50.586  0.00  0.00     0.008 A 
ATOM      6  C   UNL d   1     -41.129-121.400 -51.187  0.00  0.00     0.020 A 
ENDROOT
BRANCH   1   7
ATOM      7  S   UNL d   1     -41.437-122.644 -52.949  0.00  0.00     0.277 S 
ATOM      8  O   UNL d   1     -41.737-121.906 -53.161  0.00  0.00    -0.199 OA
ATOM      9  O   UNL d   1     -41.137-123.383 -52.737  0.00  0.00    -0.199 OA
BRANCH   7  10
ATOM     10  C   UNL d   1     -41.470-122.884 -53.739  0.00  0.00     0.133 A 
ATOM     11  S   UNL d   1     -41.207-123.447 -54.269  0.00  0.00    -0.074 SA
ATOM     12  C   UNL d   1     -41.523-123.272 -55.013  0.00  0.00     0.036 A 
ATOM     13  C   UNL d   1     -41.986-122.589 -54.928  0.00  0.00     0.008 A 
ATOM     14  C   UNL d   1     -41.953-122.349 -54.140  0.00  0.00     0.020 A 
ENDBRANCH   7  10
ENDBRANCH   1   7
BRANCH   2  15
ATOM     15  C   UNL d   1     -41.794-123.216 -50.182  0.00  0.00     0.302 C 
ATOM     16  O   UNL d   1     -41.229-123.698 -49.828  0.00  0.00    -0.259 OA
BRANCH  15  17
ATOM     17  O   UNL d   1     -42.582-123.261 -49.938  0.00  0.00    -0.271 OA
BRANCH  17  18
ATOM     18  C   UNL d   1     -42.809-123.816 -49.380  0.00  0.00     0.126 C 
ATOM     19  C   UNL d   1     -43.502-123.707 -48.945  0.00  0.00     0.029 C 
ENDBRANCH  17  18
ENDBRANCH  15  17
ENDBRANCH   2  15
TORSDOF 5
ENDMDL
MODEL 4
REMARK VINA RESULT:      -3.9      1.144      1.575
REMARK  5 active torsions:
REMARK  status: ('A' for Active; 'I' for Inactive)
REMARK    1  A    between atoms: N_2  and  S_1 
REMARK    2  A    between atoms: C_3  and  S_1 
REMARK    3  A    between atoms: C_6  and  C_4 
REMARK    4  A    between atoms: O_15  and  C_6 
REMARK    5  A    between atoms: C_18  and  O_15 
ROOT
ATOM      1  N   UNL d   1     -41.736-123.020 -51.751  0.00  0.00    -0.229 N 
ATOM      2  C   UNL d   1     -41.697-122.561 -53.095  0.00  0.00     0.082 A 
ATOM      3  C   UNL d   1     -41.914-122.450 -52.308  0.00  0.00     0.097 A 
ATOM      4  C   UNL d   1     -41.339-123.708 -51.972  0.00  0.00     0.092 A 
ATOM      5  C   UNL d   1     -41.302-123.242 -53.325  0.00  0.00     0.008 A 
ATOM      6  C   UNL d   1     -41.123-123.817 -52.762  0.00  0.00     0.020 A 
ENDROOT
BRANCH   1   7
ATOM      7  S   UNL d   1     -41.952-122.908 -50.964  0.00  0.00     0.277 S 
ATOM      8  O   UNL d   1     -42.721-123.148 -51.141  0.00  0.00    -0.199 OA
ATOM      9  O   UNL d   1     -41.182-122.668 -50.786  0.00  0.00    -0.199 OA
BRANCH   7  10
ATOM     10  C   UNL d   1     -42.170-122.797 -50.175  0.00  0.00     0.133 A 
ATOM     11  S   UNL d   1     -42.710-122.431 -49.685  0.00  0.00    -0.074 SA
ATOM     12  C   UNL d   1     -42.520-122.617 -48.901  0.00  0.00     0.036 A 
ATOM     13  C   UNL d   1     -41.850-123.105 -48.922  0.00  0.00     0.008 A 
ATOM     14  C   UNL d   1     -41.634-123.217 -49.709  0.00  0.00     0.020 A 
ENDBRANCH   7  10
ENDBRANCH   1   7
BRANCH   2  15
ATOM     15  C   UNL d   1     -41.881-121.979 -53.656  0.00  0.00     0.302 C 
ATOM     16  O   UNL d   1     -41.608-121.208 -53.564  0.00  0.00    -0.259 OA
BRANCH  15  17
ATOM     17  O   UNL d   1     -42.341-122.176 -54.312  0.00  0.00    -0.271 OA
BRANCH  17  18
ATOM     18  C   UNL d   1     -42.430-121.643 -54.928  0.00  0.00     0.126 C 
ATOM     19  C   UNL d   1     -42.623-121.911 -55.685  0.00  0.00     0.029 C 
ENDBRANCH  17  18
ENDBRANCH  15  17
ENDBRANCH   2  15
TORSDOF 5
ENDMDL
