MODEL 1
REMARK VINA RESULT:      39.3      0.000      0.000
REMARK  4 active torsions:
REMARK  status: ('A' for Active; 'I' for Inactive)
REMARK    1  A    between atoms: C_6  and  S_1 
REMARK    2  A    between atoms: N_12  and  S_1 
REMARK    3  A    between atoms: N_4  and  C_2 
REMARK       I    between atoms: C_7  and  N_4 
REMARK    4  A    between atoms: C_10  and  C_7 
ROOT
ATOM      1  C   UNL d   1     -54.743-102.049 -41.253  0.00  0.00     0.197 A 
ATOM      2  N   UNL d   1     -54.778-102.515 -41.932  0.00  0.00    -0.221 NA
ATOM      3  S   UNL d   1     -54.729-101.257 -41.483  0.00  0.00    -0.047 SA
ATOM      4  C   UNL d   1     -54.786-100.748 -43.655  0.00  0.00     0.105 A 
ATOM      5  C   UNL d   1     -54.756-101.234 -42.311  0.00  0.00     0.051 A 
ATOM      6  C   UNL d   1     -54.786-102.009 -42.593  0.00  0.00     0.090 A 
ATOM      7  C   UNL d   1     -54.756-100.601 -42.844  0.00  0.00     0.021 A 
ATOM      8  C   UNL d   1     -54.817-101.532 -43.936  0.00  0.00     0.015 A 
ATOM      9  C   UNL d   1     -54.817-102.155 -43.405  0.00  0.00     0.020 A 
ENDROOT
BRANCH   1  10
ATOM     10  N   UNL d   1     -54.725-102.328 -40.476  0.00  0.00    -0.182 NA
ATOM     11  C   UNL d   1     -54.848-101.844 -39.836  0.00  0.00     0.287 C 
ATOM     12  O   UNL d   1     -54.996-101.045 -39.949  0.00  0.00    -0.265 OA
BRANCH  11  13
ATOM     13  C   UNL d   1     -54.826-102.136 -39.079  0.00  0.00     0.087 A 
ATOM     14  S   UNL d   1     -54.791-101.573 -38.498  0.00  0.00    -0.082 SA
ATOM     15  C   UNL d   1     -54.773-101.935 -37.770  0.00  0.00     0.036 A 
ATOM     16  C   UNL d   1     -54.797-102.750 -37.902  0.00  0.00     0.008 A 
ATOM     17  C   UNL d   1     -54.830-102.879 -38.706  0.00  0.00     0.012 A 
ENDBRANCH  11  13
ENDBRANCH   1  10
BRANCH   4  18
ATOM     18  S   UNL d   1     -54.787-100.127 -44.195  0.00  0.00     0.272 S 
ATOM     19  O   UNL d   1     -54.742-100.868 -44.882  0.00  0.00    -0.200 OA
ATOM     20  O   UNL d   1     -54.831 -99.349 -43.581  0.00  0.00    -0.200 OA
BRANCH  18  21
ATOM     21  N   UNL d   1     -54.779 -99.661 -44.877  0.00  0.00    -0.226 N 
ATOM     22  C   UNL d   1     -54.838 -98.838 -44.809  0.00  0.00     0.111 C 
ATOM     23  C   UNL d   1     -54.712-100.013 -45.620  0.00  0.00     0.111 C 
ENDBRANCH  18  21
ENDBRANCH   4  18
TORSDOF 4
ENDMDL
