MODEL 1
REMARK VINA RESULT:      -2.8      0.000      0.000
REMARK  4 active torsions:
REMARK  status: ('A' for Active; 'I' for Inactive)
REMARK    1  A    between atoms: C_8  and  C_1 
REMARK    2  A    between atoms: S_4  and  N_7 
REMARK    3  A    between atoms: C_14  and  S_4 
REMARK    4  A    between atoms: N_7  and  C_13 
ROOT
ATOM      1  C   UNL d   1      32.951  18.653 -23.457  0.00  0.00     0.025 A 
ATOM      2  C   UNL d   1      32.602  17.947 -23.232  0.00  0.00     0.022 A 
ATOM      3  C   UNL d   1      32.533  17.326 -23.766  0.00  0.00     0.094 A 
ATOM      4  C   UNL d   1      33.241  18.757 -24.226  0.00  0.00     0.002 A 
ATOM      5  C   UNL d   1      33.178  18.146 -24.767  0.00  0.00     0.002 A 
ATOM      6  C   UNL d   1      32.820  17.424 -24.533  0.00  0.00     0.020 A 
ENDROOT
BRANCH   1   7
ATOM      7  C   UNL d   1      33.019  19.276 -22.915  0.00  0.00     0.112 A 
ATOM      8  S   UNL d   1      33.060  20.087 -23.105  0.00  0.00    -0.047 SA
ATOM      9  C   UNL d   1      33.125  20.528 -22.400  0.00  0.00     0.130 A 
ATOM     10  N   UNL d   1      33.184  21.328 -22.240  0.00  0.00    -0.236 NA
ATOM     11  C   UNL d   1      33.123  19.977 -21.768  0.00  0.00     0.106 A 
ATOM     12  C   UNL d   1      33.241  21.594 -21.466  0.00  0.00     0.100 A 
ATOM     13  C   UNL d   1      33.240  21.058 -20.839  0.00  0.00     0.022 A 
ATOM     14  C   UNL d   1      33.181  20.252 -20.987  0.00  0.00     0.023 A 
ATOM     15  N   UNL d   1      33.058  19.210 -22.083  0.00  0.00    -0.237 NA
ENDBRANCH   1   7
BRANCH   3  16
ATOM     16  N   UNL d   1      32.185  16.619 -23.545  0.00  0.00    -0.158 NA
BRANCH  16  17
ATOM     17  S   UNL d   1      31.482  16.375 -23.901  0.00  0.00     0.286 S 
ATOM     18  O   UNL d   1      31.049  16.838 -23.368  0.00  0.00    -0.198 OA
ATOM     19  O   UNL d   1      31.912  15.914 -24.433  0.00  0.00    -0.198 OA
BRANCH  17  20
ATOM     20  C   UNL d   1      30.787  16.129 -24.261  0.00  0.00     0.117 C 
ATOM     21  C   UNL d   1      30.311  15.559 -23.897  0.00  0.00     0.014 C 
ENDBRANCH  17  20
ENDBRANCH  16  17
ENDBRANCH   3  16
TORSDOF 4
ENDMDL
MODEL 2
REMARK VINA RESULT:      -2.6      2.483      4.956
REMARK  4 active torsions:
REMARK  status: ('A' for Active; 'I' for Inactive)
REMARK    1  A    between atoms: C_8  and  C_1 
REMARK    2  A    between atoms: S_4  and  N_7 
REMARK    3  A    between atoms: C_14  and  S_4 
REMARK    4  A    between atoms: N_7  and  C_13 
ROOT
ATOM      1  C   UNL d   1      33.183  20.043 -21.943  0.00  0.00     0.025 A 
ATOM      2  C   UNL d   1      33.185  20.855 -22.054  0.00  0.00     0.022 A 
ATOM      3  C   UNL d   1      33.194  21.365 -21.411  0.00  0.00     0.094 A 
ATOM      4  C   UNL d   1      33.190  19.720 -21.180  0.00  0.00     0.002 A 
ATOM      5  C   UNL d   1      33.199  20.218 -20.530  0.00  0.00     0.002 A 
ATOM      6  C   UNL d   1      33.201  21.049 -20.649  0.00  0.00     0.020 A 
ENDROOT
BRANCH   1   7
ATOM      7  C   UNL d   1      33.174  19.532 -22.595  0.00  0.00     0.112 A 
ATOM      8  S   UNL d   1      33.210  18.700 -22.564  0.00  0.00    -0.047 SA
ATOM      9  C   UNL d   1      33.187  18.398 -23.341  0.00  0.00     0.130 A 
ATOM     10  N   UNL d   1      33.204  17.642 -23.652  0.00  0.00    -0.236 NA
ATOM     11  C   UNL d   1      33.135  19.058 -23.856  0.00  0.00     0.106 A 
ATOM     12  C   UNL d   1      33.171  17.525 -24.464  0.00  0.00     0.100 A 
ATOM     13  C   UNL d   1      33.121  18.169 -24.977  0.00  0.00     0.022 A 
ATOM     14  C   UNL d   1      33.103  18.934 -24.676  0.00  0.00     0.023 A 
ATOM     15  N   UNL d   1      33.128  19.753 -23.400  0.00  0.00    -0.237 NA
ENDBRANCH   1   7
BRANCH   3  16
ATOM     16  N   UNL d   1      33.196  22.177 -21.518  0.00  0.00    -0.158 NA
BRANCH  16  17
ATOM     17  S   UNL d   1      32.635  22.645 -21.135  0.00  0.00     0.286 S 
ATOM     18  O   UNL d   1      33.120  22.680 -20.464  0.00  0.00    -0.198 OA
ATOM     19  O   UNL d   1      32.151  22.612 -21.802  0.00  0.00    -0.198 OA
BRANCH  17  20
ATOM     20  C   UNL d   1      32.074  23.111 -20.760  0.00  0.00     0.117 C 
ATOM     21  C   UNL d   1      31.673  23.699 -21.181  0.00  0.00     0.014 C 
ENDBRANCH  17  20
ENDBRANCH  16  17
ENDBRANCH   3  16
TORSDOF 4
ENDMDL
MODEL 3
REMARK VINA RESULT:      -2.6      1.713      4.538
REMARK  4 active torsions:
REMARK  status: ('A' for Active; 'I' for Inactive)
REMARK    1  A    between atoms: C_8  and  C_1 
REMARK    2  A    between atoms: S_4  and  N_7 
REMARK    3  A    between atoms: C_14  and  S_4 
REMARK    4  A    between atoms: N_7  and  C_13 
ROOT
ATOM      1  C   UNL d   1      31.600  16.474 -24.193  0.00  0.00     0.025 A 
ATOM      2  C   UNL d   1      32.031  16.949 -23.682  0.00  0.00     0.022 A 
ATOM      3  C   UNL d   1      32.808  17.150 -23.855  0.00  0.00     0.094 A 
ATOM      4  C   UNL d   1      31.939  16.189 -24.893  0.00  0.00     0.002 A 
ATOM      5  C   UNL d   1      32.713  16.383 -25.076  0.00  0.00     0.002 A 
ATOM      6  C   UNL d   1      33.150  16.869 -24.550  0.00  0.00     0.020 A 
ENDROOT
BRANCH   1   7
ATOM      7  C   UNL d   1      30.816  16.273 -24.015  0.00  0.00     0.112 A 
ATOM      8  S   UNL d   1      30.151  16.429 -24.494  0.00  0.00    -0.047 SA
ATOM      9  C   UNL d   1      29.469  16.137 -24.113  0.00  0.00     0.130 A 
ATOM     10  N   UNL d   1      28.675  16.128 -24.310  0.00  0.00    -0.236 NA
ATOM     11  C   UNL d   1      29.721  15.797 -23.389  0.00  0.00     0.106 A 
ATOM     12  C   UNL d   1      28.125  15.789 -23.804  0.00  0.00     0.100 A 
ATOM     13  C   UNL d   1      28.366  15.453 -23.090  0.00  0.00     0.022 A 
ATOM     14  C   UNL d   1      29.161  15.455 -22.881  0.00  0.00     0.023 A 
ATOM     15  N   UNL d   1      30.546  15.880 -23.329  0.00  0.00    -0.237 NA
ENDBRANCH   1   7
BRANCH   3  16
ATOM     16  N   UNL d   1      33.241  17.624 -23.346  0.00  0.00    -0.158 NA
BRANCH  16  17
ATOM     17  S   UNL d   1      33.028  18.413 -23.234  0.00  0.00     0.286 S 
ATOM     18  O   UNL d   1      32.890  18.264 -22.431  0.00  0.00    -0.198 OA
ATOM     19  O   UNL d   1      33.164  18.563 -24.034  0.00  0.00    -0.198 OA
BRANCH  17  20
ATOM     20  C   UNL d   1      32.817  19.199 -23.130  0.00  0.00     0.117 C 
ATOM     21  C   UNL d   1      33.206  19.663 -22.566  0.00  0.00     0.014 C 
ENDBRANCH  17  20
ENDBRANCH  16  17
ENDBRANCH   3  16
TORSDOF 4
ENDMDL
MODEL 4
REMARK VINA RESULT:      -1.9      1.517      2.278
REMARK  4 active torsions:
REMARK  status: ('A' for Active; 'I' for Inactive)
REMARK    1  A    between atoms: C_8  and  C_1 
REMARK    2  A    between atoms: S_4  and  N_7 
REMARK    3  A    between atoms: C_14  and  S_4 
REMARK    4  A    between atoms: N_7  and  C_13 
ROOT
ATOM      1  C   UNL d   1      33.154  20.897 -22.825  0.00  0.00     0.025 A 
ATOM      2  C   UNL d   1      33.166  20.080 -22.770  0.00  0.00     0.022 A 
ATOM      3  C   UNL d   1      33.210  19.616 -23.447  0.00  0.00     0.094 A 
ATOM      4  C   UNL d   1      33.185  21.273 -23.563  0.00  0.00     0.002 A 
ATOM      5  C   UNL d   1      33.228  20.821 -24.244  0.00  0.00     0.002 A 
ATOM      6  C   UNL d   1      33.241  19.985 -24.184  0.00  0.00     0.020 A 
ENDROOT
BRANCH   1   7
ATOM      7  C   UNL d   1      33.109  21.361 -22.140  0.00  0.00     0.112 A 
ATOM      8  S   UNL d   1      32.939  22.177 -22.112  0.00  0.00    -0.047 SA
ATOM      9  C   UNL d   1      32.948  22.429 -21.318  0.00  0.00     0.130 A 
ATOM     10  N   UNL d   1      32.824  23.151 -20.955  0.00  0.00    -0.236 NA
ATOM     11  C   UNL d   1      33.127  21.756 -20.851  0.00  0.00     0.106 A 
ATOM     12  C   UNL d   1      32.873  23.221 -20.138  0.00  0.00     0.100 A 
ATOM     13  C   UNL d   1      33.049  22.563 -19.673  0.00  0.00     0.022 A 
ATOM     14  C   UNL d   1      33.176  21.831 -20.026  0.00  0.00     0.023 A 
ATOM     15  N   UNL d   1      33.226  21.101 -21.354  0.00  0.00    -0.237 NA
ENDBRANCH   1   7
BRANCH   3  16
ATOM     16  N   UNL d   1      33.222  18.799 -23.396  0.00  0.00    -0.158 NA
BRANCH  16  17
ATOM     17  S   UNL d   1      32.559  18.361 -23.617  0.00  0.00     0.286 S 
ATOM     18  O   UNL d   1      32.292  18.365 -22.833  0.00  0.00    -0.198 OA
ATOM     19  O   UNL d   1      32.823  18.356 -24.398  0.00  0.00    -0.198 OA
BRANCH  17  20
ATOM     20  C   UNL d   1      31.902  17.925 -23.843  0.00  0.00     0.117 C 
ATOM     21  C   UNL d   1      31.896  17.104 -23.750  0.00  0.00     0.014 C 
ENDBRANCH  17  20
ENDBRANCH  16  17
ENDBRANCH   3  16
TORSDOF 4
ENDMDL
MODEL 5
REMARK VINA RESULT:      -0.6      4.909      6.418
REMARK  4 active torsions:
REMARK  status: ('A' for Active; 'I' for Inactive)
REMARK    1  A    between atoms: C_8  and  C_1 
REMARK    2  A    between atoms: S_4  and  N_7 
REMARK    3  A    between atoms: C_14  and  S_4 
REMARK    4  A    between atoms: N_7  and  C_13 
ROOT
ATOM      1  C   UNL d   1      32.497  22.594 -21.090  0.00  0.00     0.025 A 
ATOM      2  C   UNL d   1      32.650  23.204 -20.566  0.00  0.00     0.022 A 
ATOM      3  C   UNL d   1      32.554  23.095 -19.758  0.00  0.00     0.094 A 
ATOM      4  C   UNL d   1      32.243  21.854 -20.818  0.00  0.00     0.002 A 
ATOM      5  C   UNL d   1      32.143  21.733 -20.014  0.00  0.00     0.002 A 
ATOM      6  C   UNL d   1      32.301  22.360 -19.480  0.00  0.00     0.020 A 
ENDROOT
BRANCH   1   7
ATOM      7  C   UNL d   1      32.595  22.709 -21.905  0.00  0.00     0.112 A 
ATOM      8  S   UNL d   1      32.983  22.189 -22.429  0.00  0.00    -0.047 SA
ATOM      9  C   UNL d   1      32.959  22.511 -23.198  0.00  0.00     0.130 A 
ATOM     10  N   UNL d   1      33.240  22.258 -23.923  0.00  0.00    -0.236 NA
ATOM     11  C   UNL d   1      32.550  23.241 -23.144  0.00  0.00     0.106 A 
ATOM     12  C   UNL d   1      33.125  22.713 -24.596  0.00  0.00     0.100 A 
ATOM     13  C   UNL d   1      32.723  23.432 -24.550  0.00  0.00     0.022 A 
ATOM     14  C   UNL d   1      32.436  23.697 -23.827  0.00  0.00     0.023 A 
ATOM     15  N   UNL d   1      32.327  23.363 -22.352  0.00  0.00    -0.237 NA
ENDBRANCH   1   7
BRANCH   3  16
ATOM     16  N   UNL d   1      32.706  23.702 -19.231  0.00  0.00    -0.158 NA
BRANCH  16  17
ATOM     17  S   UNL d   1      32.455  23.642 -18.448  0.00  0.00     0.286 S 
ATOM     18  O   UNL d   1      33.241  23.678 -18.190  0.00  0.00    -0.198 OA
ATOM     19  O   UNL d   1      31.671  23.607 -18.702  0.00  0.00    -0.198 OA
BRANCH  17  20
ATOM     20  C   UNL d   1      32.197  23.582 -17.670  0.00  0.00     0.117 C 
ATOM     21  C   UNL d   1      32.735  23.668 -17.047  0.00  0.00     0.014 C 
ENDBRANCH  17  20
ENDBRANCH  16  17
ENDBRANCH   3  16
TORSDOF 4
ENDMDL
MODEL 6
REMARK VINA RESULT:      -0.1      4.768      6.140
REMARK  4 active torsions:
REMARK  status: ('A' for Active; 'I' for Inactive)
REMARK    1  A    between atoms: C_8  and  C_1 
REMARK    2  A    between atoms: S_4  and  N_7 
REMARK    3  A    between atoms: C_14  and  S_4 
REMARK    4  A    between atoms: N_7  and  C_13 
ROOT
ATOM      1  C   UNL d   1      33.041  22.179 -19.454  0.00  0.00     0.025 A 
ATOM      2  C   UNL d   1      33.154  22.742 -20.038  0.00  0.00     0.022 A 
ATOM      3  C   UNL d   1      33.128  22.532 -20.831  0.00  0.00     0.094 A 
ATOM      4  C   UNL d   1      32.899  21.387 -19.650  0.00  0.00     0.002 A 
ATOM      5  C   UNL d   1      32.871  21.165 -20.438  0.00  0.00     0.002 A 
ATOM      6  C   UNL d   1      32.987  21.745 -21.033  0.00  0.00     0.020 A 
ENDROOT
BRANCH   1   7
ATOM      7  C   UNL d   1      33.067  22.396 -18.654  0.00  0.00     0.112 A 
ATOM      8  S   UNL d   1      33.171  21.877 -18.011  0.00  0.00    -0.047 SA
ATOM      9  C   UNL d   1      33.165  22.318 -17.303  0.00  0.00     0.130 A 
ATOM     10  N   UNL d   1      33.241  22.117 -16.514  0.00  0.00    -0.236 NA
ATOM     11  C   UNL d   1      33.055  23.121 -17.517  0.00  0.00     0.106 A 
ATOM     12  C   UNL d   1      33.210  22.695 -15.932  0.00  0.00     0.100 A 
ATOM     13  C   UNL d   1      33.101  23.487 -16.136  0.00  0.00     0.022 A 
ATOM     14  C   UNL d   1      33.024  23.701 -16.926  0.00  0.00     0.023 A 
ATOM     15  N   UNL d   1      32.995  23.169 -18.346  0.00  0.00    -0.237 NA
ENDBRANCH   1   7
BRANCH   3  16
ATOM     16  N   UNL d   1      33.241  23.092 -21.418  0.00  0.00    -0.158 NA
BRANCH  16  17
ATOM     17  S   UNL d   1      32.608  23.324 -21.894  0.00  0.00     0.286 S 
ATOM     18  O   UNL d   1      32.961  22.954 -22.546  0.00  0.00    -0.198 OA
ATOM     19  O   UNL d   1      32.256  23.693 -21.246  0.00  0.00    -0.198 OA
BRANCH  17  20
ATOM     20  C   UNL d   1      31.976  23.558 -22.363  0.00  0.00     0.117 C 
ATOM     21  C   UNL d   1      32.047  23.557 -23.187  0.00  0.00     0.014 C 
ENDBRANCH  17  20
ENDBRANCH  16  17
ENDBRANCH   3  16
TORSDOF 4
ENDMDL
