MODEL 1
REMARK VINA RESULT:     -12.4      0.000      0.000
REMARK  2 active torsions:
REMARK  status: ('A' for Active; 'I' for Inactive)
REMARK    1  A    between atoms: C_12  and  N_1 
REMARK    2  A    between atoms: N_6  and  C_13 
ROOT
ATOM      1  N   UNL d   1      53.288  32.716  53.690  0.00  0.00    -0.242 N 
ATOM      2  C   UNL d   1      54.011  32.205  53.694  0.00  0.00     0.263 A 
ATOM      3  C   UNL d   1      52.669  32.294  53.454  0.00  0.00     0.263 A 
ATOM      4  C   UNL d   1      52.882  31.494  53.279  0.00  0.00     0.039 A 
ATOM      5  C   UNL d   1      53.634  31.387  53.398  0.00  0.00     0.039 A 
ATOM      6  C   UNL d   1      53.990  30.698  53.281  0.00  0.00     0.049 A 
ATOM      7  C   UNL d   1      52.444  30.849  53.018  0.00  0.00     0.049 A 
ATOM      8  C   UNL d   1      53.579  30.062  53.027  0.00  0.00    -0.026 A 
ATOM      9  C   UNL d   1      52.789  30.146  52.895  0.00  0.00    -0.026 A 
ATOM     10  C   UNL d   1      53.281  31.155  53.265  0.00  0.00     0.018 A 
ATOM     11  O   UNL d   1      51.902  32.576  53.380  0.00  0.00    -0.267 OA
ATOM     12  O   UNL d   1      54.696  32.329  53.862  0.00  0.00    -0.267 OA
ENDROOT
BRANCH   1  13
ATOM     13  C   UNL d   1      53.220  33.510  53.892  0.00  0.00     0.070 A 
ATOM     14  C   UNL d   1      53.039  34.072  53.311  0.00  0.00     0.019 A 
ATOM     15  C   UNL d   1      52.969  34.877  53.508  0.00  0.00     0.018 A 
ATOM     16  C   UNL d   1      53.082  35.122  54.303  0.00  0.00     0.096 A 
ATOM     17  C   UNL d   1      53.262  34.554  54.873  0.00  0.00     0.018 A 
ATOM     18  C   UNL d   1      53.331  33.749  54.668  0.00  0.00     0.019 A 
BRANCH  16  19
ATOM     19  N   UNL d   1      53.016  35.912  54.509  0.00  0.00     0.037 NA
ATOM     20  O   UNL d   1      53.353  35.280  54.903  0.00  0.00    -0.084 OA
ATOM     21  O   UNL d   1      53.023  36.708  54.862  0.00  0.00    -0.084 OA
ENDBRANCH  16  19
ENDBRANCH   1  13
TORSDOF 2
ENDMDL
MODEL 2
REMARK VINA RESULT:     -11.9      1.993      3.204
REMARK  2 active torsions:
REMARK  status: ('A' for Active; 'I' for Inactive)
REMARK    1  A    between atoms: C_12  and  N_1 
REMARK    2  A    between atoms: N_6  and  C_13 
ROOT
ATOM      1  N   UNL d   1      52.441  33.892  53.623  0.00  0.00    -0.242 N 
ATOM      2  C   UNL d   1      52.898  34.486  54.095  0.00  0.00     0.263 A 
ATOM      3  C   UNL d   1      52.762  33.181  53.716  0.00  0.00     0.263 A 
ATOM      4  C   UNL d   1      53.434  33.203  54.229  0.00  0.00     0.039 A 
ATOM      5  C   UNL d   1      53.557  33.921  54.475  0.00  0.00     0.039 A 
ATOM      6  C   UNL d   1      54.144  34.111  54.960  0.00  0.00     0.049 A 
ATOM      7  C   UNL d   1      53.947  32.618  54.494  0.00  0.00     0.049 A 
ATOM      8  C   UNL d   1      54.652  33.555  55.226  0.00  0.00    -0.026 A 
ATOM      9  C   UNL d   1      54.546  32.793  54.984  0.00  0.00    -0.026 A 
ATOM     10  C   UNL d   1      53.733  33.517  54.522  0.00  0.00     0.018 A 
ATOM     11  O   UNL d   1      52.493  32.489  53.366  0.00  0.00    -0.267 OA
ATOM     12  O   UNL d   1      52.827  35.193  54.191  0.00  0.00    -0.267 OA
ENDROOT
BRANCH   1  13
ATOM     13  C   UNL d   1      51.780  34.012  53.149  0.00  0.00     0.070 A 
ATOM     14  C   UNL d   1      51.021  33.968  53.476  0.00  0.00     0.019 A 
ATOM     15  C   UNL d   1      50.348  34.088  53.003  0.00  0.00     0.018 A 
ATOM     16  C   UNL d   1      50.440  34.256  52.185  0.00  0.00     0.096 A 
ATOM     17  C   UNL d   1      51.201  34.297  51.870  0.00  0.00     0.018 A 
ATOM     18  C   UNL d   1      51.871  34.175  52.351  0.00  0.00     0.019 A 
BRANCH  16  19
ATOM     19  N   UNL d   1      49.785  34.376  51.708  0.00  0.00     0.037 NA
ATOM     20  O   UNL d   1      49.889  34.473  52.513  0.00  0.00    -0.084 OA
ATOM     21  O   UNL d   1      49.015  34.548  51.338  0.00  0.00    -0.084 OA
ENDBRANCH  16  19
ENDBRANCH   1  13
TORSDOF 2
ENDMDL
MODEL 3
REMARK VINA RESULT:     -10.6      1.669      4.003
REMARK  2 active torsions:
REMARK  status: ('A' for Active; 'I' for Inactive)
REMARK    1  A    between atoms: C_12  and  N_1 
REMARK    2  A    between atoms: N_6  and  C_13 
ROOT
ATOM      1  N   UNL d   1      52.892  32.132  53.399  0.00  0.00    -0.242 N 
ATOM      2  C   UNL d   1      53.494  32.780  53.354  0.00  0.00     0.263 A 
ATOM      3  C   UNL d   1      52.179  32.426  53.253  0.00  0.00     0.263 A 
ATOM      4  C   UNL d   1      52.205  33.257  53.101  0.00  0.00     0.039 A 
ATOM      5  C   UNL d   1      52.930  33.512  53.145  0.00  0.00     0.039 A 
ATOM      6  C   UNL d   1      53.125  34.263  53.029  0.00  0.00     0.049 A 
ATOM      7  C   UNL d   1      51.620  33.807  52.923  0.00  0.00     0.049 A 
ATOM      8  C   UNL d   1      52.568  34.810  52.855  0.00  0.00    -0.026 A 
ATOM      9  C   UNL d   1      51.801  34.570  52.803  0.00  0.00    -0.026 A 
ATOM     10  C   UNL d   1      52.524  33.672  53.063  0.00  0.00     0.018 A 
ATOM     11  O   UNL d   1      51.480  31.995  53.245  0.00  0.00    -0.267 OA
ATOM     12  O   UNL d   1      54.205  32.794  53.442  0.00  0.00    -0.267 OA
ENDROOT
BRANCH   1  13
ATOM     13  C   UNL d   1      53.008  31.335  53.563  0.00  0.00     0.070 A 
ATOM     14  C   UNL d   1      52.950  30.773  52.957  0.00  0.00     0.019 A 
ATOM     15  C   UNL d   1      53.066  29.966  53.115  0.00  0.00     0.018 A 
ATOM     16  C   UNL d   1      53.244  29.717  53.897  0.00  0.00     0.096 A 
ATOM     17  C   UNL d   1      53.300  30.284  54.493  0.00  0.00     0.018 A 
ATOM     18  C   UNL d   1      53.183  31.092  54.326  0.00  0.00     0.019 A 
BRANCH  16  19
ATOM     19  N   UNL d   1      53.361  28.924  54.065  0.00  0.00     0.037 NA
ATOM     20  O   UNL d   1      53.301  29.575  54.556  0.00  0.00    -0.084 OA
ATOM     21  O   UNL d   1      53.487  28.129  54.398  0.00  0.00    -0.084 OA
ENDBRANCH  16  19
ENDBRANCH   1  13
TORSDOF 2
ENDMDL
MODEL 4
REMARK VINA RESULT:     -10.4      2.051      4.123
REMARK  2 active torsions:
REMARK  status: ('A' for Active; 'I' for Inactive)
REMARK    1  A    between atoms: C_12  and  N_1 
REMARK    2  A    between atoms: N_6  and  C_13 
ROOT
ATOM      1  N   UNL d   1      54.017  32.052  54.031  0.00  0.00    -0.242 N 
ATOM      2  C   UNL d   1      54.560  32.602  53.598  0.00  0.00     0.263 A 
ATOM      3  C   UNL d   1      53.959  32.278  54.781  0.00  0.00     0.263 A 
ATOM      4  C   UNL d   1      54.425  32.966  54.940  0.00  0.00     0.039 A 
ATOM      5  C   UNL d   1      54.789  33.194  54.302  0.00  0.00     0.039 A 
ATOM      6  C   UNL d   1      55.262  33.819  54.282  0.00  0.00     0.049 A 
ATOM      7  C   UNL d   1      54.546  33.407  55.624  0.00  0.00     0.049 A 
ATOM      8  C   UNL d   1      55.391  34.257  54.937  0.00  0.00    -0.026 A 
ATOM      9  C   UNL d   1      55.022  34.041  55.620  0.00  0.00    -0.026 A 
ATOM     10  C   UNL d   1      54.751  33.316  54.726  0.00  0.00     0.018 A 
ATOM     11  O   UNL d   1      53.506  31.906  55.356  0.00  0.00    -0.267 OA
ATOM     12  O   UNL d   1      54.787  32.630  52.919  0.00  0.00    -0.267 OA
ENDROOT
BRANCH   1  13
ATOM     13  C   UNL d   1      53.615  31.396  53.743  0.00  0.00     0.070 A 
ATOM     14  C   UNL d   1      52.932  31.497  53.283  0.00  0.00     0.019 A 
ATOM     15  C   UNL d   1      52.520  30.839  52.988  0.00  0.00     0.018 A 
ATOM     16  C   UNL d   1      52.797  30.064  53.157  0.00  0.00     0.096 A 
ATOM     17  C   UNL d   1      53.477  29.975  53.615  0.00  0.00     0.018 A 
ATOM     18  C   UNL d   1      53.885  30.641  53.907  0.00  0.00     0.019 A 
BRANCH  16  19
ATOM     19  N   UNL d   1      52.399  29.408  52.871  0.00  0.00     0.037 NA
ATOM     20  O   UNL d   1      52.928  29.490  53.489  0.00  0.00    -0.084 OA
ATOM     21  O   UNL d   1      52.052  28.631  52.685  0.00  0.00    -0.084 OA
ENDBRANCH  16  19
ENDBRANCH   1  13
TORSDOF 2
ENDMDL
