MODEL 1
REMARK VINA RESULT:      44.5      0.000      0.000
REMARK  9 active torsions:
REMARK  status: ('A' for Active; 'I' for Inactive)
REMARK    1  A    between atoms: N_6  and  C_1 
REMARK    2  A    between atoms: N_2  and  C_12 
REMARK    3  A    between atoms: C_3  and  N_6 
REMARK    4  A    between atoms: N_4  and  C_3 
REMARK       I    between atoms: C_7  and  N_4 
REMARK    5  A    between atoms: C_16  and  C_7 
REMARK    6  A    between atoms: C_10  and  C_8 
REMARK    7  A    between atoms: C_13  and  C_10 
REMARK    8  A    between atoms: O_24  and  C_13 
REMARK    9  A    between atoms: C_25  and  O_24 
ROOT
ATOM      1  C   UNL d   1     -54.740-102.230 -41.851  0.00  0.00     0.277 C 
ATOM      2  S   UNL d   1     -54.722-102.866 -42.377  0.00  0.00    -0.023 SA
ENDROOT
BRANCH   1   3
ATOM      3  N   UNL d   1     -54.745-101.458 -42.142  0.00  0.00    -0.347 NA
BRANCH   3   4
ATOM      4  C   UNL d   1     -54.749-100.685 -42.426  0.00  0.00     0.248 A 
ATOM      5  N   UNL d   1     -54.731-100.451 -43.223  0.00  0.00    -0.210 NA
ATOM      6  C   UNL d   1     -54.742 -99.626 -43.246  0.00  0.00     0.096 A 
ATOM      7  C   UNL d   1     -54.768 -99.353 -42.467  0.00  0.00     0.059 A 
ATOM      8  S   UNL d   1     -54.772 -99.998 -41.968  0.00  0.00    -0.033 SA
BRANCH   6   9
ATOM      9  C   UNL d   1     -54.731 -99.165 -43.924  0.00  0.00     0.088 C 
BRANCH   9  10
ATOM     10  C   UNL d   1     -55.293 -99.274 -44.514  0.00  0.00     0.302 C 
ATOM     11  O   UNL d   1     -55.051 -99.306 -45.301  0.00  0.00    -0.259 OA
BRANCH  10  12
ATOM     12  O   UNL d   1     -56.087 -99.352 -44.323  0.00  0.00    -0.271 OA
BRANCH  12  13
ATOM     13  C   UNL d   1     -56.648 -98.865 -44.680  0.00  0.00     0.126 C 
ATOM     14  C   UNL d   1     -57.449 -99.017 -44.580  0.00  0.00     0.029 C 
ENDBRANCH  12  13
ENDBRANCH  10  12
ENDBRANCH   9  10
ENDBRANCH   6   9
ENDBRANCH   3   4
ENDBRANCH   1   3
BRANCH   1  15
ATOM     15  N   UNL d   1     -54.753-102.372 -41.040  0.00  0.00    -0.168 NA
ATOM     16  C   UNL d   1     -55.408-102.149 -40.588  0.00  0.00     0.282 C 
ATOM     17  O   UNL d   1     -56.051-101.785 -40.946  0.00  0.00    -0.265 OA
BRANCH  16  18
ATOM     18  C   UNL d   1     -55.414-102.295 -39.773  0.00  0.00     0.058 A 
ATOM     19  C   UNL d   1     -54.714-102.399 -39.372  0.00  0.00     0.006 A 
ATOM     20  C   UNL d   1     -54.721-102.544 -38.557  0.00  0.00     0.024 A 
ATOM     21  C   UNL d   1     -55.441-102.584 -38.152  0.00  0.00     0.127 A 
ATOM     22  C   UNL d   1     -56.153-102.477 -38.565  0.00  0.00     0.024 A 
ATOM     23  C   UNL d   1     -56.142-102.333 -39.372  0.00  0.00     0.006 A 
BRANCH  21  24
ATOM     24  N   UNL d   1     -55.454-102.728 -37.341  0.00  0.00    -0.114 N 
ATOM     25  O   UNL d   1     -56.174-102.830 -36.948  0.00  0.00    -0.532 OA
ATOM     26  O   UNL d   1     -54.748-102.771 -36.925  0.00  0.00    -0.532 OA
ENDBRANCH  21  24
ENDBRANCH  16  18
ENDBRANCH   1  15
TORSDOF 9
ENDMDL
