MODEL 1
REMARK VINA RESULT:      -5.2      0.000      0.000
REMARK  3 active torsions:
REMARK  status: ('A' for Active; 'I' for Inactive)
REMARK    1  A    between atoms: S_6  and  C_2 
REMARK    2  A    between atoms: C_8  and  S_6 
REMARK    3  A    between atoms: C_9  and  C_8 
ROOT
ATOM      1  S   UNL d   1      57.330   0.422  31.182  0.00  0.00    -0.048 SA
ENDROOT
BRANCH   1   2
ATOM      2  C   UNL d   1      57.864   0.464  30.545  0.00  0.00     0.203 A 
ATOM      3  N   UNL d   1      57.664   0.438  29.746  0.00  0.00    -0.193 NA
ATOM      4  C   UNL d   1      58.363   0.497  29.307  0.00  0.00     0.234 A 
ATOM      5  S   UNL d   1      58.991   0.559  29.835  0.00  0.00     0.056 SA
ATOM      6  N   UNL d   1      58.414   0.493  28.487  0.00  0.00    -0.118 N 
ATOM      7  N   UNL d   1      58.687   0.539  30.603  0.00  0.00    -0.181 NA
ENDBRANCH   1   2
BRANCH   1   8
ATOM      8  C   UNL d   1      57.173  -0.306  31.537  0.00  0.00     0.038 C 
BRANCH   8   9
ATOM      9  C   UNL d   1      56.606  -0.365  32.129  0.00  0.00     0.007 A 
ATOM     10  C   UNL d   1      56.366  -1.117  32.384  0.00  0.00     0.001 A 
ATOM     11  C   UNL d   1      55.794  -1.180  32.981  0.00  0.00     0.000 A 
ATOM     12  C   UNL d   1      55.469  -0.499  33.313  0.00  0.00     0.000 A 
ATOM     13  C   UNL d   1      55.716   0.252  33.049  0.00  0.00     0.000 A 
ATOM     14  C   UNL d   1      56.284   0.310  32.458  0.00  0.00     0.001 A 
ENDBRANCH   8   9
ENDBRANCH   1   8
TORSDOF 3
ENDMDL
MODEL 2
REMARK VINA RESULT:      -3.6      0.934      1.330
REMARK  3 active torsions:
REMARK  status: ('A' for Active; 'I' for Inactive)
REMARK    1  A    between atoms: S_6  and  C_2 
REMARK    2  A    between atoms: C_8  and  S_6 
REMARK    3  A    between atoms: C_9  and  C_8 
ROOT
ATOM      1  S   UNL d   1      57.022   0.471  31.706  0.00  0.00    -0.048 SA
ENDROOT
BRANCH   1   2
ATOM      2  C   UNL d   1      57.569   0.323  31.097  0.00  0.00     0.203 A 
ATOM      3  N   UNL d   1      58.306   0.682  31.013  0.00  0.00    -0.193 NA
ATOM      4  C   UNL d   1      58.664   0.372  30.334  0.00  0.00     0.234 A 
ATOM      5  S   UNL d   1      58.149  -0.176  30.002  0.00  0.00     0.056 SA
ATOM      6  N   UNL d   1      59.406   0.580  30.047  0.00  0.00    -0.118 N 
ATOM      7  N   UNL d   1      57.469  -0.210  30.470  0.00  0.00    -0.181 NA
ENDBRANCH   1   2
BRANCH   1   8
ATOM      8  C   UNL d   1      56.995  -0.030  32.362  0.00  0.00     0.038 C 
BRANCH   8   9
ATOM      9  C   UNL d   1      56.431   0.088  32.949  0.00  0.00     0.007 A 
ATOM     10  C   UNL d   1      56.624   0.561  33.602  0.00  0.00     0.001 A 
ATOM     11  C   UNL d   1      56.058   0.682  34.197  0.00  0.00     0.000 A 
ATOM     12  C   UNL d   1      55.313   0.333  34.133  0.00  0.00     0.000 A 
ATOM     13  C   UNL d   1      55.131  -0.141  33.472  0.00  0.00     0.000 A 
ATOM     14  C   UNL d   1      55.694  -0.258  32.886  0.00  0.00     0.001 A 
ENDBRANCH   8   9
ENDBRANCH   1   8
TORSDOF 3
ENDMDL
MODEL 3
REMARK VINA RESULT:      -3.5      2.543      3.974
REMARK  3 active torsions:
REMARK  status: ('A' for Active; 'I' for Inactive)
REMARK    1  A    between atoms: S_6  and  C_2 
REMARK    2  A    between atoms: C_8  and  S_6 
REMARK    3  A    between atoms: C_9  and  C_8 
ROOT
ATOM      1  S   UNL d   1      56.351   0.562  32.363  0.00  0.00    -0.048 SA
ENDROOT
BRANCH   1   2
ATOM      2  C   UNL d   1      55.916   0.542  33.072  0.00  0.00     0.203 A 
ATOM      3  N   UNL d   1      55.105   0.669  33.144  0.00  0.00    -0.193 NA
ATOM      4  C   UNL d   1      54.906   0.596  33.943  0.00  0.00     0.234 A 
ATOM      5  S   UNL d   1      55.593   0.425  34.362  0.00  0.00     0.056 SA
ATOM      6  N   UNL d   1      54.152   0.682  34.258  0.00  0.00    -0.118 N 
ATOM      7  N   UNL d   1      56.221   0.390  33.827  0.00  0.00    -0.181 NA
ENDBRANCH   1   2
BRANCH   1   8
ATOM      8  C   UNL d   1      56.838  -0.074  32.163  0.00  0.00     0.038 C 
BRANCH   8   9
ATOM      9  C   UNL d   1      57.250  -0.073  31.452  0.00  0.00     0.007 A 
ATOM     10  C   UNL d   1      57.464   0.654  31.113  0.00  0.00     0.001 A 
ATOM     11  C   UNL d   1      57.881   0.660  30.395  0.00  0.00     0.000 A 
ATOM     12  C   UNL d   1      58.077  -0.052  30.028  0.00  0.00     0.000 A 
ATOM     13  C   UNL d   1      57.857  -0.776  30.377  0.00  0.00     0.000 A 
ATOM     14  C   UNL d   1      57.445  -0.777  31.088  0.00  0.00     0.001 A 
ENDBRANCH   8   9
ENDBRANCH   1   8
TORSDOF 3
ENDMDL
MODEL 4
REMARK VINA RESULT:      -2.8      9.887     10.237
REMARK  3 active torsions:
REMARK  status: ('A' for Active; 'I' for Inactive)
REMARK    1  A    between atoms: S_6  and  C_2 
REMARK    2  A    between atoms: C_8  and  S_6 
REMARK    3  A    between atoms: C_9  and  C_8 
ROOT
ATOM      1  S   UNL d   1      59.186  -9.663  33.820  0.00  0.00    -0.048 SA
ENDROOT
BRANCH   1   2
ATOM      2  C   UNL d   1      58.882  -9.718  33.047  0.00  0.00     0.203 A 
ATOM      3  N   UNL d   1      58.084  -9.722  32.842  0.00  0.00    -0.193 NA
ATOM      4  C   UNL d   1      58.033  -9.784  32.019  0.00  0.00     0.234 A 
ATOM      5  S   UNL d   1      58.799  -9.818  31.718  0.00  0.00     0.056 SA
ATOM      6  N   UNL d   1      57.337  -9.808  31.583  0.00  0.00    -0.118 N 
ATOM      7  N   UNL d   1      59.327  -9.777  32.351  0.00  0.00    -0.181 NA
ENDBRANCH   1   2
BRANCH   1   8
ATOM      8  C   UNL d   1      59.692  -9.041  34.017  0.00  0.00     0.038 C 
BRANCH   8   9
ATOM      9  C   UNL d   1      59.985  -8.973  34.782  0.00  0.00     0.007 A 
ATOM     10  C   UNL d   1      60.646  -9.425  35.001  0.00  0.00     0.001 A 
ATOM     11  C   UNL d   1      60.945  -9.360  35.772  0.00  0.00     0.000 A 
ATOM     12  C   UNL d   1      60.586  -8.849  36.311  0.00  0.00     0.000 A 
ATOM     13  C   UNL d   1      59.924  -8.400  36.080  0.00  0.00     0.000 A 
ATOM     14  C   UNL d   1      59.630  -8.467  35.316  0.00  0.00     0.001 A 
ENDBRANCH   8   9
ENDBRANCH   1   8
TORSDOF 3
ENDMDL
MODEL 5
REMARK VINA RESULT:      -2.4      3.242      4.316
REMARK  3 active torsions:
REMARK  status: ('A' for Active; 'I' for Inactive)
REMARK    1  A    between atoms: S_6  and  C_2 
REMARK    2  A    between atoms: C_8  and  S_6 
REMARK    3  A    between atoms: C_9  and  C_8 
ROOT
ATOM      1  S   UNL d   1      58.899  -2.123  29.239  0.00  0.00    -0.048 SA
ENDROOT
BRANCH   1   2
ATOM      2  C   UNL d   1      59.266  -2.826  28.984  0.00  0.00     0.203 A 
ATOM      3  N   UNL d   1      60.066  -3.009  29.066  0.00  0.00    -0.193 NA
ATOM      4  C   UNL d   1      60.189  -3.758  28.738  0.00  0.00     0.234 A 
ATOM      5  S   UNL d   1      59.468  -4.035  28.455  0.00  0.00     0.056 SA
ATOM      6  N   UNL d   1      60.909  -4.153  28.704  0.00  0.00    -0.118 N 
ATOM      7  N   UNL d   1      58.893  -3.461  28.605  0.00  0.00    -0.181 NA
ENDBRANCH   1   2
BRANCH   1   8
ATOM      8  C   UNL d   1      59.145  -1.398  28.930  0.00  0.00     0.038 C 
BRANCH   8   9
ATOM      9  C   UNL d   1      58.747  -0.708  29.128  0.00  0.00     0.007 A 
ATOM     10  C   UNL d   1      58.590  -0.149  28.535  0.00  0.00     0.001 A 
ATOM     11  C   UNL d   1      58.188   0.550  28.731  0.00  0.00     0.000 A 
ATOM     12  C   UNL d   1      57.948   0.682  29.509  0.00  0.00     0.000 A 
ATOM     13  C   UNL d   1      58.111   0.114  30.097  0.00  0.00     0.000 A 
ATOM     14  C   UNL d   1      58.509  -0.576  29.898  0.00  0.00     0.001 A 
ENDBRANCH   8   9
ENDBRANCH   1   8
TORSDOF 3
ENDMDL
