MODEL 1
REMARK VINA RESULT:      67.6      0.000      0.000
REMARK  5 active torsions:
REMARK  status: ('A' for Active; 'I' for Inactive)
REMARK    1  A    between atoms: N_7  and  C_1 
REMARK    2  A    between atoms: C_15  and  N_2 
REMARK    3  A    between atoms: C_5  and  C_10 
REMARK       I    between atoms: C_10  and  N_7 
REMARK    4  A    between atoms: C_13  and  C_11 
REMARK    5  A    between atoms: C_24  and  C_15 
ROOT
ATOM      1  N   UNL d   1     -54.881-101.100 -39.812  0.00  0.00    -0.203 NA
ATOM      2  C   UNL d   1     -54.783-101.381 -40.596  0.00  0.00     0.299 C 
ATOM      3  O   UNL d   1     -54.711-102.165 -40.708  0.00  0.00    -0.263 OA
ENDROOT
BRANCH   1   4
ATOM      4  C   UNL d   1     -54.900-101.647 -39.166  0.00  0.00     0.121 A 
ATOM      5  C   UNL d   1     -54.823-101.464 -38.351  0.00  0.00     0.102 A 
ATOM      6  N   UNL d   1     -54.876-102.169 -37.931  0.00  0.00    -0.227 N 
ATOM      7  C   UNL d   1     -54.712-100.705 -38.031  0.00  0.00     0.022 C 
ATOM      8  N   UNL d   1     -54.987-102.796 -38.478  0.00  0.00    -0.164 NA
ATOM      9  C   UNL d   1     -55.001-102.463 -39.247  0.00  0.00     0.120 A 
ATOM     10  C   UNL d   1     -55.099-102.867 -39.976  0.00  0.00     0.024 C 
BRANCH   6  11
ATOM     11  C   UNL d   1     -54.817-102.157 -37.085  0.00  0.00     0.101 C 
BRANCH  11  12
ATOM     12  C   UNL d   1     -54.851-101.428 -36.679  0.00  0.00     0.019 A 
ATOM     13  C   UNL d   1     -54.828-101.408 -35.850  0.00  0.00     0.002 A 
ATOM     14  C   UNL d   1     -54.861-100.682 -35.438  0.00  0.00     0.000 A 
ATOM     15  C   UNL d   1     -54.920 -99.960 -35.875  0.00  0.00     0.000 A 
ATOM     16  C   UNL d   1     -54.942 -99.979 -36.688  0.00  0.00     0.000 A 
ATOM     17  C   UNL d   1     -54.955 -99.219 -35.492  0.00  0.00     0.000 C 
ATOM     18  C   UNL d   1     -54.908-100.710 -37.104  0.00  0.00     0.002 A 
ENDBRANCH  11  12
ENDBRANCH   6  11
ENDBRANCH   1   4
BRANCH   2  19
ATOM     19  C   UNL d   1     -54.752-100.336 -41.765  0.00  0.00     0.168 A 
ATOM     20  N   UNL d   1     -54.717 -99.542 -41.725  0.00  0.00    -0.121 NA
ATOM     21  O   UNL d   1     -54.713 -99.253 -42.457  0.00  0.00    -0.211 OA
ATOM     22  C   UNL d   1     -54.745 -99.862 -42.971  0.00  0.00     0.127 A 
ATOM     23  C   UNL d   1     -54.769-100.536 -42.545  0.00  0.00     0.053 A 
BRANCH  22  24
ATOM     24  C   UNL d   1     -54.751 -99.776 -43.752  0.00  0.00     0.027 A 
ATOM     25  C   UNL d   1     -54.796-100.419 -44.225  0.00  0.00     0.028 A 
ATOM     26  C   UNL d   1     -54.801-100.332 -45.001  0.00  0.00     0.119 A 
ATOM     27  O   UNL d   1     -54.840-100.858 -45.594  0.00  0.00    -0.300 OA
ATOM     28  C   UNL d   1     -54.763 -99.614 -45.338  0.00  0.00     0.119 A 
ATOM     29  C   UNL d   1     -54.826-100.468 -46.281  0.00  0.00     0.304 A 
ATOM     30  O   UNL d   1     -54.778 -99.695 -46.121  0.00  0.00    -0.300 OA
ATOM     31  C   UNL d   1     -54.718 -98.966 -44.869  0.00  0.00     0.026 A 
ATOM     32  C   UNL d   1     -54.712 -99.046 -44.092  0.00  0.00     0.004 A 
ENDBRANCH  22  24
ENDBRANCH   2  19
TORSDOF 5
ENDMDL
