MODEL 1
REMARK VINA RESULT:     105.0      0.000      0.000
REMARK  3 active torsions:
REMARK  status: ('A' for Active; 'I' for Inactive)
REMARK    1  A    between atoms: S_5  and  C_3 
REMARK    2  A    between atoms: C_12  and  S_5 
REMARK    3  A    between atoms: C_23  and  N_6 
ROOT
ATOM      1  C   UNL d   1      59.712  49.400  51.767  0.00  0.00     0.155 A 
ATOM      2  C   UNL d   1      58.911  49.479  51.632  0.00  0.00     0.092 A 
ATOM      3  C   UNL d   1      58.678  49.456  53.027  0.00  0.00     0.124 A 
ATOM      4  N   UNL d   1      60.232  49.371  51.133  0.00  0.00    -0.210 NA
ATOM      5  N   UNL d   1      60.000  49.348  52.519  0.00  0.00    -0.273 N 
ATOM      6  C   UNL d   1      59.488  49.376  53.164  0.00  0.00     0.181 A 
ATOM      7  C   UNL d   1      58.621  49.531  50.866  0.00  0.00     0.269 A 
ATOM      8  N   UNL d   1      59.140  49.502  50.236  0.00  0.00    -0.258 N 
ATOM      9  C   UNL d   1      58.392  49.508  52.262  0.00  0.00     0.022 A 
ATOM     10  C   UNL d   1      59.949  49.422  50.373  0.00  0.00     0.152 A 
ATOM     11  N   UNL d   1      59.786  49.323  53.940  0.00  0.00    -0.128 N 
ATOM     12  C   UNL d   1      58.859  49.554  49.468  0.00  0.00     0.084 A 
ATOM     13  O   UNL d   1      57.802  49.612  50.728  0.00  0.00    -0.266 OA
ATOM     14  C   UNL d   1      60.469  49.393  49.739  0.00  0.00     0.038 A 
ATOM     15  C   UNL d   1      59.377  49.525  48.842  0.00  0.00     0.019 A 
ATOM     16  C   UNL d   1      60.187  49.444  48.979  0.00  0.00     0.005 A 
ENDROOT
BRANCH   3  17
ATOM     17  S   UNL d   1      58.156  49.485  53.679  0.00  0.00     0.213 S 
ATOM     18  O   UNL d   1      57.494  49.488  53.171  0.00  0.00    -0.217 OA
ATOM     19  O   UNL d   1      58.814  49.481  54.189  0.00  0.00    -0.217 OA
BRANCH  17  20
ATOM     20  C   UNL d   1      57.648  49.513  54.342  0.00  0.00     0.088 A 
ATOM     21  C   UNL d   1      57.959  49.637  55.098  0.00  0.00     0.014 A 
ATOM     22  C   UNL d   1      57.452  49.664  55.752  0.00  0.00     0.030 A 
ATOM     23  C   UNL d   1      56.634  49.568  55.657  0.00  0.00     0.140 A 
ATOM     24  C   UNL d   1      56.325  49.442  54.887  0.00  0.00     0.030 A 
ATOM     25  F   UNL d   1      56.123  49.595  56.315  0.00  0.00    -0.204 F 
ATOM     26  C   UNL d   1      56.831  49.415  54.233  0.00  0.00     0.014 A 
ENDBRANCH  17  20
ENDBRANCH   3  17
BRANCH   5  27
ATOM     27  C   UNL d   1      60.823  49.267  52.658  0.00  0.00     0.083 C 
ATOM     28  C   UNL d   1      61.196  48.534  52.484  0.00  0.00     0.021 C 
ENDBRANCH   5  27
TORSDOF 3
ENDMDL
