MODEL 1
REMARK VINA RESULT:      85.1      0.000      0.000
REMARK  10 active torsions:
REMARK  status: ('A' for Active; 'I' for Inactive)
REMARK    1  A    between atoms: C_5  and  C_1 
REMARK    2  A    between atoms: C_8  and  N_2 
REMARK    3  A    between atoms: C_9  and  C_5 
REMARK    4  A    between atoms: C_7  and  C_8 
REMARK       I    between atoms: N_13  and  C_7 
REMARK       I    between atoms: N_19  and  C_9 
REMARK    5  A    between atoms: N_11  and  C_21 
REMARK    6  A    between atoms: C_24  and  N_13 
REMARK    7  A    between atoms: C_25  and  N_13 
REMARK    8  A    between atoms: C_26  and  N_19 
REMARK    9  A    between atoms: C_21  and  C_23 
REMARK   10  A    between atoms: C_23  and  C_26 
ROOT
ATOM      1  C   UNL d   1     -56.573-100.022 -44.247  0.00  0.00     0.063 A 
ATOM      2  N   UNL d   1     -55.589-100.751 -43.704  0.00  0.00    -0.300 N 
ATOM      3  C   UNL d   1     -56.158-100.178 -43.537  0.00  0.00     0.084 A 
ATOM      4  C   UNL d   1     -56.254-100.499 -44.840  0.00  0.00     0.021 A 
ATOM      5  C   UNL d   1     -55.641-100.952 -44.498  0.00  0.00     0.064 A 
ATOM      6  C   UNL d   1     -56.432-100.585 -45.632  0.00  0.00     0.002 A 
ATOM      7  C   UNL d   1     -55.220-101.484 -44.968  0.00  0.00     0.018 A 
ATOM      8  C   UNL d   1     -56.010-101.119 -46.105  0.00  0.00     0.000 A 
ATOM      9  C   UNL d   1     -55.404-101.566 -45.767  0.00  0.00     0.002 A 
ENDROOT
BRANCH   1  10
ATOM     10  C   UNL d   1     -57.190 -99.484 -44.333  0.00  0.00     0.254 C 
ATOM     11  O   UNL d   1     -57.355 -99.170 -45.080  0.00  0.00    -0.281 OA
BRANCH  10  12
ATOM     12  C   UNL d   1     -57.643 -99.258 -43.682  0.00  0.00     0.318 C 
ATOM     13  O   UNL d   1     -57.353 -99.390 -42.923  0.00  0.00    -0.262 OA
ATOM     14  N   UNL d   1     -58.378 -98.904 -43.798  0.00  0.00    -0.204 NA
BRANCH  14  15
ATOM     15  C   UNL d   1     -58.657 -98.777 -44.558  0.00  0.00     0.104 C 
BRANCH  15  16
ATOM     16  C   UNL d   1     -59.196 -99.308 -44.882  0.00  0.00     0.040 C 
BRANCH  16  17
ATOM     17  C   UNL d   1     -59.726 -99.049 -45.467  0.00  0.00     0.083 C 
BRANCH  17  18
ATOM     18  N   UNL d   1     -59.462 -98.940 -46.249  0.00  0.00    -0.285 N 
ATOM     19  C   UNL d   1     -59.948 -98.902 -46.915  0.00  0.00     0.183 A 
ATOM     20  N   UNL d   1     -59.447 -98.788 -47.573  0.00  0.00    -0.222 NA
ATOM     21  C   UNL d   1     -58.657 -98.756 -47.305  0.00  0.00     0.120 A 
ATOM     22  C   UNL d   1     -58.677 -98.852 -46.481  0.00  0.00     0.102 A 
ENDBRANCH  17  18
ENDBRANCH  16  17
ENDBRANCH  15  16
ENDBRANCH  14  15
ENDBRANCH  10  12
ENDBRANCH   1  10
BRANCH   2  23
ATOM     23  C   UNL d   1     -55.055-101.068 -43.160  0.00  0.00     0.142 C 
BRANCH  23  24
ATOM     24  C   UNL d   1     -55.228-101.770 -42.773  0.00  0.00     0.282 C 
ATOM     25  N   UNL d   1     -55.065-101.851 -41.969  0.00  0.00    -0.271 N 
ATOM     26  O   UNL d   1     -55.569-102.397 -43.191  0.00  0.00    -0.265 OA
BRANCH  25  27
ATOM     27  C   UNL d   1     -54.726-101.227 -41.551  0.00  0.00     0.083 C 
ATOM     28  C   UNL d   1     -55.199-100.728 -41.103  0.00  0.00     0.021 C 
ENDBRANCH  25  27
BRANCH  25  29
ATOM     29  C   UNL d   1     -55.241-102.561 -41.582  0.00  0.00     0.083 C 
ATOM     30  C   UNL d   1     -54.988-102.680 -40.806  0.00  0.00     0.021 C 
ENDBRANCH  25  29
ENDBRANCH  23  24
ENDBRANCH   2  23
TORSDOF 10
ENDMDL
MODEL 2
REMARK VINA RESULT:      86.2      2.527      4.236
REMARK  10 active torsions:
REMARK  status: ('A' for Active; 'I' for Inactive)
REMARK    1  A    between atoms: C_5  and  C_1 
REMARK    2  A    between atoms: C_8  and  N_2 
REMARK    3  A    between atoms: C_9  and  C_5 
REMARK    4  A    between atoms: C_7  and  C_8 
REMARK       I    between atoms: N_13  and  C_7 
REMARK       I    between atoms: N_19  and  C_9 
REMARK    5  A    between atoms: N_11  and  C_21 
REMARK    6  A    between atoms: C_24  and  N_13 
REMARK    7  A    between atoms: C_25  and  N_13 
REMARK    8  A    between atoms: C_26  and  N_19 
REMARK    9  A    between atoms: C_21  and  C_23 
REMARK   10  A    between atoms: C_23  and  C_26 
ROOT
ATOM      1  C   UNL d   1     -57.946 -99.207 -43.518  0.00  0.00     0.063 A 
ATOM      2  N   UNL d   1     -56.679 -99.185 -43.955  0.00  0.00    -0.300 N 
ATOM      3  C   UNL d   1     -57.146 -99.290 -43.284  0.00  0.00     0.084 A 
ATOM      4  C   UNL d   1     -57.960 -99.053 -44.329  0.00  0.00     0.021 A 
ATOM      5  C   UNL d   1     -57.169 -99.040 -44.598  0.00  0.00     0.064 A 
ATOM      6  C   UNL d   1     -58.572 -98.924 -44.853  0.00  0.00     0.002 A 
ATOM      7  C   UNL d   1     -57.016 -98.896 -45.396  0.00  0.00     0.018 A 
ATOM      8  C   UNL d   1     -58.419 -98.779 -45.655  0.00  0.00     0.000 A 
ATOM      9  C   UNL d   1     -57.637 -98.767 -45.921  0.00  0.00     0.002 A 
ENDROOT
BRANCH   1  10
ATOM     10  C   UNL d   1     -58.598 -99.270 -43.022  0.00  0.00     0.254 C 
ATOM     11  O   UNL d   1     -59.256 -98.785 -43.151  0.00  0.00    -0.281 OA
BRANCH  10  12
ATOM     12  C   UNL d   1     -58.602 -99.810 -42.400  0.00  0.00     0.318 C 
ATOM     13  O   UNL d   1     -58.159-100.501 -42.461  0.00  0.00    -0.262 OA
ATOM     14  N   UNL d   1     -59.048 -99.653 -41.724  0.00  0.00    -0.204 NA
BRANCH  14  15
ATOM     15  C   UNL d   1     -59.486 -98.963 -41.672  0.00  0.00     0.104 C 
BRANCH  15  16
ATOM     16  C   UNL d   1     -59.945 -98.827 -41.003  0.00  0.00     0.040 C 
BRANCH  16  17
ATOM     17  C   UNL d   1     -59.911 -99.361 -40.367  0.00  0.00     0.083 C 
BRANCH  17  18
ATOM     18  N   UNL d   1     -59.553 -99.135 -39.651  0.00  0.00    -0.285 N 
ATOM     19  C   UNL d   1     -58.744 -99.019 -39.537  0.00  0.00     0.183 A 
ATOM     20  N   UNL d   1     -58.641 -98.799 -38.739  0.00  0.00    -0.222 NA
ATOM     21  C   UNL d   1     -59.389 -98.780 -38.368  0.00  0.00     0.120 A 
ATOM     22  C   UNL d   1     -59.949 -98.991 -38.944  0.00  0.00     0.102 A 
ENDBRANCH  17  18
ENDBRANCH  16  17
ENDBRANCH  15  16
ENDBRANCH  14  15
ENDBRANCH  10  12
ENDBRANCH   1  10
BRANCH   2  23
ATOM     23  C   UNL d   1     -55.855 -99.221 -43.976  0.00  0.00     0.142 C 
BRANCH  23  24
ATOM     24  C   UNL d   1     -55.472 -99.944 -43.931  0.00  0.00     0.282 C 
ATOM     25  N   UNL d   1     -55.190-100.309 -44.615  0.00  0.00    -0.271 N 
ATOM     26  O   UNL d   1     -55.367-100.309 -43.195  0.00  0.00    -0.265 OA
BRANCH  25  27
ATOM     27  C   UNL d   1     -55.294 -99.947 -45.347  0.00  0.00     0.083 C 
ATOM     28  C   UNL d   1     -54.860-100.202 -45.996  0.00  0.00     0.021 C 
ENDBRANCH  25  27
BRANCH  25  29
ATOM     29  C   UNL d   1     -54.804-101.039 -44.564  0.00  0.00     0.083 C 
ATOM     30  C   UNL d   1     -55.012-101.573 -43.970  0.00  0.00     0.021 C 
ENDBRANCH  25  29
ENDBRANCH  23  24
ENDBRANCH   2  23
TORSDOF 10
ENDMDL
