MODEL 1
REMARK VINA RESULT:      -3.4      0.000      0.000
REMARK  3 active torsions:
REMARK  status: ('A' for Active; 'I' for Inactive)
REMARK    1  A    between atoms: C_13  and  C_5 
REMARK       I    between atoms: C_7  and  N_12 
REMARK    2  A    between atoms: C_10  and  C_7 
REMARK    3  A    between atoms: N_12  and  C_15 
ROOT
ATOM      1  C   UNL d   1      32.644  17.600 -23.584  0.00  0.00     0.021 A 
ATOM      2  C   UNL d   1      31.713  16.616 -24.061  0.00  0.00     0.085 A 
ATOM      3  C   UNL d   1      31.876  17.387 -23.819  0.00  0.00     0.021 A 
ATOM      4  C   UNL d   1      33.241  17.035 -23.594  0.00  0.00     0.002 A 
ATOM      5  C   UNL d   1      33.089  16.267 -23.833  0.00  0.00     0.002 A 
ATOM      6  C   UNL d   1      32.321  16.055 -24.068  0.00  0.00     0.019 A 
ENDROOT
BRANCH   1   7
ATOM      7  C   UNL d   1      32.793  18.375 -23.344  0.00  0.00     0.102 A 
ATOM      8  N   UNL d   1      32.859  18.533 -22.530  0.00  0.00    -0.162 NA
ATOM      9  N   UNL d   1      33.010  19.315 -22.280  0.00  0.00    -0.189 N 
ATOM     10  C   UNL d   1      33.092  19.928 -22.837  0.00  0.00     0.187 A 
ATOM     11  C   UNL d   1      33.102  19.634 -21.535  0.00  0.00     0.224 A 
ATOM     12  N   UNL d   1      33.232  20.603 -22.419  0.00  0.00    -0.127 NA
ATOM     13  C   UNL d   1      33.021  19.746 -23.650  0.00  0.00     0.042 A 
ATOM     14  N   UNL d   1      33.240  20.431 -21.616  0.00  0.00    -0.124 NA
ATOM     15  C   UNL d   1      32.872  18.968 -23.897  0.00  0.00     0.024 A 
ENDBRANCH   1   7
BRANCH   2  16
ATOM     16  N   UNL d   1      30.956  16.406 -24.293  0.00  0.00    -0.206 NA
ATOM     17  C   UNL d   1      30.465  16.007 -23.770  0.00  0.00     0.302 C 
ATOM     18  O   UNL d   1      30.727  15.815 -23.010  0.00  0.00    -0.263 OA
BRANCH  17  19
ATOM     19  C   UNL d   1      29.704  15.796 -24.003  0.00  0.00     0.158 A 
ATOM     20  O   UNL d   1      29.449  15.666 -24.772  0.00  0.00    -0.300 OA
ATOM     21  C   UNL d   1      28.651  15.468 -24.751  0.00  0.00     0.123 A 
ATOM     22  C   UNL d   1      28.406  15.474 -23.956  0.00  0.00     0.029 A 
ATOM     23  C   UNL d   1      29.055  15.677 -23.497  0.00  0.00     0.032 A 
ENDBRANCH  17  19
ENDBRANCH   2  16
TORSDOF 3
ENDMDL
MODEL 2
REMARK VINA RESULT:      -3.0      1.675      4.710
REMARK  3 active torsions:
REMARK  status: ('A' for Active; 'I' for Inactive)
REMARK    1  A    between atoms: C_13  and  C_5 
REMARK       I    between atoms: C_7  and  N_12 
REMARK    2  A    between atoms: C_10  and  C_7 
REMARK    3  A    between atoms: N_12  and  C_15 
ROOT
ATOM      1  C   UNL d   1      31.655  17.091 -24.147  0.00  0.00     0.021 A 
ATOM      2  C   UNL d   1      32.549  18.129 -23.714  0.00  0.00     0.085 A 
ATOM      3  C   UNL d   1      31.782  17.848 -23.827  0.00  0.00     0.021 A 
ATOM      4  C   UNL d   1      32.302  16.626 -24.351  0.00  0.00     0.002 A 
ATOM      5  C   UNL d   1      33.066  16.896 -24.242  0.00  0.00     0.002 A 
ATOM      6  C   UNL d   1      33.192  17.652 -23.922  0.00  0.00     0.019 A 
ENDROOT
BRANCH   1   7
ATOM      7  C   UNL d   1      30.883  16.822 -24.255  0.00  0.00     0.102 A 
ATOM      8  N   UNL d   1      30.557  16.313 -23.683  0.00  0.00    -0.162 NA
ATOM      9  N   UNL d   1      29.776  16.036 -23.786  0.00  0.00    -0.189 N 
ATOM     10  C   UNL d   1      29.331  16.266 -24.450  0.00  0.00     0.187 A 
ATOM     11  C   UNL d   1      29.315  15.542 -23.329  0.00  0.00     0.224 A 
ATOM     12  N   UNL d   1      28.612  15.907 -24.382  0.00  0.00    -0.127 NA
ATOM     13  C   UNL d   1      29.679  16.778 -25.012  0.00  0.00     0.042 A 
ATOM     14  N   UNL d   1      28.594  15.459 -23.694  0.00  0.00    -0.124 NA
ATOM     15  C   UNL d   1      30.455  17.053 -24.909  0.00  0.00     0.024 A 
ENDBRANCH   1   7
BRANCH   2  16
ATOM     16  N   UNL d   1      32.673  18.875 -23.397  0.00  0.00    -0.206 NA
ATOM     17  C   UNL d   1      32.874  18.954 -22.606  0.00  0.00     0.302 C 
ATOM     18  O   UNL d   1      32.953  18.288 -22.123  0.00  0.00    -0.263 OA
BRANCH  17  19
ATOM     19  C   UNL d   1      32.999  19.703 -22.288  0.00  0.00     0.158 A 
ATOM     20  O   UNL d   1      33.153  19.879 -21.501  0.00  0.00    -0.300 OA
ATOM     21  C   UNL d   1      33.241  20.694 -21.430  0.00  0.00     0.123 A 
ATOM     22  C   UNL d   1      33.141  21.030 -22.184  0.00  0.00     0.029 A 
ATOM     23  C   UNL d   1      32.993  20.419 -22.712  0.00  0.00     0.032 A 
ENDBRANCH  17  19
ENDBRANCH   2  16
TORSDOF 3
ENDMDL
MODEL 3
REMARK VINA RESULT:      -2.9      1.856      4.894
REMARK  3 active torsions:
REMARK  status: ('A' for Active; 'I' for Inactive)
REMARK    1  A    between atoms: C_13  and  C_5 
REMARK       I    between atoms: C_7  and  N_12 
REMARK    2  A    between atoms: C_10  and  C_7 
REMARK    3  A    between atoms: N_12  and  C_15 
ROOT
ATOM      1  C   UNL d   1      32.178  17.828 -23.956  0.00  0.00     0.021 A 
ATOM      2  C   UNL d   1      32.863  18.839 -23.200  0.00  0.00     0.085 A 
ATOM      3  C   UNL d   1      32.332  18.209 -23.234  0.00  0.00     0.021 A 
ATOM      4  C   UNL d   1      32.559  18.086 -24.638  0.00  0.00     0.002 A 
ATOM      5  C   UNL d   1      33.087  18.710 -24.614  0.00  0.00     0.002 A 
ATOM      6  C   UNL d   1      33.241  19.091 -23.892  0.00  0.00     0.019 A 
ENDROOT
BRANCH   1   7
ATOM      7  C   UNL d   1      31.646  17.199 -23.976  0.00  0.00     0.102 A 
ATOM      8  N   UNL d   1      30.853  17.356 -24.174  0.00  0.00    -0.162 NA
ATOM      9  N   UNL d   1      30.308  16.724 -24.196  0.00  0.00    -0.189 N 
ATOM     10  C   UNL d   1      30.554  15.948 -24.022  0.00  0.00     0.187 A 
ATOM     11  C   UNL d   1      29.511  16.706 -24.368  0.00  0.00     0.224 A 
ATOM     12  N   UNL d   1      29.903  15.478 -24.092  0.00  0.00    -0.127 NA
ATOM     13  C   UNL d   1      31.356  15.814 -23.826  0.00  0.00     0.042 A 
ATOM     14  N   UNL d   1      29.256  15.937 -24.305  0.00  0.00    -0.124 NA
ATOM     15  C   UNL d   1      31.896  16.443 -23.804  0.00  0.00     0.024 A 
ENDBRANCH   1   7
BRANCH   2  16
ATOM     16  N   UNL d   1      33.015  19.215 -22.487  0.00  0.00    -0.206 NA
ATOM     17  C   UNL d   1      32.830  20.009 -22.397  0.00  0.00     0.302 C 
ATOM     18  O   UNL d   1      32.492  20.436 -23.019  0.00  0.00    -0.263 OA
BRANCH  17  19
ATOM     19  C   UNL d   1      32.983  20.386 -21.682  0.00  0.00     0.158 A 
ATOM     20  O   UNL d   1      33.037  20.028 -20.945  0.00  0.00    -0.300 OA
ATOM     21  C   UNL d   1      33.195  20.610 -20.385  0.00  0.00     0.123 A 
ATOM     22  C   UNL d   1      33.241  21.341 -20.780  0.00  0.00     0.029 A 
ATOM     23  C   UNL d   1      33.110  21.201 -21.578  0.00  0.00     0.032 A 
ENDBRANCH  17  19
ENDBRANCH   2  16
TORSDOF 3
ENDMDL
MODEL 4
REMARK VINA RESULT:      -2.3      2.156      5.077
REMARK  3 active torsions:
REMARK  status: ('A' for Active; 'I' for Inactive)
REMARK    1  A    between atoms: C_13  and  C_5 
REMARK       I    between atoms: C_7  and  N_12 
REMARK    2  A    between atoms: C_10  and  C_7 
REMARK    3  A    between atoms: N_12  and  C_15 
ROOT
ATOM      1  C   UNL d   1      32.872  18.859 -23.364  0.00  0.00     0.021 A 
ATOM      2  C   UNL d   1      33.149  20.097 -22.690  0.00  0.00     0.085 A 
ATOM      3  C   UNL d   1      32.965  19.293 -22.661  0.00  0.00     0.021 A 
ATOM      4  C   UNL d   1      32.965  19.237 -24.088  0.00  0.00     0.002 A 
ATOM      5  C   UNL d   1      33.148  20.034 -24.126  0.00  0.00     0.002 A 
ATOM      6  C   UNL d   1      33.241  20.468 -23.423  0.00  0.00     0.019 A 
ENDROOT
BRANCH   1   7
ATOM      7  C   UNL d   1      32.688  18.056 -23.321  0.00  0.00     0.102 A 
ATOM      8  N   UNL d   1      31.988  17.790 -23.682  0.00  0.00    -0.162 NA
ATOM      9  N   UNL d   1      31.795  16.978 -23.643  0.00  0.00    -0.189 N 
ATOM     10  C   UNL d   1      32.296  16.444 -23.249  0.00  0.00     0.187 A 
ATOM     11  C   UNL d   1      31.159  16.561 -23.938  0.00  0.00     0.224 A 
ATOM     12  N   UNL d   1      31.954  15.717 -23.313  0.00  0.00    -0.127 NA
ATOM     13  C   UNL d   1      32.995  16.734 -22.893  0.00  0.00     0.042 A 
ATOM     14  N   UNL d   1      31.253  15.780 -23.736  0.00  0.00    -0.124 NA
ATOM     15  C   UNL d   1      33.185  17.541 -22.932  0.00  0.00     0.024 A 
ENDBRANCH   1   7
BRANCH   2  16
ATOM     16  N   UNL d   1      33.241  20.525 -21.997  0.00  0.00    -0.206 NA
ATOM     17  C   UNL d   1      32.580  20.822 -21.610  0.00  0.00     0.302 C 
ATOM     18  O   UNL d   1      31.822  20.693 -21.913  0.00  0.00    -0.263 OA
BRANCH  17  19
ATOM     19  C   UNL d   1      32.672  21.252 -20.915  0.00  0.00     0.158 A 
ATOM     20  O   UNL d   1      33.114  21.030 -20.259  0.00  0.00    -0.300 OA
ATOM     21  C   UNL d   1      33.053  21.621 -19.692  0.00  0.00     0.123 A 
ATOM     22  C   UNL d   1      32.565  22.222 -19.999  0.00  0.00     0.029 A 
ATOM     23  C   UNL d   1      32.332  21.993 -20.751  0.00  0.00     0.032 A 
ENDBRANCH  17  19
ENDBRANCH   2  16
TORSDOF 3
ENDMDL
MODEL 5
REMARK VINA RESULT:      -1.6      3.403      5.815
REMARK  3 active torsions:
REMARK  status: ('A' for Active; 'I' for Inactive)
REMARK    1  A    between atoms: C_13  and  C_5 
REMARK       I    between atoms: C_7  and  N_12 
REMARK    2  A    between atoms: C_10  and  C_7 
REMARK    3  A    between atoms: N_12  and  C_15 
ROOT
ATOM      1  C   UNL d   1      33.223  20.842 -23.254  0.00  0.00     0.021 A 
ATOM      2  C   UNL d   1      33.236  21.904 -22.288  0.00  0.00     0.085 A 
ATOM      3  C   UNL d   1      33.228  21.098 -22.464  0.00  0.00     0.021 A 
ATOM      4  C   UNL d   1      33.226  21.398 -23.860  0.00  0.00     0.002 A 
ATOM      5  C   UNL d   1      33.235  22.199 -23.695  0.00  0.00     0.002 A 
ATOM      6  C   UNL d   1      33.239  22.455 -22.905  0.00  0.00     0.019 A 
ENDROOT
BRANCH   1   7
ATOM      7  C   UNL d   1      33.214  20.033 -23.417  0.00  0.00     0.102 A 
ATOM      8  N   UNL d   1      33.216  19.500 -22.778  0.00  0.00    -0.162 NA
ATOM      9  N   UNL d   1      33.207  18.680 -22.934  0.00  0.00    -0.189 N 
ATOM     10  C   UNL d   1      33.198  18.400 -23.718  0.00  0.00     0.187 A 
ATOM     11  C   UNL d   1      33.207  18.036 -22.434  0.00  0.00     0.224 A 
ATOM     12  N   UNL d   1      33.191  17.595 -23.675  0.00  0.00    -0.127 NA
ATOM     13  C   UNL d   1      33.196  18.954 -24.344  0.00  0.00     0.042 A 
ATOM     14  N   UNL d   1      33.197  17.362 -22.887  0.00  0.00    -0.124 NA
ATOM     15  C   UNL d   1      33.205  19.768 -24.187  0.00  0.00     0.024 A 
ENDBRANCH   1   7
BRANCH   2  16
ATOM     16  N   UNL d   1      33.241  22.157 -21.508  0.00  0.00    -0.206 NA
ATOM     17  C   UNL d   1      32.557  22.464 -21.175  0.00  0.00     0.302 C 
ATOM     18  O   UNL d   1      31.861  22.521 -21.618  0.00  0.00    -0.263 OA
BRANCH  17  19
ATOM     19  C   UNL d   1      32.562  22.718 -20.392  0.00  0.00     0.158 A 
ATOM     20  O   UNL d   1      32.580  22.240 -19.725  0.00  0.00    -0.300 OA
ATOM     21  C   UNL d   1      32.579  22.723 -19.059  0.00  0.00     0.123 A 
ATOM     22  C   UNL d   1      32.559  23.514 -19.316  0.00  0.00     0.029 A 
ATOM     23  C   UNL d   1      32.549  23.510 -20.137  0.00  0.00     0.032 A 
ENDBRANCH  17  19
ENDBRANCH   2  16
TORSDOF 3
ENDMDL
MODEL 6
REMARK VINA RESULT:      -0.7      5.399      6.755
REMARK  3 active torsions:
REMARK  status: ('A' for Active; 'I' for Inactive)
REMARK    1  A    between atoms: C_13  and  C_5 
REMARK       I    between atoms: C_7  and  N_12 
REMARK    2  A    between atoms: C_10  and  C_7 
REMARK    3  A    between atoms: N_12  and  C_15 
ROOT
ATOM      1  C   UNL d   1      33.052  22.088 -19.626  0.00  0.00     0.021 A 
ATOM      2  C   UNL d   1      33.191  22.088 -21.055  0.00  0.00     0.085 A 
ATOM      3  C   UNL d   1      33.103  22.500 -20.346  0.00  0.00     0.021 A 
ATOM      4  C   UNL d   1      33.092  21.267 -19.626  0.00  0.00     0.002 A 
ATOM      5  C   UNL d   1      33.179  20.850 -20.324  0.00  0.00     0.002 A 
ATOM      6  C   UNL d   1      33.229  21.262 -21.044  0.00  0.00     0.019 A 
ENDROOT
BRANCH   1   7
ATOM      7  C   UNL d   1      32.964  22.512 -18.924  0.00  0.00     0.102 A 
ATOM      8  N   UNL d   1      33.170  22.142 -18.208  0.00  0.00    -0.162 NA
ATOM      9  N   UNL d   1      33.084  22.565 -17.493  0.00  0.00    -0.189 N 
ATOM     10  C   UNL d   1      32.795  23.346 -17.497  0.00  0.00     0.187 A 
ATOM     11  C   UNL d   1      33.237  22.354 -16.720  0.00  0.00     0.224 A 
ATOM     12  N   UNL d   1      32.780  23.590 -16.729  0.00  0.00    -0.127 NA
ATOM     13  C   UNL d   1      32.594  23.697 -18.228  0.00  0.00     0.042 A 
ATOM     14  N   UNL d   1      33.050  22.985 -16.244  0.00  0.00    -0.124 NA
ATOM     15  C   UNL d   1      32.681  23.276 -18.938  0.00  0.00     0.024 A 
ENDBRANCH   1   7
BRANCH   2  16
ATOM     16  N   UNL d   1      33.241  22.494 -21.766  0.00  0.00    -0.206 NA
ATOM     17  C   UNL d   1      32.676  22.368 -22.348  0.00  0.00     0.302 C 
ATOM     18  O   UNL d   1      32.057  21.834 -22.225  0.00  0.00    -0.263 OA
BRANCH  17  19
ATOM     19  C   UNL d   1      32.726  22.775 -23.061  0.00  0.00     0.158 A 
ATOM     20  O   UNL d   1      33.177  22.561 -23.713  0.00  0.00    -0.300 OA
ATOM     21  C   UNL d   1      33.062  23.123 -24.303  0.00  0.00     0.123 A 
ATOM     22  C   UNL d   1      32.532  23.695 -24.013  0.00  0.00     0.029 A 
ATOM     23  C   UNL d   1      32.326  23.479 -23.249  0.00  0.00     0.032 A 
ENDBRANCH  17  19
ENDBRANCH   2  16
TORSDOF 3
ENDMDL
