MODEL 1
REMARK VINA RESULT:      -8.7      0.000      0.000
REMARK  7 active torsions:
REMARK  status: ('A' for Active; 'I' for Inactive)
REMARK    1  A    between atoms: C_4  and  C_1 
REMARK    2  A    between atoms: C_6  and  C_3 
REMARK       I    between atoms: N_13  and  C_6 
REMARK    3  A    between atoms: O_18  and  C_8 
REMARK    4  A    between atoms: O_19  and  C_10 
REMARK    5  A    between atoms: C_20  and  N_13 
REMARK    6  A    between atoms: C_15  and  C_22 
REMARK    7  A    between atoms: C_22  and  C_20 
ROOT
ATOM      1  C   UNL d   1      50.536  34.238  52.957  0.00  0.00     0.302 C 
ATOM      2  O   UNL d   1      50.097  33.570  52.761  0.00  0.00    -0.263 OA
ATOM      3  N   UNL d   1      50.156  34.958  53.053  0.00  0.00    -0.205 NA
ENDROOT
BRANCH   1   4
ATOM      4  C   UNL d   1      51.352  34.181  53.055  0.00  0.00     0.158 A 
ATOM      5  O   UNL d   1      51.744  33.796  53.668  0.00  0.00    -0.302 OA
ATOM      6  C   UNL d   1      52.554  33.881  53.543  0.00  0.00     0.101 A 
ATOM      7  C   UNL d   1      52.668  34.321  52.849  0.00  0.00     0.027 A 
ATOM      8  C   UNL d   1      51.918  34.507  52.546  0.00  0.00     0.032 A 
BRANCH   6   9
ATOM      9  C   UNL d   1      53.146  33.581  54.023  0.00  0.00     0.033 A 
ATOM     10  C   UNL d   1      53.473  32.838  53.859  0.00  0.00     0.060 A 
ATOM     11 CL   UNL d   1      53.204  32.398  53.214  0.00  0.00    -0.082 Cl
ATOM     12  C   UNL d   1      54.069  32.540  54.344  0.00  0.00     0.011 A 
ATOM     13  C   UNL d   1      54.341  32.975  54.990  0.00  0.00     0.001 A 
ATOM     14  C   UNL d   1      54.019  33.711  55.153  0.00  0.00     0.000 A 
ATOM     15  C   UNL d   1      53.421  34.020  54.673  0.00  0.00     0.003 A 
ENDBRANCH   6   9
ENDBRANCH   1   4
BRANCH   3  16
ATOM     16  C   UNL d   1      49.337  35.017  52.955  0.00  0.00     0.102 C 
BRANCH  16  17
ATOM     17  C   UNL d   1      48.934  35.664  53.239  0.00  0.00     0.021 C 
BRANCH  17  18
ATOM     18  C   UNL d   1      48.158  35.803  52.994  0.00  0.00     0.004 A 
ATOM     19  C   UNL d   1      47.570  35.970  53.553  0.00  0.00     0.026 A 
ATOM     20  C   UNL d   1      46.802  36.108  53.312  0.00  0.00     0.116 A 
ATOM     21  C   UNL d   1      46.614  36.080  52.504  0.00  0.00     0.116 A 
ATOM     22  C   UNL d   1      47.200  35.914  51.949  0.00  0.00     0.026 A 
ATOM     23  C   UNL d   1      47.971  35.775  52.194  0.00  0.00     0.002 A 
BRANCH  20  24
ATOM     24  O   UNL d   1      46.221  36.274  53.873  0.00  0.00    -0.326 OA
ATOM     25  C   UNL d   1      46.426  36.301  54.680  0.00  0.00     0.181 C 
ENDBRANCH  20  24
BRANCH  21  26
ATOM     26  O   UNL d   1      45.827  36.222  52.264  0.00  0.00    -0.326 OA
ATOM     27  C   UNL d   1      45.626  36.093  51.476  0.00  0.00     0.181 C 
ENDBRANCH  21  26
ENDBRANCH  17  18
ENDBRANCH  16  17
ENDBRANCH   3  16
TORSDOF 7
ENDMDL
MODEL 2
REMARK VINA RESULT:      -7.5      1.910      6.384
REMARK  7 active torsions:
REMARK  status: ('A' for Active; 'I' for Inactive)
REMARK    1  A    between atoms: C_4  and  C_1 
REMARK    2  A    between atoms: C_6  and  C_3 
REMARK       I    between atoms: N_13  and  C_6 
REMARK    3  A    between atoms: O_18  and  C_8 
REMARK    4  A    between atoms: O_19  and  C_10 
REMARK    5  A    between atoms: C_20  and  N_13 
REMARK    6  A    between atoms: C_15  and  C_22 
REMARK    7  A    between atoms: C_22  and  C_20 
ROOT
ATOM      1  C   UNL d   1      50.442  34.416  52.168  0.00  0.00     0.302 C 
ATOM      2  O   UNL d   1      50.961  34.444  51.530  0.00  0.00    -0.263 OA
ATOM      3  N   UNL d   1      50.702  34.125  52.889  0.00  0.00    -0.205 NA
ENDROOT
BRANCH   1   4
ATOM      4  C   UNL d   1      49.665  34.679  52.081  0.00  0.00     0.158 A 
ATOM      5  O   UNL d   1      49.264  35.188  52.587  0.00  0.00    -0.302 OA
ATOM      6  C   UNL d   1      48.505  35.299  52.285  0.00  0.00     0.101 A 
ATOM      7  C   UNL d   1      48.434  34.856  51.586  0.00  0.00     0.027 A 
ATOM      8  C   UNL d   1      49.158  34.471  51.461  0.00  0.00     0.032 A 
BRANCH   6   9
ATOM      9  C   UNL d   1      47.920  35.766  52.617  0.00  0.00     0.033 A 
ATOM     10  C   UNL d   1      47.244  35.956  52.177  0.00  0.00     0.060 A 
ATOM     11 CL   UNL d   1      47.157  35.675  51.405  0.00  0.00    -0.082 Cl
ATOM     12  C   UNL d   1      46.658  36.426  52.515  0.00  0.00     0.011 A 
ATOM     13  C   UNL d   1      46.740  36.709  53.286  0.00  0.00     0.001 A 
ATOM     14  C   UNL d   1      47.408  36.523  53.722  0.00  0.00     0.000 A 
ATOM     15  C   UNL d   1      48.003  36.051  53.394  0.00  0.00     0.003 A 
ENDBRANCH   6   9
ENDBRANCH   1   4
BRANCH   3  16
ATOM     16  C   UNL d   1      51.480  33.861  52.979  0.00  0.00     0.102 C 
BRANCH  16  17
ATOM     17  C   UNL d   1      51.674  33.349  53.581  0.00  0.00     0.021 C 
BRANCH  17  18
ATOM     18  C   UNL d   1      52.460  33.282  53.824  0.00  0.00     0.004 A 
ATOM     19  C   UNL d   1      52.884  32.587  53.669  0.00  0.00     0.026 A 
ATOM     20  C   UNL d   1      53.662  32.519  53.909  0.00  0.00     0.116 A 
ATOM     21  C   UNL d   1      54.025  33.150  54.309  0.00  0.00     0.116 A 
ATOM     22  C   UNL d   1      53.602  33.840  54.462  0.00  0.00     0.026 A 
ATOM     23  C   UNL d   1      52.820  33.906  54.219  0.00  0.00     0.002 A 
BRANCH  20  24
ATOM     24  O   UNL d   1      54.079  31.825  53.753  0.00  0.00    -0.326 OA
ATOM     25  C   UNL d   1      53.662  31.116  53.625  0.00  0.00     0.181 C 
ENDBRANCH  20  24
BRANCH  21  26
ATOM     26  O   UNL d   1      54.820  33.074  54.552  0.00  0.00    -0.326 OA
ATOM     27  C   UNL d   1      55.124  33.624  55.084  0.00  0.00     0.181 C 
ENDBRANCH  21  26
ENDBRANCH  17  18
ENDBRANCH  16  17
ENDBRANCH   3  16
TORSDOF 7
ENDMDL
MODEL 3
REMARK VINA RESULT:      -7.4      2.132      6.559
REMARK  7 active torsions:
REMARK  status: ('A' for Active; 'I' for Inactive)
REMARK    1  A    between atoms: C_4  and  C_1 
REMARK    2  A    between atoms: C_6  and  C_3 
REMARK       I    between atoms: N_13  and  C_6 
REMARK    3  A    between atoms: O_18  and  C_8 
REMARK    4  A    between atoms: O_19  and  C_10 
REMARK    5  A    between atoms: C_20  and  N_13 
REMARK    6  A    between atoms: C_15  and  C_22 
REMARK    7  A    between atoms: C_22  and  C_20 
ROOT
ATOM      1  C   UNL d   1      48.775  34.880  51.744  0.00  0.00     0.302 C 
ATOM      2  O   UNL d   1      49.036  34.491  51.067  0.00  0.00    -0.263 OA
ATOM      3  N   UNL d   1      49.224  34.846  52.429  0.00  0.00    -0.205 NA
ENDROOT
BRANCH   1   4
ATOM      4  C   UNL d   1      48.066  35.302  51.731  0.00  0.00     0.158 A 
ATOM      5  O   UNL d   1      47.317  34.990  51.596  0.00  0.00    -0.302 OA
ATOM      6  C   UNL d   1      46.775  35.610  51.634  0.00  0.00     0.101 A 
ATOM      7  C   UNL d   1      47.189  36.311  51.793  0.00  0.00     0.027 A 
ATOM      8  C   UNL d   1      47.994  36.117  51.853  0.00  0.00     0.032 A 
BRANCH   6   9
ATOM      9  C   UNL d   1      45.965  35.545  51.531  0.00  0.00     0.033 A 
ATOM     10  C   UNL d   1      45.469  35.494  52.193  0.00  0.00     0.060 A 
ATOM     11 CL   UNL d   1      45.788  35.509  52.955  0.00  0.00    -0.082 Cl
ATOM     12  C   UNL d   1      44.654  35.428  52.086  0.00  0.00     0.011 A 
ATOM     13  C   UNL d   1      44.331  35.413  51.327  0.00  0.00     0.001 A 
ATOM     14  C   UNL d   1      44.820  35.464  50.672  0.00  0.00     0.000 A 
ATOM     15  C   UNL d   1      45.639  35.530  50.767  0.00  0.00     0.003 A 
ENDBRANCH   6   9
ENDBRANCH   1   4
BRANCH   3  16
ATOM     16  C   UNL d   1      49.935  34.424  52.444  0.00  0.00     0.102 C 
BRANCH  16  17
ATOM     17  C   UNL d   1      50.312  34.277  53.149  0.00  0.00     0.021 C 
BRANCH  17  18
ATOM     18  C   UNL d   1      51.075  33.963  53.149  0.00  0.00     0.004 A 
ATOM     19  C   UNL d   1      51.725  34.450  53.313  0.00  0.00     0.026 A 
ATOM     20  C   UNL d   1      52.480  34.141  53.313  0.00  0.00     0.116 A 
ATOM     21  C   UNL d   1      52.594  33.335  53.147  0.00  0.00     0.116 A 
ATOM     22  C   UNL d   1      51.947  32.851  52.984  0.00  0.00     0.026 A 
ATOM     23  C   UNL d   1      51.188  33.165  52.985  0.00  0.00     0.002 A 
BRANCH  20  24
ATOM     24  O   UNL d   1      53.123  34.631  53.476  0.00  0.00    -0.326 OA
ATOM     25  C   UNL d   1      53.025  35.277  53.992  0.00  0.00     0.181 C 
ENDBRANCH  20  24
BRANCH  21  26
ATOM     26  O   UNL d   1      53.369  33.024  53.149  0.00  0.00    -0.326 OA
ATOM     27  C   UNL d   1      53.466  32.208  53.186  0.00  0.00     0.181 C 
ENDBRANCH  21  26
ENDBRANCH  17  18
ENDBRANCH  16  17
ENDBRANCH   3  16
TORSDOF 7
ENDMDL
