MODEL 1
REMARK VINA RESULT:      57.0      0.000      0.000
REMARK  4 active torsions:
REMARK  status: ('A' for Active; 'I' for Inactive)
REMARK    1  A    between atoms: C_2  and  C_3 
REMARK    2  A    between atoms: N_4  and  C_2 
REMARK    3  A    between atoms: C_12  and  N_4 
REMARK    4  A    between atoms: N_8  and  C_7 
ROOT
ATOM      1  C   UNL d   1      60.286  49.195  51.029  0.00  0.00     0.153 C 
ATOM      2  S   UNL d   1      60.283  49.350  51.839  0.00  0.00    -0.056 SA
ENDROOT
BRANCH   1   3
ATOM      3  C   UNL d   1      60.698  48.542  50.741  0.00  0.00     0.109 A 
ATOM      4  N   UNL d   1      60.560  47.792  51.059  0.00  0.00    -0.243 NA
ATOM      5  C   UNL d   1      60.971  47.140  50.771  0.00  0.00     0.081 A 
ATOM      6  C   UNL d   1      61.522  47.235  50.164  0.00  0.00     0.018 A 
ATOM      7  C   UNL d   1      60.834  46.385  51.089  0.00  0.00     0.019 A 
ATOM      8  C   UNL d   1      61.664  47.981  49.842  0.00  0.00     0.003 A 
ATOM      9  C   UNL d   1      61.935  46.575  49.875  0.00  0.00     0.002 A 
ATOM     10  C   UNL d   1      61.252  48.638  50.130  0.00  0.00     0.021 A 
ATOM     11  C   UNL d   1      61.796  45.829  50.193  0.00  0.00     0.000 A 
ATOM     12  C   UNL d   1      61.245  45.734  50.800  0.00  0.00     0.002 A 
ENDBRANCH   1   3
BRANCH   1  13
ATOM     13  N   UNL d   1      59.880  49.690  50.509  0.00  0.00    -0.233 NA
BRANCH  13  14
ATOM     14  C   UNL d   1      59.059  49.673  50.485  0.00  0.00     0.083 A 
ATOM     15  C   UNL d   1      58.630  49.671  51.193  0.00  0.00     0.021 A 
ATOM     16  C   UNL d   1      57.808  49.654  51.167  0.00  0.00     0.019 A 
ATOM     17  C   UNL d   1      57.414  49.639  50.432  0.00  0.00     0.064 A 
ATOM     18  C   UNL d   1      57.847  49.642  49.732  0.00  0.00     0.019 A 
ATOM     19  C   UNL d   1      58.670  49.659  49.758  0.00  0.00     0.021 A 
BRANCH  17  20
ATOM     20  N   UNL d   1      56.581  49.623  50.412  0.00  0.00    -0.301 N 
ATOM     21  C   UNL d   1      56.158  49.705  51.106  0.00  0.00     0.100 C 
ATOM     22  C   UNL d   1      56.188  49.524  49.700  0.00  0.00     0.100 C 
ENDBRANCH  17  20
ENDBRANCH  13  14
ENDBRANCH   1  13
TORSDOF 4
ENDMDL
MODEL 2
REMARK VINA RESULT:      58.8      0.958      4.534
REMARK  4 active torsions:
REMARK  status: ('A' for Active; 'I' for Inactive)
REMARK    1  A    between atoms: C_2  and  C_3 
REMARK    2  A    between atoms: N_4  and  C_2 
REMARK    3  A    between atoms: C_12  and  N_4 
REMARK    4  A    between atoms: N_8  and  C_7 
ROOT
ATOM      1  C   UNL d   1      60.328  49.273  50.565  0.00  0.00     0.153 C 
ATOM      2  S   UNL d   1      60.692  49.707  49.965  0.00  0.00    -0.056 SA
ENDROOT
BRANCH   1   3
ATOM      3  C   UNL d   1      59.525  49.376  50.713  0.00  0.00     0.109 A 
ATOM      4  N   UNL d   1      58.987  49.395  50.086  0.00  0.00    -0.243 NA
ATOM      5  C   UNL d   1      58.184  49.498  50.234  0.00  0.00     0.081 A 
ATOM      6  C   UNL d   1      57.915  49.582  51.009  0.00  0.00     0.018 A 
ATOM      7  C   UNL d   1      57.642  49.517  49.605  0.00  0.00     0.019 A 
ATOM      8  C   UNL d   1      58.447  49.565  51.640  0.00  0.00     0.003 A 
ATOM      9  C   UNL d   1      57.104  49.686  51.156  0.00  0.00     0.002 A 
ATOM     10  C   UNL d   1      59.254  49.462  51.493  0.00  0.00     0.021 A 
ATOM     11  C   UNL d   1      56.570  49.704  50.529  0.00  0.00     0.000 A 
ATOM     12  C   UNL d   1      56.839  49.619  49.754  0.00  0.00     0.002 A 
ENDBRANCH   1   3
BRANCH   1  13
ATOM     13  N   UNL d   1      60.766  48.738  51.015  0.00  0.00    -0.233 NA
BRANCH  13  14
ATOM     14  C   UNL d   1      61.083  48.069  50.661  0.00  0.00     0.083 A 
ATOM     15  C   UNL d   1      60.827  47.319  50.901  0.00  0.00     0.021 A 
ATOM     16  C   UNL d   1      61.146  46.650  50.544  0.00  0.00     0.019 A 
ATOM     17  C   UNL d   1      61.723  46.730  49.947  0.00  0.00     0.064 A 
ATOM     18  C   UNL d   1      61.973  47.478  49.714  0.00  0.00     0.019 A 
ATOM     19  C   UNL d   1      61.654  48.148  50.070  0.00  0.00     0.021 A 
BRANCH  17  20
ATOM     20  N   UNL d   1      62.043  46.048  49.590  0.00  0.00    -0.301 N 
ATOM     21  C   UNL d   1      62.853  45.939  49.580  0.00  0.00     0.100 C 
ATOM     22  C   UNL d   1      61.548  45.490  49.250  0.00  0.00     0.100 C 
ENDBRANCH  17  20
ENDBRANCH  13  14
ENDBRANCH   1  13
TORSDOF 4
ENDMDL
