MODEL 1
REMARK VINA RESULT:     149.9      0.000      0.000
REMARK  7 active torsions:
REMARK  status: ('A' for Active; 'I' for Inactive)
REMARK    1  A    between atoms: C_2  and  S_1 
REMARK    2  A    between atoms: N_3  and  S_1 
REMARK    3  A    between atoms: C_5  and  C_7 
REMARK       I    between atoms: N_9  and  C_5 
REMARK    4  A    between atoms: C_8  and  N_6 
REMARK    5  A    between atoms: C_21  and  N_9 
REMARK    6  A    between atoms: O_28  and  C_23 
REMARK    7  A    between atoms: C_31  and  O_28 
ROOT
ATOM      1  C   UNL d   1      61.367  42.497  52.201  0.00  0.00     0.132 A 
ATOM      2  C   UNL d   1      61.092  43.255  52.055  0.00  0.00     0.020 A 
ATOM      3  C   UNL d   1      61.474  43.726  51.496  0.00  0.00     0.059 A 
ATOM      4  C   UNL d   1      62.026  42.203  51.789  0.00  0.00     0.152 A 
ATOM      5  C   UNL d   1      62.134  43.432  51.084  0.00  0.00     0.007 A 
ATOM      6  C   UNL d   1      62.408  42.668  51.233  0.00  0.00     0.030 A 
ATOM      7  F   UNL d   1      62.301  41.440  51.937  0.00  0.00    -0.203 F 
ENDROOT
BRANCH   1   8
ATOM      8  S   UNL d   1      60.980  42.028  52.763  0.00  0.00     0.274 S 
ATOM      9  O   UNL d   1      60.992  42.653  53.301  0.00  0.00    -0.200 OA
ATOM     10  O   UNL d   1      60.968  41.403  52.225  0.00  0.00    -0.200 OA
BRANCH   8  11
ATOM     11  N   UNL d   1      60.594  41.557  53.319  0.00  0.00    -0.226 N 
ATOM     12  C   UNL d   1      60.301  40.822  53.100  0.00  0.00     0.111 A 
ATOM     13  C   UNL d   1      59.915  40.354  53.661  0.00  0.00     0.101 A 
ATOM     14  N   UNL d   1      59.826  40.624  54.435  0.00  0.00    -0.286 N 
ATOM     15  C   UNL d   1      60.122  41.357  54.640  0.00  0.00     0.101 A 
ATOM     16  C   UNL d   1      60.504  41.827  54.094  0.00  0.00     0.111 A 
BRANCH  14  17
ATOM     17  C   UNL d   1      59.441  40.153  54.988  0.00  0.00     0.148 A 
ATOM     18  N   UNL d   1      59.681  40.157  55.773  0.00  0.00    -0.227 NA
ATOM     19  C   UNL d   1      59.293  39.684  56.327  0.00  0.00     0.101 A 
ATOM     20  C   UNL d   1      58.663  39.206  56.085  0.00  0.00     0.021 A 
ATOM     21  C   UNL d   1      58.422  39.202  55.294  0.00  0.00     0.005 A 
ATOM     22  C   UNL d   1      58.812  39.675  54.750  0.00  0.00     0.037 A 
ENDBRANCH  14  17
ENDBRANCH   8  11
ENDBRANCH   1   8
BRANCH   3  23
ATOM     23  C   UNL d   1      61.209  44.492  51.338  0.00  0.00     0.279 C 
ATOM     24  N   UNL d   1      61.738  45.046  51.023  0.00  0.00    -0.208 NA
ATOM     25  O   UNL d   1      60.437  44.706  51.488  0.00  0.00    -0.265 OA
BRANCH  24  26
ATOM     26  C   UNL d   1      61.479  45.814  50.863  0.00  0.00     0.085 A 
ATOM     27  C   UNL d   1      61.044  46.231  51.422  0.00  0.00     0.021 A 
ATOM     28  C   UNL d   1      60.788  46.997  51.260  0.00  0.00     0.026 A 
ATOM     29  C   UNL d   1      60.965  47.361  50.527  0.00  0.00     0.100 A 
ATOM     30  C   UNL d   1      61.406  46.932  49.967  0.00  0.00     0.026 A 
ATOM     31  C   UNL d   1      61.663  46.169  50.126  0.00  0.00     0.021 A 
BRANCH  29  32
ATOM     32  O   UNL d   1      60.709  48.120  50.370  0.00  0.00    -0.305 OA
BRANCH  32  33
ATOM     33  C   UNL d   1      60.924  48.743  50.866  0.00  0.00     0.123 C 
ATOM     34  C   UNL d   1      60.619  49.501  50.735  0.00  0.00     0.029 C 
ENDBRANCH  32  33
ENDBRANCH  29  32
ENDBRANCH  24  26
ENDBRANCH   3  23
TORSDOF 7
ENDMDL
MODEL 2
REMARK VINA RESULT:     152.4      1.351      6.869
REMARK  7 active torsions:
REMARK  status: ('A' for Active; 'I' for Inactive)
REMARK    1  A    between atoms: C_2  and  S_1 
REMARK    2  A    between atoms: N_3  and  S_1 
REMARK    3  A    between atoms: C_5  and  C_7 
REMARK       I    between atoms: N_9  and  C_5 
REMARK    4  A    between atoms: C_8  and  N_6 
REMARK    5  A    between atoms: C_21  and  N_9 
REMARK    6  A    between atoms: O_28  and  C_23 
REMARK    7  A    between atoms: C_31  and  O_28 
ROOT
ATOM      1  C   UNL d   1      61.468  44.047  51.290  0.00  0.00     0.132 A 
ATOM      2  C   UNL d   1      61.173  43.677  51.958  0.00  0.00     0.020 A 
ATOM      3  C   UNL d   1      61.292  42.867  52.061  0.00  0.00     0.059 A 
ATOM      4  C   UNL d   1      61.885  43.612  50.718  0.00  0.00     0.152 A 
ATOM      5  C   UNL d   1      61.709  42.431  51.489  0.00  0.00     0.007 A 
ATOM      6  C   UNL d   1      62.005  42.807  50.816  0.00  0.00     0.030 A 
ATOM      7  F   UNL d   1      62.181  43.987  50.046  0.00  0.00    -0.203 F 
ENDROOT
BRANCH   1   8
ATOM      8  S   UNL d   1      61.345  44.860  51.192  0.00  0.00     0.274 S 
ATOM      9  O   UNL d   1      60.995  44.903  51.938  0.00  0.00    -0.200 OA
ATOM     10  O   UNL d   1      61.695  44.818  50.447  0.00  0.00    -0.200 OA
BRANCH   8  11
ATOM     11  N   UNL d   1      61.226  45.670  51.090  0.00  0.00    -0.226 N 
ATOM     12  C   UNL d   1      61.611  46.067  50.483  0.00  0.00     0.111 A 
ATOM     13  C   UNL d   1      61.488  46.878  50.384  0.00  0.00     0.101 A 
ATOM     14  N   UNL d   1      60.981  47.285  50.893  0.00  0.00    -0.286 N 
ATOM     15  C   UNL d   1      60.604  46.878  51.492  0.00  0.00     0.101 A 
ATOM     16  C   UNL d   1      60.719  46.077  51.598  0.00  0.00     0.111 A 
BRANCH  14  17
ATOM     17  C   UNL d   1      60.863  48.092  50.789  0.00  0.00     0.148 A 
ATOM     18  N   UNL d   1      60.901  48.422  50.038  0.00  0.00    -0.227 NA
ATOM     19  C   UNL d   1      60.782  49.232  49.936  0.00  0.00     0.101 A 
ATOM     20  C   UNL d   1      60.625  49.707  50.594  0.00  0.00     0.021 A 
ATOM     21  C   UNL d   1      60.587  49.374  51.350  0.00  0.00     0.005 A 
ATOM     22  C   UNL d   1      60.706  48.569  51.444  0.00  0.00     0.037 A 
ENDBRANCH  14  17
ENDBRANCH   8  11
ENDBRANCH   1   8
BRANCH   3  23
ATOM     23  C   UNL d   1      61.001  42.479  52.729  0.00  0.00     0.279 C 
ATOM     24  N   UNL d   1      60.726  41.701  52.657  0.00  0.00    -0.208 NA
ATOM     25  O   UNL d   1      60.981  42.852  53.453  0.00  0.00    -0.265 OA
BRANCH  24  26
ATOM     26  C   UNL d   1      60.433  41.307  53.321  0.00  0.00     0.085 A 
ATOM     27  C   UNL d   1      60.459  41.664  54.062  0.00  0.00     0.021 A 
ATOM     28  C   UNL d   1      60.166  41.270  54.723  0.00  0.00     0.026 A 
ATOM     29  C   UNL d   1      59.840  40.501  54.651  0.00  0.00     0.100 A 
ATOM     30  C   UNL d   1      59.817  40.147  53.899  0.00  0.00     0.026 A 
ATOM     31  C   UNL d   1      60.108  40.538  53.239  0.00  0.00     0.021 A 
BRANCH  29  32
ATOM     32  O   UNL d   1      59.551  40.113  55.309  0.00  0.00    -0.305 OA
BRANCH  32  33
ATOM     33  C   UNL d   1      58.841  39.694  55.268  0.00  0.00     0.123 C 
ATOM     34  C   UNL d   1      58.557  39.296  55.936  0.00  0.00     0.029 C 
ENDBRANCH  32  33
ENDBRANCH  29  32
ENDBRANCH  24  26
ENDBRANCH   3  23
TORSDOF 7
ENDMDL
