MODEL 1
REMARK VINA RESULT:      74.3      0.000      0.000
REMARK  3 active torsions:
REMARK  status: ('A' for Active; 'I' for Inactive)
REMARK    1  A    between atoms: N_4  and  C_1 
REMARK    2  A    between atoms: C_15  and  C_5 
REMARK    3  A    between atoms: C_9  and  N_8 
ROOT
ATOM      1  C   UNL d   1      44.810 -17.407  39.526  0.00  0.00     0.169 A 
ATOM      2  N   UNL d   1      44.004 -17.459  39.363  0.00  0.00    -0.130 NA
ATOM      3  N   UNL d   1      43.707 -17.026  38.714  0.00  0.00    -0.147 NA
ATOM      4  C   UNL d   1      44.198 -16.567  38.256  0.00  0.00     0.103 A 
ATOM      5  C   UNL d   1      45.298 -16.950  39.069  0.00  0.00     0.038 A 
ATOM      6  C   UNL d   1      44.989 -16.526  38.428  0.00  0.00     0.022 A 
ATOM      7  C   UNL d   1      46.124 -16.901  39.242  0.00  0.00     0.003 A 
ATOM      8  C   UNL d   1      45.522 -16.050  37.960  0.00  0.00     0.002 A 
ATOM      9  C   UNL d   1      46.645 -16.424  38.768  0.00  0.00     0.000 A 
ATOM     10  C   UNL d   1      46.321 -16.006  38.130  0.00  0.00     0.000 A 
ENDROOT
BRANCH   1  11
ATOM     11  N   UNL d   1      45.113 -17.824  40.156  0.00  0.00    -0.285 N 
ATOM     12  C   UNL d   1      45.688 -18.409  40.051  0.00  0.00     0.101 A 
ATOM     13  C   UNL d   1      45.995 -18.831  40.689  0.00  0.00     0.101 A 
ATOM     14  N   UNL d   1      45.735 -18.678  41.447  0.00  0.00    -0.286 N 
ATOM     15  C   UNL d   1      45.170 -18.105  41.566  0.00  0.00     0.101 A 
ATOM     16  C   UNL d   1      44.853 -17.670  40.908  0.00  0.00     0.101 A 
BRANCH  14  17
ATOM     17  C   UNL d   1      46.032 -19.091  42.094  0.00  0.00     0.148 A 
ATOM     18  N   UNL d   1      46.103 -19.916  42.096  0.00  0.00    -0.227 NA
ATOM     19  C   UNL d   1      46.401 -20.330  42.743  0.00  0.00     0.101 A 
ATOM     20  C   UNL d   1      46.637 -19.917  43.412  0.00  0.00     0.021 A 
ATOM     21  C   UNL d   1      46.568 -19.105  43.413  0.00  0.00     0.005 A 
ATOM     22  C   UNL d   1      46.270 -18.693  42.765  0.00  0.00     0.037 A 
ENDBRANCH  14  17
ENDBRANCH   1  11
BRANCH   4  23
ATOM     23  C   UNL d   1      43.889 -16.143  37.614  0.00  0.00     0.019 A 
ATOM     24  C   UNL d   1      43.088 -15.949  37.609  0.00  0.00     0.002 A 
ATOM     25  C   UNL d   1      42.771 -15.523  36.967  0.00  0.00     0.000 A 
ATOM     26  C   UNL d   1      43.244 -15.289  36.334  0.00  0.00     0.000 A 
ATOM     27  C   UNL d   1      44.051 -15.483  36.336  0.00  0.00     0.000 A 
ATOM     28  C   UNL d   1      44.379 -15.915  36.983  0.00  0.00     0.002 A 
ENDBRANCH   4  23
TORSDOF 3
ENDMDL
MODEL 2
REMARK VINA RESULT:      75.0      1.072      1.760
REMARK  3 active torsions:
REMARK  status: ('A' for Active; 'I' for Inactive)
REMARK    1  A    between atoms: N_4  and  C_1 
REMARK    2  A    between atoms: C_15  and  C_5 
REMARK    3  A    between atoms: C_9  and  N_8 
ROOT
ATOM      1  C   UNL d   1      45.943 -17.095  39.576  0.00  0.00     0.169 A 
ATOM      2  N   UNL d   1      46.647 -16.760  39.307  0.00  0.00    -0.130 NA
ATOM      3  N   UNL d   1      46.612 -16.247  38.651  0.00  0.00    -0.147 NA
ATOM      4  C   UNL d   1      45.904 -16.081  38.285  0.00  0.00     0.103 A 
ATOM      5  C   UNL d   1      45.239 -16.929  39.211  0.00  0.00     0.038 A 
ATOM      6  C   UNL d   1      45.220 -16.417  38.559  0.00  0.00     0.022 A 
ATOM      7  C   UNL d   1      44.520 -17.276  39.490  0.00  0.00     0.003 A 
ATOM      8  C   UNL d   1      44.466 -16.257  38.190  0.00  0.00     0.002 A 
ATOM      9  C   UNL d   1      43.776 -17.108  39.114  0.00  0.00     0.000 A 
ATOM     10  C   UNL d   1      43.773 -16.594  38.463  0.00  0.00     0.000 A 
ENDROOT
BRANCH   1  11
ATOM     11  N   UNL d   1      45.963 -17.597  40.216  0.00  0.00    -0.285 N 
ATOM     12  C   UNL d   1      46.625 -18.066  40.377  0.00  0.00     0.101 A 
ATOM     13  C   UNL d   1      46.644 -18.574  41.025  0.00  0.00     0.101 A 
ATOM     14  N   UNL d   1      46.002 -18.627  41.527  0.00  0.00    -0.286 N 
ATOM     15  C   UNL d   1      45.344 -18.172  41.380  0.00  0.00     0.101 A 
ATOM     16  C   UNL d   1      45.324 -17.648  40.712  0.00  0.00     0.101 A 
BRANCH  14  17
ATOM     17  C   UNL d   1      46.007 -19.131  42.178  0.00  0.00     0.148 A 
ATOM     18  N   UNL d   1      45.545 -19.818  42.207  0.00  0.00    -0.227 NA
ATOM     19  C   UNL d   1      45.550 -20.322  42.859  0.00  0.00     0.101 A 
ATOM     20  C   UNL d   1      46.025 -20.144  43.503  0.00  0.00     0.021 A 
ATOM     21  C   UNL d   1      46.480 -19.469  43.478  0.00  0.00     0.005 A 
ATOM     22  C   UNL d   1      46.475 -18.965  42.825  0.00  0.00     0.037 A 
ENDBRANCH  14  17
ENDBRANCH   1  11
BRANCH   4  23
ATOM     23  C   UNL d   1      45.885 -15.569  37.633  0.00  0.00     0.019 A 
ATOM     24  C   UNL d   1      46.449 -14.971  37.575  0.00  0.00     0.002 A 
ATOM     25  C   UNL d   1      46.434 -14.453  36.922  0.00  0.00     0.000 A 
ATOM     26  C   UNL d   1      45.865 -14.527  36.330  0.00  0.00     0.000 A 
ATOM     27  C   UNL d   1      45.296 -15.129  36.386  0.00  0.00     0.000 A 
ATOM     28  C   UNL d   1      45.304 -15.657  37.044  0.00  0.00     0.002 A 
ENDBRANCH   4  23
TORSDOF 3
ENDMDL
MODEL 3
REMARK VINA RESULT:      77.3      3.849      5.762
REMARK  3 active torsions:
REMARK  status: ('A' for Active; 'I' for Inactive)
REMARK    1  A    between atoms: N_4  and  C_1 
REMARK    2  A    between atoms: C_15  and  C_5 
REMARK    3  A    between atoms: C_9  and  N_8 
ROOT
ATOM      1  C   UNL d   1      42.997 -15.623  36.674  0.00  0.00     0.169 A 
ATOM      2  N   UNL d   1      43.041 -14.834  36.443  0.00  0.00    -0.130 NA
ATOM      3  N   UNL d   1      43.779 -14.450  36.495  0.00  0.00    -0.147 NA
ATOM      4  C   UNL d   1      44.439 -14.843  36.766  0.00  0.00     0.103 A 
ATOM      5  C   UNL d   1      43.653 -16.014  36.944  0.00  0.00     0.038 A 
ATOM      6  C   UNL d   1      44.381 -15.620  36.990  0.00  0.00     0.022 A 
ATOM      7  C   UNL d   1      43.602 -16.824  37.180  0.00  0.00     0.003 A 
ATOM      8  C   UNL d   1      45.060 -16.051  37.278  0.00  0.00     0.002 A 
ATOM      9  C   UNL d   1      44.285 -17.243  37.465  0.00  0.00     0.000 A 
ATOM     10  C   UNL d   1      45.006 -16.836  37.505  0.00  0.00     0.000 A 
ENDROOT
BRANCH   1  11
ATOM     11  N   UNL d   1      42.282 -16.010  36.628  0.00  0.00    -0.285 N 
ATOM     12  C   UNL d   1      41.574 -15.635  36.833  0.00  0.00     0.101 A 
ATOM     13  C   UNL d   1      40.850 -16.027  36.787  0.00  0.00     0.101 A 
ATOM     14  N   UNL d   1      40.817 -16.803  36.535  0.00  0.00    -0.286 N 
ATOM     15  C   UNL d   1      41.506 -17.184  36.331  0.00  0.00     0.101 A 
ATOM     16  C   UNL d   1      42.252 -16.780  36.378  0.00  0.00     0.101 A 
BRANCH  14  17
ATOM     17  C   UNL d   1      40.102 -17.207  36.484  0.00  0.00     0.148 A 
ATOM     18  N   UNL d   1      40.059 -18.033  36.530  0.00  0.00    -0.227 NA
ATOM     19  C   UNL d   1      39.343 -18.438  36.479  0.00  0.00     0.101 A 
ATOM     20  C   UNL d   1      38.647 -18.016  36.379  0.00  0.00     0.021 A 
ATOM     21  C   UNL d   1      38.686 -17.203  36.333  0.00  0.00     0.005 A 
ATOM     22  C   UNL d   1      39.403 -16.799  36.385  0.00  0.00     0.037 A 
ENDBRANCH  14  17
ENDBRANCH   1  11
BRANCH   4  23
ATOM     23  C   UNL d   1      45.166 -14.449  36.812  0.00  0.00     0.019 A 
ATOM     24  C   UNL d   1      45.828 -14.786  36.454  0.00  0.00     0.002 A 
ATOM     25  C   UNL d   1      46.563 -14.394  36.498  0.00  0.00     0.000 A 
ATOM     26  C   UNL d   1      46.642 -13.675  36.892  0.00  0.00     0.000 A 
ATOM     27  C   UNL d   1      45.977 -13.334  37.253  0.00  0.00     0.000 A 
ATOM     28  C   UNL d   1      45.229 -13.724  37.214  0.00  0.00     0.002 A 
ENDBRANCH   4  23
TORSDOF 3
ENDMDL
