MODEL 1
REMARK VINA RESULT:      -8.4      0.000      0.000
REMARK  1 active torsions:
REMARK  status: ('A' for Active; 'I' for Inactive)
REMARK    1  A    between atoms: C_5  and  C_8 
ROOT
ATOM      1  C   UNL d   1     -47.809  13.400  23.098  0.00  0.00     0.084 A 
ATOM      2  C   UNL d   1     -47.045  13.676  22.964  0.00  0.00     0.057 A 
ATOM      3  N   UNL d   1     -47.930  12.625  23.342  0.00  0.00    -0.245 NA
ATOM      4  C   UNL d   1     -46.397  13.184  23.072  0.00  0.00     0.199 A 
ATOM      5  C   UNL d   1     -46.516  12.404  23.317  0.00  0.00     0.061 A 
ATOM      6  C   UNL d   1     -47.280  12.129  23.451  0.00  0.00     0.085 A 
ATOM      7  C   UNL d   1     -48.337  14.677  22.742  0.00  0.00     0.073 A 
ATOM      8  C   UNL d   1     -48.457  13.902  22.987  0.00  0.00     0.023 A 
ATOM      9  C   UNL d   1     -46.926  14.454  22.718  0.00  0.00     0.005 A 
ATOM     10  O   UNL d   1     -45.635  13.467  22.936  0.00  0.00    -0.286 OA
ATOM     11  C   UNL d   1     -47.568  14.954  22.608  0.00  0.00     0.004 A 
ATOM     12  C   UNL d   1     -47.398  11.347  23.698  0.00  0.00     0.021 C 
ENDROOT
BRANCH   7  13
ATOM     13  C   UNL d   1     -48.982  15.183  22.630  0.00  0.00     0.419 C 
ATOM     14  F   UNL d   1     -49.565  15.643  22.530  0.00  0.00    -0.166 F 
ATOM     15  F   UNL d   1     -49.507  15.249  21.951  0.00  0.00    -0.166 F 
ATOM     16  F   UNL d   1     -49.300  15.778  23.161  0.00  0.00    -0.166 F 
ENDBRANCH   7  13
TORSDOF 1
ENDMDL
MODEL 2
REMARK VINA RESULT:      -8.0      2.521      3.189
REMARK  1 active torsions:
REMARK  status: ('A' for Active; 'I' for Inactive)
REMARK    1  A    between atoms: C_5  and  C_8 
ROOT
ATOM      1  C   UNL d   1     -48.047  13.454  22.129  0.00  0.00     0.084 A 
ATOM      2  C   UNL d   1     -48.159  14.178  22.503  0.00  0.00     0.057 A 
ATOM      3  N   UNL d   1     -48.684  13.065  21.785  0.00  0.00    -0.245 NA
ATOM      4  C   UNL d   1     -48.905  14.521  22.538  0.00  0.00     0.199 A 
ATOM      5  C   UNL d   1     -49.547  14.133  22.193  0.00  0.00     0.061 A 
ATOM      6  C   UNL d   1     -49.434  13.409  21.819  0.00  0.00     0.085 A 
ATOM      7  C   UNL d   1     -46.657  13.502  22.441  0.00  0.00     0.073 A 
ATOM      8  C   UNL d   1     -47.294  13.114  22.097  0.00  0.00     0.023 A 
ATOM      9  C   UNL d   1     -47.519  14.567  22.848  0.00  0.00     0.005 A 
ATOM     10  O   UNL d   1     -49.009  15.246  22.915  0.00  0.00    -0.286 OA
ATOM     11  C   UNL d   1     -46.770  14.231  22.818  0.00  0.00     0.004 A 
ATOM     12  C   UNL d   1     -50.079  13.019  21.473  0.00  0.00     0.021 C 
ENDROOT
BRANCH   7  13
ATOM     13  C   UNL d   1     -45.900  13.167  22.413  0.00  0.00     0.419 C 
ATOM     14  F   UNL d   1     -45.215  12.866  22.385  0.00  0.00    -0.166 F 
ATOM     15  F   UNL d   1     -45.574  12.525  22.884  0.00  0.00    -0.166 F 
ATOM     16  F   UNL d   1     -45.238  13.371  21.905  0.00  0.00    -0.166 F 
ENDBRANCH   7  13
TORSDOF 1
ENDMDL
MODEL 3
REMARK VINA RESULT:      -7.9      1.304      1.749
REMARK  1 active torsions:
REMARK  status: ('A' for Active; 'I' for Inactive)
REMARK    1  A    between atoms: C_5  and  C_8 
ROOT
ATOM      1  C   UNL d   1     -47.768  12.906  23.219  0.00  0.00     0.084 A 
ATOM      2  C   UNL d   1     -48.444  12.445  23.303  0.00  0.00     0.057 A 
ATOM      3  N   UNL d   1     -47.026  12.578  23.350  0.00  0.00    -0.245 NA
ATOM      4  C   UNL d   1     -48.388  11.654  23.517  0.00  0.00     0.199 A 
ATOM      5  C   UNL d   1     -47.644  11.321  23.649  0.00  0.00     0.061 A 
ATOM      6  C   UNL d   1     -46.968  11.783  23.565  0.00  0.00     0.085 A 
ATOM      7  C   UNL d   1     -48.573  14.031  22.873  0.00  0.00     0.073 A 
ATOM      8  C   UNL d   1     -47.832  13.702  23.004  0.00  0.00     0.023 A 
ATOM      9  C   UNL d   1     -49.187  12.777  23.171  0.00  0.00     0.005 A 
ATOM     10  O   UNL d   1     -49.069  11.198  23.598  0.00  0.00    -0.286 OA
ATOM     11  C   UNL d   1     -49.253  13.567  22.957  0.00  0.00     0.004 A 
ATOM     12  C   UNL d   1     -46.221  11.448  23.698  0.00  0.00     0.021 C 
ENDROOT
BRANCH   7  13
ATOM     13  C   UNL d   1     -48.643  14.828  22.657  0.00  0.00     0.419 C 
ATOM     14  F   UNL d   1     -48.707  15.549  22.464  0.00  0.00    -0.166 F 
ATOM     15  F   UNL d   1     -48.514  15.194  21.889  0.00  0.00    -0.166 F 
ATOM     16  F   UNL d   1     -48.863  15.501  23.142  0.00  0.00    -0.166 F 
ENDBRANCH   7  13
TORSDOF 1
ENDMDL
