MODEL 1
REMARK VINA RESULT:      28.5      0.000      0.000
REMARK  3 active torsions:
REMARK  status: ('A' for Active; 'I' for Inactive)
REMARK    1  A    between atoms: C_7  and  C_1 
REMARK    2  A    between atoms: C_13  and  C_7 
REMARK    3  A    between atoms: N_12  and  C_11 
ROOT
ATOM      1  C   UNL d   1     -57.638 -98.833 -44.573  0.00  0.00     0.010 C 
ENDROOT
BRANCH   1   2
ATOM      2  C   UNL d   1     -58.208 -98.818 -44.010  0.00  0.00     0.116 A 
ATOM      3  C   UNL d   1     -58.010 -98.779 -43.210  0.00  0.00     0.288 A 
ATOM      4  N   UNL d   1     -58.587 -98.763 -42.624  0.00  0.00    -0.152 NA
ATOM      5  O   UNL d   1     -57.213 -98.755 -42.993  0.00  0.00    -0.265 OA
ATOM      6  C   UNL d   1     -59.371 -98.787 -42.838  0.00  0.00     0.374 A 
ATOM      7  N   UNL d   1     -59.596 -98.826 -43.626  0.00  0.00    -0.152 NA
ATOM      8  O   UNL d   1     -59.956 -98.771 -42.236  0.00  0.00    -0.242 OA
ATOM      9  C   UNL d   1     -59.013 -98.841 -44.205  0.00  0.00     0.288 A 
ATOM     10  O   UNL d   1     -59.234 -98.880 -45.007  0.00  0.00    -0.265 OA
ENDBRANCH   1   2
BRANCH   1  11
ATOM     11  C   UNL d   1     -56.977 -99.321 -44.481  0.00  0.00     0.000 A 
ATOM     12  C   UNL d   1     -57.067-100.079 -44.234  0.00  0.00     0.002 A 
ATOM     13  C   UNL d   1     -56.434-100.573 -44.137  0.00  0.00     0.018 A 
ATOM     14  C   UNL d   1     -55.680-100.277 -44.300  0.00  0.00     0.064 A 
ATOM     15  C   UNL d   1     -55.581 -99.495 -44.556  0.00  0.00     0.018 A 
ATOM     16  C   UNL d   1     -56.227 -99.019 -44.646  0.00  0.00     0.002 A 
BRANCH  14  17
ATOM     17  N   UNL d   1     -55.028-100.778 -44.203  0.00  0.00    -0.301 N 
ATOM     18  C   UNL d   1     -54.712-100.889 -43.459  0.00  0.00     0.100 C 
ATOM     19  C   UNL d   1     -54.713-101.154 -44.871  0.00  0.00     0.100 C 
ENDBRANCH  14  17
ENDBRANCH   1  11
TORSDOF 3
ENDMDL
