MODEL 1
REMARK VINA RESULT:     108.4      0.000      0.000
REMARK  4 active torsions:
REMARK  status: ('A' for Active; 'I' for Inactive)
REMARK    1  A    between atoms: S_5  and  C_2 
REMARK    2  A    between atoms: C_16  and  S_5 
REMARK    3  A    between atoms: N_11  and  C_8 
REMARK    4  A    between atoms: C_12  and  N_11 
ROOT
ATOM      1  C   UNL d   1     -48.227  29.075  35.395  0.00  0.00     0.197 A 
ATOM      2  C   UNL d   1     -48.638  28.365  35.510  0.00  0.00     0.227 A 
ATOM      3  N   UNL d   1     -47.859  29.274  36.109  0.00  0.00    -0.192 N 
ATOM      4  N   UNL d   1     -48.139  29.565  34.737  0.00  0.00    -0.206 NA
ATOM      5  N   UNL d   1     -48.525  28.126  36.293  0.00  0.00    -0.115 NA
ATOM      6  N   UNL d   1     -48.042  28.687  36.667  0.00  0.00    -0.058 NA
ATOM      7  C   UNL d   1     -47.682  30.256  34.790  0.00  0.00     0.166 A 
ATOM      8  C   UNL d   1     -47.318  30.448  35.505  0.00  0.00     0.054 A 
ATOM      9  C   UNL d   1     -47.402  29.963  36.167  0.00  0.00     0.089 A 
ATOM     10  C   UNL d   1     -46.860  31.139  35.563  0.00  0.00     0.005 A 
ATOM     11  C   UNL d   1     -47.036  30.159  36.878  0.00  0.00     0.019 A 
ATOM     12  C   UNL d   1     -46.495  31.334  36.275  0.00  0.00     0.000 A 
ATOM     13  C   UNL d   1     -46.584  30.843  36.933  0.00  0.00     0.002 A 
ENDROOT
BRANCH   2  14
ATOM     14  S   UNL d   1     -49.084  27.968  34.940  0.00  0.00     0.231 S 
ATOM     15  O   UNL d   1     -48.422  27.863  34.463  0.00  0.00    -0.215 OA
ATOM     16  O   UNL d   1     -49.745  28.074  35.420  0.00  0.00    -0.215 OA
BRANCH  14  17
ATOM     17  C   UNL d   1     -49.561  27.578  34.399  0.00  0.00     0.090 A 
ATOM     18  C   UNL d   1     -49.305  26.866  34.067  0.00  0.00     0.011 A 
ATOM     19  C   UNL d   1     -49.777  26.474  33.527  0.00  0.00     0.001 A 
ATOM     20  C   UNL d   1     -50.511  26.788  33.311  0.00  0.00     0.000 A 
ATOM     21  C   UNL d   1     -50.764  27.501  33.645  0.00  0.00     0.001 A 
ATOM     22  C   UNL d   1     -50.291  27.890  34.184  0.00  0.00     0.011 A 
ENDBRANCH  14  17
ENDBRANCH   2  14
BRANCH   7  23
ATOM     23  N   UNL d   1     -47.594  30.746  34.132  0.00  0.00    -0.227 NA
BRANCH  23  24
ATOM     24  C   UNL d   1     -48.050  31.428  34.062  0.00  0.00     0.083 A 
ATOM     25  C   UNL d   1     -47.728  32.107  33.719  0.00  0.00     0.018 A 
ATOM     26  C   UNL d   1     -48.185  32.789  33.649  0.00  0.00     0.002 A 
ATOM     27  C   UNL d   1     -46.948  32.101  33.446  0.00  0.00     0.002 C 
ATOM     28  C   UNL d   1     -47.864  33.467  33.307  0.00  0.00     0.000 C 
ATOM     29  C   UNL d   1     -48.968  32.796  33.922  0.00  0.00     0.000 A 
ATOM     30  C   UNL d   1     -49.284  32.110  34.266  0.00  0.00     0.002 A 
ATOM     31  C   UNL d   1     -48.827  31.432  34.334  0.00  0.00     0.019 A 
ENDBRANCH  23  24
ENDBRANCH   7  23
TORSDOF 4
ENDMDL
