MODEL 1
REMARK VINA RESULT:      55.4      0.000      0.000
REMARK  3 active torsions:
REMARK  status: ('A' for Active; 'I' for Inactive)
REMARK    1  A    between atoms: C_4  and  C_1 
REMARK    2  A    between atoms: N_7  and  C_4 
REMARK    3  A    between atoms: C_9  and  N_7 
ROOT
ATOM      1  C   UNL d   1     -54.728-100.069 -42.710  0.00  0.00     0.171 C 
ATOM      2  S   UNL d   1     -54.714 -99.275 -42.484  0.00  0.00    -0.054 SA
ENDROOT
BRANCH   1   3
ATOM      3  C   UNL d   1     -54.744-100.659 -42.134  0.00  0.00     0.191 A 
ATOM      4  N   UNL d   1     -54.790-101.472 -42.279  0.00  0.00    -0.223 NA
ATOM      5  C   UNL d   1     -54.792-101.859 -41.548  0.00  0.00     0.101 A 
ATOM      6  C   UNL d   1     -54.828-102.658 -41.340  0.00  0.00     0.021 A 
ATOM      7  C   UNL d   1     -54.747-101.282 -40.955  0.00  0.00     0.101 A 
ATOM      8  C   UNL d   1     -54.820-102.880 -40.552  0.00  0.00     0.002 A 
ATOM      9  C   UNL d   1     -54.776-102.302 -39.959  0.00  0.00     0.002 A 
ATOM     10  C   UNL d   1     -54.739-101.508 -40.160  0.00  0.00     0.021 A 
ATOM     11  N   UNL d   1     -54.718-100.542 -41.324  0.00  0.00    -0.223 NA
ENDBRANCH   1   3
BRANCH   1  12
ATOM     12  N   UNL d   1     -54.725-100.274 -43.507  0.00  0.00    -0.232 NA
BRANCH  12  13
ATOM     13  C   UNL d   1     -55.328-100.000 -44.006  0.00  0.00     0.083 A 
ATOM     14  C   UNL d   1     -55.377 -99.199 -44.189  0.00  0.00     0.020 A 
ATOM     15  C   UNL d   1     -55.970 -98.919 -44.683  0.00  0.00     0.013 A 
ATOM     16  C   UNL d   1     -56.524 -99.455 -44.997  0.00  0.00     0.058 A 
ATOM     17  C   UNL d   1     -56.477-100.259 -44.814  0.00  0.00     0.013 A 
ATOM     18 CL   UNL d   1     -57.121 -99.183 -45.491  0.00  0.00    -0.082 Cl
ATOM     19  C   UNL d   1     -55.875-100.525 -44.317  0.00  0.00     0.020 A 
ENDBRANCH  12  13
ENDBRANCH   1  12
TORSDOF 3
ENDMDL
MODEL 2
REMARK VINA RESULT:      55.9      3.297      4.500
REMARK  3 active torsions:
REMARK  status: ('A' for Active; 'I' for Inactive)
REMARK    1  A    between atoms: C_4  and  C_1 
REMARK    2  A    between atoms: N_7  and  C_4 
REMARK    3  A    between atoms: C_9  and  N_7 
ROOT
ATOM      1  C   UNL d   1     -58.737 -99.242 -44.263  0.00  0.00     0.171 C 
ATOM      2  S   UNL d   1     -59.168 -98.761 -43.749  0.00  0.00    -0.054 SA
ENDROOT
BRANCH   1   3
ATOM      3  C   UNL d   1     -57.919 -99.149 -44.322  0.00  0.00     0.191 A 
ATOM      4  N   UNL d   1     -57.500 -99.018 -45.022  0.00  0.00    -0.223 NA
ATOM      5  C   UNL d   1     -56.698 -98.958 -44.829  0.00  0.00     0.101 A 
ATOM      6  C   UNL d   1     -56.022 -98.831 -45.286  0.00  0.00     0.021 A 
ATOM      7  C   UNL d   1     -56.627 -99.053 -44.008  0.00  0.00     0.101 A 
ATOM      8  C   UNL d   1     -55.284 -98.797 -44.932  0.00  0.00     0.002 A 
ATOM      9  C   UNL d   1     -55.214 -98.892 -44.111  0.00  0.00     0.002 A 
ATOM     10  C   UNL d   1     -55.881 -99.019 -43.653  0.00  0.00     0.021 A 
ATOM     11  N   UNL d   1     -57.386 -99.170 -43.701  0.00  0.00    -0.223 NA
ENDBRANCH   1   3
BRANCH   1  12
ATOM     12  N   UNL d   1     -59.119 -99.814 -44.715  0.00  0.00    -0.232 NA
BRANCH  12  13
ATOM     13  C   UNL d   1     -59.330 -99.647 -45.499  0.00  0.00     0.083 A 
ATOM     14  C   UNL d   1     -59.698 -98.935 -45.683  0.00  0.00     0.020 A 
ATOM     15  C   UNL d   1     -59.911 -98.762 -46.457  0.00  0.00     0.013 A 
ATOM     16  C   UNL d   1     -59.749 -99.316 -47.056  0.00  0.00     0.058 A 
ATOM     17  C   UNL d   1     -59.380-100.032 -46.874  0.00  0.00     0.013 A 
ATOM     18 CL   UNL d   1     -59.958 -99.151 -47.832  0.00  0.00    -0.082 Cl
ATOM     19  C   UNL d   1     -59.172-100.191 -46.091  0.00  0.00     0.020 A 
ENDBRANCH  12  13
ENDBRANCH   1  12
TORSDOF 3
ENDMDL
