MODEL 1
REMARK VINA RESULT:      -2.9      0.000      0.000
REMARK  1 active torsions:
REMARK  status: ('A' for Active; 'I' for Inactive)
REMARK    1  A    between atoms: C_11  and  C_4 
ROOT
ATOM      1  O   UNL d   1      32.565  20.416 -21.159  0.00  0.00    -0.304 OA
ATOM      2  C   UNL d   1      32.907  21.570 -21.748  0.00  0.00     0.025 A 
ATOM      3  C   UNL d   1      33.239  20.945 -22.182  0.00  0.00     0.030 A 
ATOM      4  C   UNL d   1      33.028  20.235 -21.820  0.00  0.00     0.142 A 
ATOM      5  C   UNL d   1      32.492  21.234 -21.118  0.00  0.00     0.100 A 
ATOM      6  C   UNL d   1      32.932  22.378 -21.848  0.00  0.00     0.009 A 
ATOM      7  C   UNL d   1      32.098  21.720 -20.582  0.00  0.00     0.025 A 
ATOM      8  C   UNL d   1      32.539  22.877 -21.314  0.00  0.00     0.035 A 
ATOM      9  C   UNL d   1      32.121  22.544 -20.680  0.00  0.00     0.009 A 
ATOM     10 BR   UNL d   1      32.560  23.694 -21.409  0.00  0.00    -0.049 Br
ENDROOT
BRANCH   4  11
ATOM     11  C   UNL d   1      33.241  19.479 -22.071  0.00  0.00     0.259 C 
ATOM     12  O   UNL d   1      32.727  19.041 -22.531  0.00  0.00    -0.281 OA
ENDBRANCH   4  11
TORSDOF 1
ENDMDL
MODEL 2
REMARK VINA RESULT:      -2.5      5.326      6.037
REMARK  1 active torsions:
REMARK  status: ('A' for Active; 'I' for Inactive)
REMARK    1  A    between atoms: C_11  and  C_4 
ROOT
ATOM      1  O   UNL d   1      29.891  15.985 -23.526  0.00  0.00    -0.304 OA
ATOM      2  C   UNL d   1      30.360  16.997 -24.269  0.00  0.00     0.025 A 
ATOM      3  C   UNL d   1      29.537  16.956 -24.371  0.00  0.00     0.030 A 
ATOM      4  C   UNL d   1      29.248  16.333 -23.914  0.00  0.00     0.142 A 
ATOM      5  C   UNL d   1      30.570  16.394 -23.746  0.00  0.00     0.100 A 
ATOM      6  C   UNL d   1      30.924  17.496 -24.580  0.00  0.00     0.009 A 
ATOM      7  C   UNL d   1      31.359  16.293 -23.534  0.00  0.00     0.025 A 
ATOM      8  C   UNL d   1      31.722  17.403 -24.374  0.00  0.00     0.035 A 
ATOM      9  C   UNL d   1      31.938  16.798 -23.848  0.00  0.00     0.009 A 
ATOM     10 BR   UNL d   1      32.298  17.902 -24.684  0.00  0.00    -0.049 Br
ENDROOT
BRANCH   4  11
ATOM     11  C   UNL d   1      28.460  16.099 -23.853  0.00  0.00     0.259 C 
ATOM     12  O   UNL d   1      27.952  16.499 -23.354  0.00  0.00    -0.281 OA
ENDBRANCH   4  11
TORSDOF 1
ENDMDL
MODEL 3
REMARK VINA RESULT:      -2.5      5.287      6.229
REMARK  1 active torsions:
REMARK  status: ('A' for Active; 'I' for Inactive)
REMARK    1  A    between atoms: C_11  and  C_4 
ROOT
ATOM      1  O   UNL d   1      30.953  17.382 -24.304  0.00  0.00    -0.304 OA
ATOM      2  C   UNL d   1      30.362  16.313 -23.754  0.00  0.00     0.025 A 
ATOM      3  C   UNL d   1      31.167  16.302 -23.550  0.00  0.00     0.030 A 
ATOM      4  C   UNL d   1      31.531  16.960 -23.888  0.00  0.00     0.142 A 
ATOM      5  C   UNL d   1      30.239  16.983 -24.220  0.00  0.00     0.100 A 
ATOM      6  C   UNL d   1      29.748  15.808 -23.577  0.00  0.00     0.009 A 
ATOM      7  C   UNL d   1      29.486  17.146 -24.511  0.00  0.00     0.025 A 
ATOM      8  C   UNL d   1      28.985  15.962 -23.865  0.00  0.00     0.035 A 
ATOM      9  C   UNL d   1      28.856  16.635 -24.333  0.00  0.00     0.009 A 
ATOM     10 BR   UNL d   1      28.359  15.457 -23.690  0.00  0.00    -0.049 Br
ENDROOT
BRANCH   4  11
ATOM     11  C   UNL d   1      32.327  17.162 -23.824  0.00  0.00     0.259 C 
ATOM     12  O   UNL d   1      32.601  17.539 -23.153  0.00  0.00    -0.281 OA
ENDBRANCH   4  11
TORSDOF 1
ENDMDL
MODEL 4
REMARK VINA RESULT:      -2.4      1.880      3.076
REMARK  1 active torsions:
REMARK  status: ('A' for Active; 'I' for Inactive)
REMARK    1  A    between atoms: C_11  and  C_4 
ROOT
ATOM      1  O   UNL d   1      32.884  21.640 -22.113  0.00  0.00    -0.304 OA
ATOM      2  C   UNL d   1      32.908  20.366 -21.699  0.00  0.00     0.025 A 
ATOM      3  C   UNL d   1      32.744  20.852 -21.045  0.00  0.00     0.030 A 
ATOM      4  C   UNL d   1      32.729  21.636 -21.300  0.00  0.00     0.142 A 
ATOM      5  C   UNL d   1      32.992  20.862 -22.354  0.00  0.00     0.100 A 
ATOM      6  C   UNL d   1      32.987  19.559 -21.772  0.00  0.00     0.009 A 
ATOM      7  C   UNL d   1      33.159  20.538 -23.093  0.00  0.00     0.025 A 
ATOM      8  C   UNL d   1      33.154  19.222 -22.511  0.00  0.00     0.035 A 
ATOM      9  C   UNL d   1      33.240  19.715 -23.173  0.00  0.00     0.009 A 
ATOM     10 BR   UNL d   1      33.236  18.407 -22.593  0.00  0.00    -0.049 Br
ENDROOT
BRANCH   4  11
ATOM     11  C   UNL d   1      32.587  22.298 -20.831  0.00  0.00     0.259 C 
ATOM     12  O   UNL d   1      31.846  22.643 -20.824  0.00  0.00    -0.281 OA
ENDBRANCH   4  11
TORSDOF 1
ENDMDL
MODEL 5
REMARK VINA RESULT:      -2.4      4.163      4.974
REMARK  1 active torsions:
REMARK  status: ('A' for Active; 'I' for Inactive)
REMARK    1  A    between atoms: C_11  and  C_4 
ROOT
ATOM      1  O   UNL d   1      31.721  16.566 -23.186  0.00  0.00    -0.304 OA
ATOM      2  C   UNL d   1      31.753  17.423 -24.216  0.00  0.00     0.025 A 
ATOM      3  C   UNL d   1      31.126  16.891 -24.335  0.00  0.00     0.030 A 
ATOM      4  C   UNL d   1      31.106  16.364 -23.701  0.00  0.00     0.142 A 
ATOM      5  C   UNL d   1      32.115  17.214 -23.504  0.00  0.00     0.100 A 
ATOM      6  C   UNL d   1      32.027  18.050 -24.657  0.00  0.00     0.009 A 
ATOM      7  C   UNL d   1      32.763  17.645 -23.233  0.00  0.00     0.025 A 
ATOM      8  C   UNL d   1      32.679  18.491 -24.394  0.00  0.00     0.035 A 
ATOM      9  C   UNL d   1      33.047  18.286 -23.679  0.00  0.00     0.009 A 
ATOM     10 BR   UNL d   1      32.962  19.126 -24.833  0.00  0.00    -0.049 Br
ENDROOT
BRANCH   4  11
ATOM     11  C   UNL d   1      30.571  15.746 -23.599  0.00  0.00     0.259 C 
ATOM     12  O   UNL d   1      29.916  15.848 -23.120  0.00  0.00    -0.281 OA
ENDBRANCH   4  11
TORSDOF 1
ENDMDL
MODEL 6
REMARK VINA RESULT:      -2.3      2.395      3.835
REMARK  1 active torsions:
REMARK  status: ('A' for Active; 'I' for Inactive)
REMARK    1  A    between atoms: C_11  and  C_4 
ROOT
ATOM      1  O   UNL d   1      33.113  20.216 -22.864  0.00  0.00    -0.304 OA
ATOM      2  C   UNL d   1      33.201  18.938 -22.471  0.00  0.00     0.025 A 
ATOM      3  C   UNL d   1      33.241  19.423 -21.798  0.00  0.00     0.030 A 
ATOM      4  C   UNL d   1      33.187  20.210 -22.040  0.00  0.00     0.142 A 
ATOM      5  C   UNL d   1      33.122  19.436 -23.125  0.00  0.00     0.100 A 
ATOM      6  C   UNL d   1      33.226  18.129 -22.562  0.00  0.00     0.009 A 
ATOM      7  C   UNL d   1      33.068  19.113 -23.880  0.00  0.00     0.025 A 
ATOM      8  C   UNL d   1      33.173  17.792 -23.318  0.00  0.00     0.035 A 
ATOM      9  C   UNL d   1      33.093  18.288 -23.979  0.00  0.00     0.009 A 
ATOM     10 BR   UNL d   1      33.198  16.976 -23.418  0.00  0.00    -0.049 Br
ENDROOT
BRANCH   4  11
ATOM     11  C   UNL d   1      33.203  20.872 -21.550  0.00  0.00     0.259 C 
ATOM     12  O   UNL d   1      32.529  21.101 -21.150  0.00  0.00    -0.281 OA
ENDBRANCH   4  11
TORSDOF 1
ENDMDL
MODEL 7
REMARK VINA RESULT:      -2.1      1.276      1.844
REMARK  1 active torsions:
REMARK  status: ('A' for Active; 'I' for Inactive)
REMARK    1  A    between atoms: C_11  and  C_4 
ROOT
ATOM      1  O   UNL d   1      33.216  18.835 -22.098  0.00  0.00    -0.304 OA
ATOM      2  C   UNL d   1      33.189  20.104 -22.527  0.00  0.00     0.025 A 
ATOM      3  C   UNL d   1      33.171  19.603 -23.189  0.00  0.00     0.030 A 
ATOM      4  C   UNL d   1      33.187  18.821 -22.925  0.00  0.00     0.142 A 
ATOM      5  C   UNL d   1      33.217  19.621 -21.858  0.00  0.00     0.100 A 
ATOM      6  C   UNL d   1      33.185  20.916 -22.458  0.00  0.00     0.009 A 
ATOM      7  C   UNL d   1      33.240  19.963 -21.109  0.00  0.00     0.025 A 
ATOM      8  C   UNL d   1      33.207  21.270 -21.708  0.00  0.00     0.035 A 
ATOM      9  C   UNL d   1      33.235  20.790 -21.032  0.00  0.00     0.009 A 
ATOM     10 BR   UNL d   1      33.203  22.089 -21.630  0.00  0.00    -0.049 Br
ENDROOT
BRANCH   4  11
ATOM     11  C   UNL d   1      33.177  18.147 -23.398  0.00  0.00     0.259 C 
ATOM     12  O   UNL d   1      32.548  18.011 -23.902  0.00  0.00    -0.281 OA
ENDBRANCH   4  11
TORSDOF 1
ENDMDL
MODEL 8
REMARK VINA RESULT:      -2.0      2.708      3.481
REMARK  1 active torsions:
REMARK  status: ('A' for Active; 'I' for Inactive)
REMARK    1  A    between atoms: C_11  and  C_4 
ROOT
ATOM      1  O   UNL d   1      32.130  23.110 -19.713  0.00  0.00    -0.304 OA
ATOM      2  C   UNL d   1      32.953  22.786 -18.706  0.00  0.00     0.025 A 
ATOM      3  C   UNL d   1      33.211  22.395 -19.392  0.00  0.00     0.030 A 
ATOM      4  C   UNL d   1      32.705  22.595 -20.012  0.00  0.00     0.142 A 
ATOM      5  C   UNL d   1      32.286  23.225 -18.914  0.00  0.00     0.100 A 
ATOM      6  C   UNL d   1      33.238  22.793 -17.943  0.00  0.00     0.009 A 
ATOM      7  C   UNL d   1      31.901  23.677 -18.343  0.00  0.00     0.025 A 
ATOM      8  C   UNL d   1      32.858  23.245 -17.360  0.00  0.00     0.035 A 
ATOM      9  C   UNL d   1      32.187  23.689 -17.564  0.00  0.00     0.009 A 
ATOM     10 BR   UNL d   1      33.140  23.258 -16.587  0.00  0.00    -0.049 Br
ENDROOT
BRANCH   4  11
ATOM     11  C   UNL d   1      32.760  22.329 -20.790  0.00  0.00     0.259 C 
ATOM     12  O   UNL d   1      32.086  22.259 -21.247  0.00  0.00    -0.281 OA
ENDBRANCH   4  11
TORSDOF 1
ENDMDL
MODEL 9
REMARK VINA RESULT:      -1.2      5.697      6.167
REMARK  1 active torsions:
REMARK  status: ('A' for Active; 'I' for Inactive)
REMARK    1  A    between atoms: C_11  and  C_4 
ROOT
ATOM      1  O   UNL d   1      28.942  16.396 -23.533  0.00  0.00    -0.304 OA
ATOM      2  C   UNL d   1      30.255  16.612 -23.695  0.00  0.00     0.025 A 
ATOM      3  C   UNL d   1      30.150  16.113 -23.040  0.00  0.00     0.030 A 
ATOM      4  C   UNL d   1      29.342  15.980 -22.940  0.00  0.00     0.142 A 
ATOM      5  C   UNL d   1      29.504  16.782 -23.993  0.00  0.00     0.100 A 
ATOM      6  C   UNL d   1      30.923  16.922 -24.044  0.00  0.00     0.009 A 
ATOM      7  C   UNL d   1      29.426  17.271 -24.651  0.00  0.00     0.025 A 
ATOM      8  C   UNL d   1      30.856  17.415 -24.707  0.00  0.00     0.035 A 
ATOM      9  C   UNL d   1      30.104  17.589 -25.011  0.00  0.00     0.009 A 
ATOM     10 BR   UNL d   1      31.527  17.732 -25.065  0.00  0.00    -0.049 Br
ENDROOT
BRANCH   4  11
ATOM     11  C   UNL d   1      28.994  15.516 -22.355  0.00  0.00     0.259 C 
ATOM     12  O   UNL d   1      29.312  15.501 -21.602  0.00  0.00    -0.281 OA
ENDBRANCH   4  11
TORSDOF 1
ENDMDL
