MODEL 1
REMARK VINA RESULT:      78.6      0.000      0.000
REMARK  5 active torsions:
REMARK  status: ('A' for Active; 'I' for Inactive)
REMARK    1  A    between atoms: C_4  and  C_1 
REMARK    2  A    between atoms: N_5  and  C_2 
REMARK       I    between atoms: N_9  and  C_4 
REMARK       I    between atoms: C_7  and  N_5 
REMARK    3  A    between atoms: C_10  and  C_7 
REMARK    4  A    between atoms: C_21  and  N_9 
REMARK    5  A    between atoms: O_29  and  C_22 
ROOT
ATOM      1  C   UNL d   1      13.720  14.670  -4.900  0.00  0.00     0.175 A 
ATOM      2  C   UNL d   1      13.915  14.325  -4.168  0.00  0.00     0.114 A 
ATOM      3  O   UNL d   1      13.274  14.110  -5.322  0.00  0.00    -0.301 OA
ATOM      4  C   UNL d   1      13.592  13.572  -4.149  0.00  0.00     0.043 A 
ATOM      5  C   UNL d   1      13.195  13.437  -4.861  0.00  0.00     0.102 A 
ATOM      6  C   UNL d   1      13.608  12.984  -3.568  0.00  0.00     0.004 A 
ATOM      7  C   UNL d   1      12.818  12.720  -4.991  0.00  0.00     0.025 A 
ATOM      8  C   UNL d   1      13.226  12.261  -3.702  0.00  0.00     0.000 A 
ATOM      9  C   UNL d   1      12.831  12.134  -4.419  0.00  0.00     0.002 A 
ENDROOT
BRANCH   2  10
ATOM     10  N   UNL d   1      14.359  14.687  -3.566  0.00  0.00    -0.206 NA
ATOM     11  C   UNL d   1      13.972  15.072  -2.948  0.00  0.00     0.279 C 
ATOM     12  O   UNL d   1      13.149  15.099  -2.924  0.00  0.00    -0.265 OA
BRANCH  11  13
ATOM     13  C   UNL d   1      14.413  15.430  -2.352  0.00  0.00     0.060 A 
ATOM     14  C   UNL d   1      14.645  14.995  -1.697  0.00  0.00     0.031 A 
ATOM     15  C   UNL d   1      15.082  15.351  -1.107  0.00  0.00     0.119 A 
ATOM     16  O   UNL d   1      15.392  15.064  -0.394  0.00  0.00    -0.300 OA
ATOM     17  C   UNL d   1      15.288  16.148  -1.173  0.00  0.00     0.119 A 
ATOM     18  C   UNL d   1      15.789  15.687  -0.022  0.00  0.00     0.304 A 
ATOM     19  O   UNL d   1      15.722  16.353  -0.506  0.00  0.00    -0.300 OA
ATOM     20  C   UNL d   1      15.056  16.582  -1.828  0.00  0.00     0.026 A 
ATOM     21  C   UNL d   1      14.611  16.211  -2.423  0.00  0.00     0.007 A 
ENDBRANCH  11  13
ENDBRANCH   2  10
BRANCH   1  22
ATOM     22  C   UNL d   1      13.932  15.426  -5.157  0.00  0.00     0.303 C 
ATOM     23  N   UNL d   1      13.348  15.967  -5.353  0.00  0.00    -0.206 NA
ATOM     24  O   UNL d   1      14.732  15.634  -5.216  0.00  0.00    -0.263 OA
BRANCH  23  25
ATOM     25  C   UNL d   1      13.556  16.725  -5.610  0.00  0.00     0.085 A 
ATOM     26  C   UNL d   1      14.254  17.065  -5.332  0.00  0.00     0.021 A 
ATOM     27  C   UNL d   1      14.470  17.824  -5.585  0.00  0.00     0.026 A 
ATOM     28  C   UNL d   1      13.981  18.232  -6.115  0.00  0.00     0.094 A 
ATOM     29  C   UNL d   1      13.287  17.886  -6.388  0.00  0.00     0.026 A 
ATOM     30  C   UNL d   1      13.077  17.125  -6.130  0.00  0.00     0.021 A 
BRANCH  28  31
ATOM     31  O   UNL d   1      14.190  18.986  -6.370  0.00  0.00    -0.328 OA
ATOM     32  C   UNL d   1      14.309  19.585  -5.815  0.00  0.00     0.181 C 
ENDBRANCH  28  31
ENDBRANCH  23  25
ENDBRANCH   1  22
TORSDOF 5
ENDMDL
MODEL 2
REMARK VINA RESULT:      80.1      0.838      4.156
REMARK  5 active torsions:
REMARK  status: ('A' for Active; 'I' for Inactive)
REMARK    1  A    between atoms: C_4  and  C_1 
REMARK    2  A    between atoms: N_5  and  C_2 
REMARK       I    between atoms: N_9  and  C_4 
REMARK       I    between atoms: C_7  and  N_5 
REMARK    3  A    between atoms: C_10  and  C_7 
REMARK    4  A    between atoms: C_21  and  N_9 
REMARK    5  A    between atoms: O_29  and  C_22 
ROOT
ATOM      1  C   UNL d   1      13.643  13.931  -3.389  0.00  0.00     0.175 A 
ATOM      2  C   UNL d   1      13.352  14.079  -4.155  0.00  0.00     0.114 A 
ATOM      3  O   UNL d   1      13.647  13.107  -3.286  0.00  0.00    -0.301 OA
ATOM      4  C   UNL d   1      13.184  13.359  -4.506  0.00  0.00     0.043 A 
ATOM      5  C   UNL d   1      13.366  12.755  -3.972  0.00  0.00     0.102 A 
ATOM      6  C   UNL d   1      12.885  13.170  -5.253  0.00  0.00     0.004 A 
ATOM      7  C   UNL d   1      13.249  11.971  -4.183  0.00  0.00     0.025 A 
ATOM      8  C   UNL d   1      12.769  12.378  -5.463  0.00  0.00     0.000 A 
ATOM      9  C   UNL d   1      12.953  11.779  -4.922  0.00  0.00     0.002 A 
ENDROOT
BRANCH   2  10
ATOM     10  N   UNL d   1      13.252  14.830  -4.496  0.00  0.00    -0.206 NA
ATOM     11  C   UNL d   1      13.733  15.061  -5.125  0.00  0.00     0.279 C 
ATOM     12  O   UNL d   1      14.312  14.551  -5.415  0.00  0.00    -0.265 OA
BRANCH  11  13
ATOM     13  C   UNL d   1      13.634  15.804  -5.463  0.00  0.00     0.060 A 
ATOM     14  C   UNL d   1      14.164  16.406  -5.293  0.00  0.00     0.031 A 
ATOM     15  C   UNL d   1      14.064  17.143  -5.628  0.00  0.00     0.119 A 
ATOM     16  O   UNL d   1      14.498  17.846  -5.565  0.00  0.00    -0.300 OA
ATOM     17  C   UNL d   1      13.429  17.279  -6.137  0.00  0.00     0.119 A 
ATOM     18  C   UNL d   1      14.127  18.415  -6.037  0.00  0.00     0.304 A 
ATOM     19  O   UNL d   1      13.469  18.061  -6.388  0.00  0.00    -0.300 OA
ATOM     20  C   UNL d   1      12.899  16.677  -6.307  0.00  0.00     0.026 A 
ATOM     21  C   UNL d   1      13.009  15.931  -5.961  0.00  0.00     0.007 A 
ENDBRANCH  11  13
ENDBRANCH   2  10
BRANCH   1  22
ATOM     22  C   UNL d   1      13.883  14.497  -2.837  0.00  0.00     0.303 C 
ATOM     23  N   UNL d   1      14.543  14.359  -2.373  0.00  0.00    -0.206 NA
ATOM     24  O   UNL d   1      13.454  15.202  -2.757  0.00  0.00    -0.263 OA
BRANCH  23  25
ATOM     25  C   UNL d   1      14.786  14.923  -1.819  0.00  0.00     0.085 A 
ATOM     26  C   UNL d   1      14.805  15.718  -2.041  0.00  0.00     0.021 A 
ATOM     27  C   UNL d   1      15.047  16.290  -1.493  0.00  0.00     0.026 A 
ATOM     28  C   UNL d   1      15.266  16.057  -0.728  0.00  0.00     0.094 A 
ATOM     29  C   UNL d   1      15.244  15.263  -0.516  0.00  0.00     0.026 A 
ATOM     30  C   UNL d   1      15.000  14.695  -1.071  0.00  0.00     0.021 A 
BRANCH  28  31
ATOM     31  O   UNL d   1      15.507  16.621  -0.180  0.00  0.00    -0.328 OA
ATOM     32  C   UNL d   1      15.645  17.396  -0.426  0.00  0.00     0.181 C 
ENDBRANCH  28  31
ENDBRANCH  23  25
ENDBRANCH   1  22
TORSDOF 5
ENDMDL
MODEL 3
REMARK VINA RESULT:      80.1      1.165      3.636
REMARK  5 active torsions:
REMARK  status: ('A' for Active; 'I' for Inactive)
REMARK    1  A    between atoms: C_4  and  C_1 
REMARK    2  A    between atoms: N_5  and  C_2 
REMARK       I    between atoms: N_9  and  C_4 
REMARK       I    between atoms: C_7  and  N_5 
REMARK    3  A    between atoms: C_10  and  C_7 
REMARK    4  A    between atoms: C_21  and  N_9 
REMARK    5  A    between atoms: O_29  and  C_22 
ROOT
ATOM      1  C   UNL d   1      14.807  16.619  -2.645  0.00  0.00     0.175 A 
ATOM      2  C   UNL d   1      14.701  15.800  -2.540  0.00  0.00     0.114 A 
ATOM      3  O   UNL d   1      15.105  16.920  -1.931  0.00  0.00    -0.301 OA
ATOM      4  C   UNL d   1      14.931  15.611  -1.777  0.00  0.00     0.043 A 
ATOM      5  C   UNL d   1      15.181  16.301  -1.398  0.00  0.00     0.102 A 
ATOM      6  C   UNL d   1      14.946  14.891  -1.371  0.00  0.00     0.004 A 
ATOM      7  C   UNL d   1      15.444  16.271  -0.621  0.00  0.00     0.025 A 
ATOM      8  C   UNL d   1      15.211  14.863  -0.588  0.00  0.00     0.000 A 
ATOM      9  C   UNL d   1      15.460  15.560  -0.215  0.00  0.00     0.002 A 
ENDROOT
BRANCH   2  10
ATOM     10  N   UNL d   1      14.412  15.273  -3.113  0.00  0.00    -0.206 NA
ATOM     11  C   UNL d   1      13.874  14.687  -2.895  0.00  0.00     0.279 C 
ATOM     12  O   UNL d   1      13.622  14.622  -2.113  0.00  0.00    -0.265 OA
BRANCH  11  13
ATOM     13  C   UNL d   1      13.588  14.164  -3.463  0.00  0.00     0.060 A 
ATOM     14  C   UNL d   1      13.741  13.362  -3.395  0.00  0.00     0.031 A 
ATOM     15  C   UNL d   1      13.457  12.845  -3.959  0.00  0.00     0.119 A 
ATOM     16  O   UNL d   1      13.519  12.022  -4.041  0.00  0.00    -0.300 OA
ATOM     17  C   UNL d   1      13.017  13.133  -4.595  0.00  0.00     0.119 A 
ATOM     18  C   UNL d   1      13.115  11.806  -4.730  0.00  0.00     0.304 A 
ATOM     19  O   UNL d   1      12.808  12.494  -5.068  0.00  0.00    -0.300 OA
ATOM     20  C   UNL d   1      12.865  13.936  -4.662  0.00  0.00     0.026 A 
ATOM     21  C   UNL d   1      13.158  14.454  -4.084  0.00  0.00     0.007 A 
ENDBRANCH  11  13
ENDBRANCH   2  10
BRANCH   1  22
ATOM     22  C   UNL d   1      14.645  17.050  -3.332  0.00  0.00     0.303 C 
ATOM     23  N   UNL d   1      15.092  17.713  -3.511  0.00  0.00    -0.206 NA
ATOM     24  O   UNL d   1      14.032  16.810  -3.835  0.00  0.00    -0.263 OA
BRANCH  23  25
ATOM     25  C   UNL d   1      14.933  18.146  -4.196  0.00  0.00     0.085 A 
ATOM     26  C   UNL d   1      14.779  17.741  -4.899  0.00  0.00     0.021 A 
ATOM     27  C   UNL d   1      14.619  18.168  -5.591  0.00  0.00     0.026 A 
ATOM     28  C   UNL d   1      14.616  18.997  -5.569  0.00  0.00     0.094 A 
ATOM     29  C   UNL d   1      14.771  19.392  -4.865  0.00  0.00     0.026 A 
ATOM     30  C   UNL d   1      14.930  18.957  -4.175  0.00  0.00     0.021 A 
BRANCH  28  31
ATOM     31  O   UNL d   1      14.457  19.426  -6.252  0.00  0.00    -0.328 OA
ATOM     32  C   UNL d   1      14.339  20.241  -6.204  0.00  0.00     0.181 C 
ENDBRANCH  28  31
ENDBRANCH  23  25
ENDBRANCH   1  22
TORSDOF 5
ENDMDL
MODEL 4
REMARK VINA RESULT:      80.3      1.023      3.918
REMARK  5 active torsions:
REMARK  status: ('A' for Active; 'I' for Inactive)
REMARK    1  A    between atoms: C_4  and  C_1 
REMARK    2  A    between atoms: N_5  and  C_2 
REMARK       I    between atoms: N_9  and  C_4 
REMARK       I    between atoms: C_7  and  N_5 
REMARK    3  A    between atoms: C_10  and  C_7 
REMARK    4  A    between atoms: C_21  and  N_9 
REMARK    5  A    between atoms: O_29  and  C_22 
ROOT
ATOM      1  C   UNL d   1      14.142  16.294  -5.005  0.00  0.00     0.175 A 
ATOM      2  C   UNL d   1      14.258  16.927  -4.476  0.00  0.00     0.114 A 
ATOM      3  O   UNL d   1      14.116  16.619  -5.769  0.00  0.00    -0.301 OA
ATOM      4  C   UNL d   1      14.301  17.618  -4.913  0.00  0.00     0.043 A 
ATOM      5  C   UNL d   1      14.214  17.431  -5.713  0.00  0.00     0.102 A 
ATOM      6  C   UNL d   1      14.409  18.405  -4.685  0.00  0.00     0.004 A 
ATOM      7  C   UNL d   1      14.235  18.025  -6.278  0.00  0.00     0.025 A 
ATOM      8  C   UNL d   1      14.430  19.003  -5.258  0.00  0.00     0.000 A 
ATOM      9  C   UNL d   1      14.342  18.806  -6.057  0.00  0.00     0.002 A 
ENDROOT
BRANCH   2  10
ATOM     10  N   UNL d   1      14.319  16.861  -3.650  0.00  0.00    -0.206 NA
ATOM     11  C   UNL d   1      15.052  16.710  -3.305  0.00  0.00     0.279 C 
ATOM     12  O   UNL d   1      15.724  16.624  -3.774  0.00  0.00    -0.265 OA
BRANCH  11  13
ATOM     13  C   UNL d   1      15.111  16.644  -2.487  0.00  0.00     0.060 A 
ATOM     14  C   UNL d   1      15.177  15.905  -2.139  0.00  0.00     0.031 A 
ATOM     15  C   UNL d   1      15.236  15.841  -1.328  0.00  0.00     0.119 A 
ATOM     16  O   UNL d   1      15.307  15.186  -0.825  0.00  0.00    -0.300 OA
ATOM     17  C   UNL d   1      15.228  16.522  -0.861  0.00  0.00     0.119 A 
ATOM     18  C   UNL d   1      15.344  15.468  -0.047  0.00  0.00     0.304 A 
ATOM     19  O   UNL d   1      15.295  16.291  -0.075  0.00  0.00    -0.300 OA
ATOM     20  C   UNL d   1      15.162  17.261  -1.210  0.00  0.00     0.026 A 
ATOM     21  C   UNL d   1      15.103  17.316  -2.036  0.00  0.00     0.007 A 
ENDBRANCH  11  13
ENDBRANCH   2  10
BRANCH   1  22
ATOM     22  C   UNL d   1      14.068  15.496  -4.806  0.00  0.00     0.303 C 
ATOM     23  N   UNL d   1      13.324  15.175  -4.686  0.00  0.00    -0.206 NA
ATOM     24  O   UNL d   1      14.745  15.025  -4.729  0.00  0.00    -0.263 OA
BRANCH  23  25
ATOM     25  C   UNL d   1      13.245  14.377  -4.486  0.00  0.00     0.085 A 
ATOM     26  C   UNL d   1      13.049  13.834  -5.076  0.00  0.00     0.021 A 
ATOM     27  C   UNL d   1      12.968  13.032  -4.885  0.00  0.00     0.026 A 
ATOM     28  C   UNL d   1      13.085  12.785  -4.102  0.00  0.00     0.094 A 
ATOM     29  C   UNL d   1      13.280  13.332  -3.521  0.00  0.00     0.026 A 
ATOM     30  C   UNL d   1      13.360  14.134  -3.720  0.00  0.00     0.021 A 
BRANCH  28  31
ATOM     31  O   UNL d   1      13.006  11.990  -3.907  0.00  0.00    -0.328 OA
ATOM     32  C   UNL d   1      12.769  11.779  -3.145  0.00  0.00     0.181 C 
ENDBRANCH  28  31
ENDBRANCH  23  25
ENDBRANCH   1  22
TORSDOF 5
ENDMDL
MODEL 5
REMARK VINA RESULT:      80.8      1.291      4.792
REMARK  5 active torsions:
REMARK  status: ('A' for Active; 'I' for Inactive)
REMARK    1  A    between atoms: C_4  and  C_1 
REMARK    2  A    between atoms: N_5  and  C_2 
REMARK       I    between atoms: N_9  and  C_4 
REMARK       I    between atoms: C_7  and  N_5 
REMARK    3  A    between atoms: C_10  and  C_7 
REMARK    4  A    between atoms: C_21  and  N_9 
REMARK    5  A    between atoms: O_29  and  C_22 
ROOT
ATOM      1  C   UNL d   1      14.461  15.009  -2.149  0.00  0.00     0.175 A 
ATOM      2  C   UNL d   1      14.845  15.733  -2.293  0.00  0.00     0.114 A 
ATOM      3  O   UNL d   1      14.523  14.860  -1.334  0.00  0.00    -0.301 OA
ATOM      4  C   UNL d   1      15.133  16.015  -1.580  0.00  0.00     0.043 A 
ATOM      5  C   UNL d   1      14.935  15.476  -0.985  0.00  0.00     0.102 A 
ATOM      6  C   UNL d   1      15.555  16.700  -1.391  0.00  0.00     0.004 A 
ATOM      7  C   UNL d   1      15.157  15.623  -0.209  0.00  0.00     0.025 A 
ATOM      8  C   UNL d   1      15.778  16.844  -0.606  0.00  0.00     0.000 A 
ATOM      9  C   UNL d   1      15.575  16.300  -0.016  0.00  0.00     0.002 A 
ENDROOT
BRANCH   2  10
ATOM     10  N   UNL d   1      14.920  16.101  -3.035  0.00  0.00    -0.206 NA
ATOM     11  C   UNL d   1      14.801  16.915  -3.101  0.00  0.00     0.279 C 
ATOM     12  O   UNL d   1      14.609  17.363  -2.438  0.00  0.00    -0.265 OA
BRANCH  11  13
ATOM     13  C   UNL d   1      14.876  17.278  -3.836  0.00  0.00     0.060 A 
ATOM     14  C   UNL d   1      14.372  17.890  -4.042  0.00  0.00     0.031 A 
ATOM     15  C   UNL d   1      14.446  18.250  -4.771  0.00  0.00     0.119 A 
ATOM     16  O   UNL d   1      14.029  18.869  -5.131  0.00  0.00    -0.300 OA
ATOM     17  C   UNL d   1      15.030  17.995  -5.297  0.00  0.00     0.119 A 
ATOM     18  C   UNL d   1      14.358  18.993  -5.880  0.00  0.00     0.304 A 
ATOM     19  O   UNL d   1      14.974  18.452  -5.977  0.00  0.00    -0.300 OA
ATOM     20  C   UNL d   1      15.533  17.383  -5.089  0.00  0.00     0.026 A 
ATOM     21  C   UNL d   1      15.450  17.023  -4.346  0.00  0.00     0.007 A 
ENDBRANCH  11  13
ENDBRANCH   2  10
BRANCH   1  22
ATOM     22  C   UNL d   1      14.089  14.531  -2.711  0.00  0.00     0.303 C 
ATOM     23  N   UNL d   1      14.255  13.729  -2.735  0.00  0.00    -0.206 NA
ATOM     24  O   UNL d   1      13.552  14.864  -3.245  0.00  0.00    -0.263 OA
BRANCH  23  25
ATOM     25  C   UNL d   1      13.885  13.247  -3.296  0.00  0.00     0.085 A 
ATOM     26  C   UNL d   1      13.614  12.502  -3.067  0.00  0.00     0.021 A 
ATOM     27  C   UNL d   1      13.242  12.013  -3.623  0.00  0.00     0.026 A 
ATOM     28  C   UNL d   1      13.147  12.278  -4.402  0.00  0.00     0.094 A 
ATOM     29  C   UNL d   1      13.419  13.022  -4.622  0.00  0.00     0.026 A 
ATOM     30  C   UNL d   1      13.791  13.507  -4.059  0.00  0.00     0.021 A 
BRANCH  28  31
ATOM     31  O   UNL d   1      12.778  11.797  -4.958  0.00  0.00    -0.328 OA
ATOM     32  C   UNL d   1      13.061  11.779  -5.733  0.00  0.00     0.181 C 
ENDBRANCH  28  31
ENDBRANCH  23  25
ENDBRANCH   1  22
TORSDOF 5
ENDMDL
