MODEL 1
REMARK VINA RESULT:      58.1      0.000      0.000
REMARK  5 active torsions:
REMARK  status: ('A' for Active; 'I' for Inactive)
REMARK    1  A    between atoms: C_4  and  N_1 
REMARK    2  A    between atoms: C_8  and  C_2 
REMARK    3  A    between atoms: C_13  and  C_6 
REMARK    4  A    between atoms: C_7  and  C_8 
REMARK    5  A    between atoms: O_24  and  C_22 
ROOT
ATOM      1  N   UNL d   1      14.456  14.823  -1.954  0.00  0.00    -0.255 N 
ATOM      2  C   UNL d   1      13.869  13.793  -2.581  0.00  0.00     0.101 A 
ATOM      3  C   UNL d   1      14.106  15.108  -2.647  0.00  0.00     0.305 A 
ATOM      4  C   UNL d   1      13.747  14.478  -3.030  0.00  0.00     0.256 A 
ATOM      5  C   UNL d   1      14.309  14.007  -1.915  0.00  0.00     0.075 A 
ATOM      6  O   UNL d   1      14.117  15.892  -2.905  0.00  0.00    -0.263 OA
ATOM      7  O   UNL d   1      13.331  14.519  -3.747  0.00  0.00    -0.281 OA
ENDROOT
BRANCH   2   8
ATOM      8  C   UNL d   1      13.600  13.034  -2.766  0.00  0.00     0.223 C 
ATOM      9  O   UNL d   1      13.371  12.525  -2.160  0.00  0.00    -0.284 OA
BRANCH   8  10
ATOM     10  C   UNL d   1      13.563  12.789  -3.550  0.00  0.00     0.139 A 
ATOM     11  O   UNL d   1      14.108  12.972  -4.139  0.00  0.00    -0.304 OA
ATOM     12  C   UNL d   1      13.854  12.611  -4.843  0.00  0.00     0.100 A 
ATOM     13  C   UNL d   1      14.170  12.600  -5.601  0.00  0.00     0.025 A 
ATOM     14  C   UNL d   1      13.154  12.211  -4.675  0.00  0.00     0.025 A 
ATOM     15  C   UNL d   1      13.789  12.187  -6.199  0.00  0.00     0.002 A 
ATOM     16  C   UNL d   1      13.083  11.781  -6.039  0.00  0.00     0.000 A 
ATOM     17  C   UNL d   1      12.769  11.793  -5.281  0.00  0.00     0.002 A 
ATOM     18  C   UNL d   1      12.974  12.318  -3.883  0.00  0.00     0.030 A 
ENDBRANCH   8  10
ENDBRANCH   2   8
BRANCH   5  19
ATOM     19  C   UNL d   1      14.559  13.500  -1.313  0.00  0.00     0.018 A 
ATOM     20  C   UNL d   1      14.045  12.943  -1.005  0.00  0.00     0.026 A 
ATOM     21  C   UNL d   1      14.292  12.437  -0.405  0.00  0.00     0.094 A 
ATOM     22  C   UNL d   1      15.068  12.494  -0.113  0.00  0.00     0.024 A 
ATOM     23  C   UNL d   1      15.583  13.062  -0.431  0.00  0.00     0.002 A 
ATOM     24  C   UNL d   1      15.331  13.562  -1.027  0.00  0.00     0.002 A 
BRANCH  21  25
ATOM     25  O   UNL d   1      13.773  11.874  -0.094  0.00  0.00    -0.328 OA
ATOM     26  C   UNL d   1      12.972  12.048  -0.017  0.00  0.00     0.181 C 
ENDBRANCH  21  25
ENDBRANCH   5  19
BRANCH   1  27
ATOM     27  C   UNL d   1      14.880  15.272  -1.399  0.00  0.00     0.179 A 
ATOM     28  N   UNL d   1      15.273  14.973  -0.736  0.00  0.00    -0.108 NA
ATOM     29  O   UNL d   1      15.615  15.611  -0.344  0.00  0.00    -0.210 OA
ATOM     30  C   UNL d   1      15.437  16.296  -0.755  0.00  0.00     0.128 A 
ATOM     31  C   UNL d   1      14.980  16.093  -1.413  0.00  0.00     0.067 A 
ATOM     32  C   UNL d   1      15.673  17.066  -0.552  0.00  0.00     0.029 C 
ENDBRANCH   1  27
TORSDOF 5
ENDMDL
