MODEL 1
REMARK VINA RESULT:      22.2      0.000      0.000
REMARK  3 active torsions:
REMARK  status: ('A' for Active; 'I' for Inactive)
REMARK    1  A    between atoms: C_6  and  C_1 
REMARK    2  A    between atoms: C_7  and  C_5 
REMARK    3  A    between atoms: O_11  and  C_6 
ROOT
ATOM      1  C   UNL d   1     -52.709  24.359  33.682  0.00  0.00     0.167 A 
ATOM      2  C   UNL d   1     -52.842  25.106  33.879  0.00  0.00     0.047 A 
ATOM      3  N   UNL d   1     -51.449  24.682  33.306  0.00  0.00    -0.148 NA
ATOM      4  N   UNL d   1     -52.007  24.144  33.393  0.00  0.00    -0.143 NA
ATOM      5  C   UNL d   1     -51.583  25.437  33.505  0.00  0.00     0.105 A 
ENDROOT
BRANCH   5   6
ATOM      6  C   UNL d   1     -51.134  26.129  33.488  0.00  0.00     0.019 A 
ATOM      7  C   UNL d   1     -51.516  26.851  33.326  0.00  0.00     0.002 A 
ATOM      8  C   UNL d   1     -51.072  27.550  33.307  0.00  0.00     0.011 A 
ATOM      9  C   UNL d   1     -50.252  27.523  33.449  0.00  0.00     0.058 A 
ATOM     10  C   UNL d   1     -49.887  26.798  33.608  0.00  0.00     0.011 A 
ATOM     11 CL   UNL d   1     -49.804  28.236  33.429  0.00  0.00    -0.082 Cl
ATOM     12  C   UNL d   1     -50.327  26.108  33.627  0.00  0.00     0.002 A 
ENDBRANCH   5   6
BRANCH   1  13
ATOM     13  C   UNL d   1     -53.279  23.818  33.772  0.00  0.00     0.316 C 
ATOM     14  O   UNL d   1     -53.930  23.848  33.321  0.00  0.00    -0.257 OA
BRANCH  13  15
ATOM     15  O   UNL d   1     -53.185  23.227  34.338  0.00  0.00    -0.294 OA
ATOM     16  C   UNL d   1     -53.687  23.217  35.020  0.00  0.00     0.185 C 
ENDBRANCH  13  15
ENDBRANCH   1  13
TORSDOF 3
ENDMDL
MODEL 2
REMARK VINA RESULT:      24.4      1.189      1.686
REMARK  3 active torsions:
REMARK  status: ('A' for Active; 'I' for Inactive)
REMARK    1  A    between atoms: C_6  and  C_1 
REMARK    2  A    between atoms: C_7  and  C_5 
REMARK    3  A    between atoms: O_11  and  C_6 
ROOT
ATOM      1  C   UNL d   1     -53.010  24.128  33.470  0.00  0.00     0.167 A 
ATOM      2  C   UNL d   1     -52.787  24.880  33.466  0.00  0.00     0.047 A 
ATOM      3  N   UNL d   1     -51.713  23.743  33.421  0.00  0.00    -0.148 NA
ATOM      4  N   UNL d   1     -52.469  23.554  33.447  0.00  0.00    -0.143 NA
ATOM      5  C   UNL d   1     -51.488  24.502  33.417  0.00  0.00     0.105 A 
ENDROOT
BRANCH   5   6
ATOM      6  C   UNL d   1     -50.760  24.890  33.393  0.00  0.00     0.019 A 
ATOM      7  C   UNL d   1     -50.065  24.435  33.338  0.00  0.00     0.002 A 
ATOM      8  C   UNL d   1     -49.330  24.817  33.314  0.00  0.00     0.011 A 
ATOM      9  C   UNL d   1     -49.295  25.648  33.343  0.00  0.00     0.058 A 
ATOM     10  C   UNL d   1     -49.994  26.087  33.397  0.00  0.00     0.011 A 
ATOM     11 CL   UNL d   1     -48.546  26.034  33.317  0.00  0.00    -0.082 Cl
ATOM     12  C   UNL d   1     -50.720  25.707  33.421  0.00  0.00     0.002 A 
ENDBRANCH   5   6
BRANCH   1  13
ATOM     13  C   UNL d   1     -53.779  23.943  33.497  0.00  0.00     0.316 C 
ATOM     14  O   UNL d   1     -54.012  23.197  33.373  0.00  0.00    -0.257 OA
BRANCH  13  15
ATOM     15  O   UNL d   1     -54.328  24.536  33.656  0.00  0.00    -0.294 OA
ATOM     16  C   UNL d   1     -55.108  24.483  33.328  0.00  0.00     0.185 C 
ENDBRANCH  13  15
ENDBRANCH   1  13
TORSDOF 3
ENDMDL
MODEL 3
REMARK VINA RESULT:      25.1      0.827      1.113
REMARK  3 active torsions:
REMARK  status: ('A' for Active; 'I' for Inactive)
REMARK    1  A    between atoms: C_6  and  C_1 
REMARK    2  A    between atoms: C_7  and  C_5 
REMARK    3  A    between atoms: O_11  and  C_6 
ROOT
ATOM      1  C   UNL d   1     -51.877  24.722  33.433  0.00  0.00     0.167 A 
ATOM      2  C   UNL d   1     -52.289  25.388  33.465  0.00  0.00     0.047 A 
ATOM      3  N   UNL d   1     -50.727  25.434  33.383  0.00  0.00    -0.148 NA
ATOM      4  N   UNL d   1     -51.090  24.744  33.392  0.00  0.00    -0.143 NA
ATOM      5  C   UNL d   1     -51.143  26.108  33.416  0.00  0.00     0.105 A 
ENDROOT
BRANCH   5   6
ATOM      6  C   UNL d   1     -50.947  26.909  33.418  0.00  0.00     0.019 A 
ATOM      7  C   UNL d   1     -51.553  27.470  33.315  0.00  0.00     0.002 A 
ATOM      8  C   UNL d   1     -51.366  28.277  33.316  0.00  0.00     0.011 A 
ATOM      9  C   UNL d   1     -50.575  28.517  33.420  0.00  0.00     0.058 A 
ATOM     10  C   UNL d   1     -49.984  27.948  33.521  0.00  0.00     0.011 A 
ATOM     11 CL   UNL d   1     -50.387  29.338  33.420  0.00  0.00    -0.082 Cl
ATOM     12  C   UNL d   1     -50.171  27.151  33.520  0.00  0.00     0.002 A 
ENDBRANCH   5   6
BRANCH   1  13
ATOM     13  C   UNL d   1     -52.251  24.024  33.442  0.00  0.00     0.316 C 
ATOM     14  O   UNL d   1     -51.842  23.354  33.336  0.00  0.00    -0.257 OA
BRANCH  13  15
ATOM     15  O   UNL d   1     -53.065  24.008  33.562  0.00  0.00    -0.294 OA
ATOM     16  C   UNL d   1     -53.443  23.277  33.765  0.00  0.00     0.185 C 
ENDBRANCH  13  15
ENDBRANCH   1  13
TORSDOF 3
ENDMDL
