MODEL 1
REMARK VINA RESULT:      -2.2      0.000      0.000
REMARK  6 active torsions:
REMARK  status: ('A' for Active; 'I' for Inactive)
REMARK    1  A    between atoms: C_6  and  N_2 
REMARK    2  A    between atoms: C_7  and  C_3 
REMARK    3  A    between atoms: C_8  and  C_6 
REMARK    4  A    between atoms: C_14  and  C_8 
REMARK    5  A    between atoms: C_9  and  O_12 
REMARK    6  A    between atoms: O_12  and  C_14 
ROOT
ATOM      1  N   UNL d   1      32.830  22.236 -20.915  0.00  0.00    -0.224 NA
ATOM      2  N   UNL d   1      33.107  21.278 -21.808  0.00  0.00    -0.286 N 
ATOM      3  C   UNL d   1      32.956  21.412 -20.995  0.00  0.00     0.191 A 
ATOM      4  C   UNL d   1      33.075  21.991 -22.208  0.00  0.00     0.083 A 
ATOM      5  C   UNL d   1      32.896  22.610 -21.630  0.00  0.00     0.099 A 
ATOM      6  C   UNL d   1      33.179  22.170 -22.995  0.00  0.00     0.019 A 
ATOM      7  C   UNL d   1      32.841  23.385 -21.936  0.00  0.00     0.021 A 
ATOM      8  C   UNL d   1      33.110  22.945 -23.220  0.00  0.00     0.002 A 
ATOM      9  C   UNL d   1      32.944  23.523 -22.680  0.00  0.00     0.002 A 
ENDROOT
BRANCH   2  10
ATOM     10  C   UNL d   1      33.241  20.512 -21.990  0.00  0.00     0.084 C 
BRANCH  10  11
ATOM     11  C   UNL d   1      32.893  20.141 -22.639  0.00  0.00     0.046 C 
BRANCH  11  12
ATOM     12  C   UNL d   1      33.014  19.354 -22.828  0.00  0.00     0.124 C 
BRANCH  12  13
ATOM     13  O   UNL d   1      32.846  19.039 -23.562  0.00  0.00    -0.305 OA
BRANCH  13  14
ATOM     14  C   UNL d   1      32.632  18.252 -23.681  0.00  0.00     0.100 A 
ATOM     15  C   UNL d   1      33.164  17.623 -23.641  0.00  0.00     0.025 A 
ATOM     16  C   UNL d   1      32.950  16.837 -23.760  0.00  0.00     0.002 A 
ATOM     17  C   UNL d   1      32.147  16.667 -23.931  0.00  0.00     0.000 A 
ATOM     18  C   UNL d   1      31.588  17.288 -23.976  0.00  0.00     0.002 A 
ATOM     19  C   UNL d   1      31.830  18.082 -23.852  0.00  0.00     0.025 A 
ENDBRANCH  13  14
ENDBRANCH  12  13
ENDBRANCH  11  12
ENDBRANCH  10  11
ENDBRANCH   2  10
BRANCH   3  20
ATOM     20  C   UNL d   1      33.024  20.637 -20.770  0.00  0.00     0.271 C 
ATOM     21  O   UNL d   1      32.930  20.439 -19.959  0.00  0.00    -0.280 OA
ENDBRANCH   3  20
TORSDOF 6
ENDMDL
MODEL 2
REMARK VINA RESULT:      -1.6      1.848      2.760
REMARK  6 active torsions:
REMARK  status: ('A' for Active; 'I' for Inactive)
REMARK    1  A    between atoms: C_6  and  N_2 
REMARK    2  A    between atoms: C_7  and  C_3 
REMARK    3  A    between atoms: C_8  and  C_6 
REMARK    4  A    between atoms: C_14  and  C_8 
REMARK    5  A    between atoms: C_9  and  O_12 
REMARK    6  A    between atoms: O_12  and  C_14 
ROOT
ATOM      1  N   UNL d   1      31.925  23.629 -20.256  0.00  0.00    -0.224 NA
ATOM      2  N   UNL d   1      32.793  22.637 -20.483  0.00  0.00    -0.286 N 
ATOM      3  C   UNL d   1      32.244  23.145 -20.860  0.00  0.00     0.191 A 
ATOM      4  C   UNL d   1      32.809  22.805 -19.683  0.00  0.00     0.083 A 
ATOM      5  C   UNL d   1      32.248  23.446 -19.536  0.00  0.00     0.099 A 
ATOM      6  C   UNL d   1      33.241  22.478 -19.075  0.00  0.00     0.019 A 
ATOM      7  C   UNL d   1      32.185  23.698 -18.743  0.00  0.00     0.021 A 
ATOM      8  C   UNL d   1      33.128  22.773 -18.329  0.00  0.00     0.002 A 
ATOM      9  C   UNL d   1      32.603  23.373 -18.192  0.00  0.00     0.002 A 
ENDROOT
BRANCH   2  10
ATOM     10  C   UNL d   1      33.157  22.128 -20.980  0.00  0.00     0.084 C 
BRANCH  10  11
ATOM     11  C   UNL d   1      33.005  21.317 -20.978  0.00  0.00     0.046 C 
BRANCH  11  12
ATOM     12  C   UNL d   1      33.226  20.815 -21.586  0.00  0.00     0.124 C 
BRANCH  12  13
ATOM     13  O   UNL d   1      32.934  20.057 -21.667  0.00  0.00    -0.305 OA
BRANCH  13  14
ATOM     14  C   UNL d   1      33.023  19.607 -22.352  0.00  0.00     0.100 A 
ATOM     15  C   UNL d   1      33.140  19.933 -23.101  0.00  0.00     0.025 A 
ATOM     16  C   UNL d   1      33.228  19.484 -23.784  0.00  0.00     0.002 A 
ATOM     17  C   UNL d   1      33.197  18.649 -23.717  0.00  0.00     0.000 A 
ATOM     18  C   UNL d   1      33.079  18.294 -22.968  0.00  0.00     0.002 A 
ATOM     19  C   UNL d   1      32.992  18.773 -22.285  0.00  0.00     0.025 A 
ENDBRANCH  13  14
ENDBRANCH  12  13
ENDBRANCH  11  12
ENDBRANCH  10  11
ENDBRANCH   2  10
BRANCH   3  20
ATOM     20  C   UNL d   1      32.357  22.849 -21.606  0.00  0.00     0.271 C 
ATOM     21  O   UNL d   1      32.174  23.334 -22.267  0.00  0.00    -0.280 OA
ENDBRANCH   3  20
TORSDOF 6
ENDMDL
MODEL 3
REMARK VINA RESULT:       0.2      1.295      2.051
REMARK  6 active torsions:
REMARK  status: ('A' for Active; 'I' for Inactive)
REMARK    1  A    between atoms: C_6  and  N_2 
REMARK    2  A    between atoms: C_7  and  C_3 
REMARK    3  A    between atoms: C_8  and  C_6 
REMARK    4  A    between atoms: C_14  and  C_8 
REMARK    5  A    between atoms: C_9  and  O_12 
REMARK    6  A    between atoms: O_12  and  C_14 
ROOT
ATOM      1  N   UNL d   1      32.752  23.524 -21.830  0.00  0.00    -0.224 NA
ATOM      2  N   UNL d   1      33.059  22.226 -21.931  0.00  0.00    -0.286 N 
ATOM      3  C   UNL d   1      32.933  22.921 -22.382  0.00  0.00     0.191 A 
ATOM      4  C   UNL d   1      32.960  22.398 -21.138  0.00  0.00     0.083 A 
ATOM      5  C   UNL d   1      32.761  23.238 -21.072  0.00  0.00     0.099 A 
ATOM      6  C   UNL d   1      33.018  21.929 -20.475  0.00  0.00     0.019 A 
ATOM      7  C   UNL d   1      32.637  23.521 -20.297  0.00  0.00     0.021 A 
ATOM      8  C   UNL d   1      32.884  22.273 -19.754  0.00  0.00     0.002 A 
ATOM      9  C   UNL d   1      32.699  23.057 -19.693  0.00  0.00     0.002 A 
ENDROOT
BRANCH   2  10
ATOM     10  C   UNL d   1      33.241  21.584 -22.371  0.00  0.00     0.084 C 
BRANCH  10  11
ATOM     11  C   UNL d   1      33.039  20.817 -22.144  0.00  0.00     0.046 C 
BRANCH  11  12
ATOM     12  C   UNL d   1      33.198  20.156 -22.599  0.00  0.00     0.124 C 
BRANCH  12  13
ATOM     13  O   UNL d   1      33.002  19.397 -22.368  0.00  0.00    -0.305 OA
BRANCH  13  14
ATOM     14  C   UNL d   1      33.005  18.752 -22.881  0.00  0.00     0.100 A 
ATOM     15  C   UNL d   1      32.807  18.801 -23.680  0.00  0.00     0.025 A 
ATOM     16  C   UNL d   1      32.811  18.156 -24.191  0.00  0.00     0.002 A 
ATOM     17  C   UNL d   1      33.028  17.408 -23.883  0.00  0.00     0.000 A 
ATOM     18  C   UNL d   1      33.233  17.332 -23.075  0.00  0.00     0.002 A 
ATOM     19  C   UNL d   1      33.222  18.003 -22.573  0.00  0.00     0.025 A 
ENDBRANCH  13  14
ENDBRANCH  12  13
ENDBRANCH  11  12
ENDBRANCH  10  11
ENDBRANCH   2  10
BRANCH   3  20
ATOM     20  C   UNL d   1      33.067  22.577 -23.103  0.00  0.00     0.271 C 
ATOM     21  O   UNL d   1      32.889  23.011 -23.799  0.00  0.00    -0.280 OA
ENDBRANCH   3  20
TORSDOF 6
ENDMDL
