MODEL 1
REMARK VINA RESULT:      -5.4      0.000      0.000
REMARK  5 active torsions:
REMARK  status: ('A' for Active; 'I' for Inactive)
REMARK    1  A    between atoms: C_7  and  N_2 
REMARK    2  A    between atoms: C_14  and  C_7 
REMARK    3  A    between atoms: C_8  and  O_16 
REMARK    4  A    between atoms: C_18  and  C_14 
REMARK    5  A    between atoms: O_16  and  C_18 
ROOT
ATOM      1  C   UNL d   1      58.708  -0.681  29.322  0.00  0.00     0.086 C 
ENDROOT
BRANCH   1   2
ATOM      2  N   UNL d   1      59.382  -1.135  29.199  0.00  0.00    -0.268 N 
ATOM      3  C   UNL d   1      60.158  -0.857  29.204  0.00  0.00     0.296 A 
ATOM      4  S   UNL d   1      60.660  -1.505  29.055  0.00  0.00    -0.025 SA
ATOM      5  O   UNL d   1      60.403  -0.080  29.332  0.00  0.00    -0.259 OA
ATOM      6  C   UNL d   1      60.183  -2.172  28.961  0.00  0.00     0.050 A 
ATOM      7  C   UNL d   1      60.369  -2.973  28.802  0.00  0.00     0.008 A 
ATOM      8  C   UNL d   1      59.399  -1.950  29.048  0.00  0.00     0.073 A 
ATOM      9  C   UNL d   1      59.765  -3.527  28.736  0.00  0.00     0.001 A 
ATOM     10  C   UNL d   1      58.975  -3.292  28.826  0.00  0.00     0.002 A 
ATOM     11  C   UNL d   1      58.789  -2.504  28.982  0.00  0.00     0.018 A 
ENDBRANCH   1   2
BRANCH   1  12
ATOM     12  C   UNL d   1      58.472  -0.480  30.093  0.00  0.00     0.046 C 
BRANCH  12  13
ATOM     13  C   UNL d   1      57.829   0.019  30.220  0.00  0.00     0.124 C 
BRANCH  13  14
ATOM     14  O   UNL d   1      57.367  -0.067  30.891  0.00  0.00    -0.305 OA
BRANCH  14  15
ATOM     15  C   UNL d   1      56.899  -0.151  31.570  0.00  0.00     0.100 A 
ATOM     16  C   UNL d   1      56.638   0.514  31.954  0.00  0.00     0.025 A 
ATOM     17  C   UNL d   1      56.169   0.440  32.635  0.00  0.00     0.002 A 
ATOM     18  C   UNL d   1      55.972  -0.314  32.915  0.00  0.00     0.000 A 
ATOM     19  C   UNL d   1      56.244  -0.982  32.516  0.00  0.00     0.002 A 
ATOM     20  C   UNL d   1      55.509  -0.394  33.586  0.00  0.00     0.000 C 
ATOM     21  C   UNL d   1      56.706  -0.902  31.845  0.00  0.00     0.025 A 
ENDBRANCH  14  15
ENDBRANCH  13  14
ENDBRANCH  12  13
ENDBRANCH   1  12
TORSDOF 5
ENDMDL
MODEL 2
REMARK VINA RESULT:      -4.0      1.785      2.237
REMARK  5 active torsions:
REMARK  status: ('A' for Active; 'I' for Inactive)
REMARK    1  A    between atoms: C_7  and  N_2 
REMARK    2  A    between atoms: C_14  and  C_7 
REMARK    3  A    between atoms: C_8  and  O_16 
REMARK    4  A    between atoms: C_18  and  C_14 
REMARK    5  A    between atoms: O_16  and  C_18 
ROOT
ATOM      1  C   UNL d   1      58.355  -0.651  30.155  0.00  0.00     0.086 C 
ENDROOT
BRANCH   1   2
ATOM      2  N   UNL d   1      58.674  -0.170  29.568  0.00  0.00    -0.268 N 
ATOM      3  C   UNL d   1      58.243   0.287  29.033  0.00  0.00     0.296 A 
ATOM      4  S   UNL d   1      58.789   0.682  28.543  0.00  0.00    -0.025 SA
ATOM      5  O   UNL d   1      57.423   0.347  28.984  0.00  0.00    -0.259 OA
ATOM      6  C   UNL d   1      59.547   0.461  28.786  0.00  0.00     0.050 A 
ATOM      7  C   UNL d   1      60.306   0.675  28.506  0.00  0.00     0.008 A 
ATOM      8  C   UNL d   1      59.481  -0.061  29.414  0.00  0.00     0.073 A 
ATOM      9  C   UNL d   1      60.976   0.361  28.864  0.00  0.00     0.001 A 
ATOM     10  C   UNL d   1      60.899  -0.167  29.499  0.00  0.00     0.002 A 
ATOM     11  C   UNL d   1      60.152  -0.379  29.776  0.00  0.00     0.018 A 
ENDBRANCH   1   2
BRANCH   1  12
ATOM     12  C   UNL d   1      57.772  -0.356  30.669  0.00  0.00     0.046 C 
BRANCH  12  13
ATOM     13  C   UNL d   1      57.369  -0.860  31.182  0.00  0.00     0.124 C 
BRANCH  13  14
ATOM     14  O   UNL d   1      56.968  -0.556  31.827  0.00  0.00    -0.305 OA
BRANCH  14  15
ATOM     15  C   UNL d   1      56.562  -0.244  32.479  0.00  0.00     0.100 A 
ATOM     16  C   UNL d   1      55.782  -0.438  32.588  0.00  0.00     0.025 A 
ATOM     17  C   UNL d   1      55.367  -0.131  33.239  0.00  0.00     0.002 A 
ATOM     18  C   UNL d   1      55.755   0.370  33.770  0.00  0.00     0.000 A 
ATOM     19  C   UNL d   1      56.548   0.560  33.650  0.00  0.00     0.002 A 
ATOM     20  C   UNL d   1      55.352   0.677  34.414  0.00  0.00     0.000 C 
ATOM     21  C   UNL d   1      56.952   0.254  33.006  0.00  0.00     0.025 A 
ENDBRANCH  14  15
ENDBRANCH  13  14
ENDBRANCH  12  13
ENDBRANCH   1  12
TORSDOF 5
ENDMDL
MODEL 3
REMARK VINA RESULT:      -3.9      2.250      5.245
REMARK  5 active torsions:
REMARK  status: ('A' for Active; 'I' for Inactive)
REMARK    1  A    between atoms: C_7  and  N_2 
REMARK    2  A    between atoms: C_14  and  C_7 
REMARK    3  A    between atoms: C_8  and  O_16 
REMARK    4  A    between atoms: C_18  and  C_14 
REMARK    5  A    between atoms: O_16  and  C_18 
ROOT
ATOM      1  C   UNL d   1      56.956   0.346  31.763  0.00  0.00     0.086 C 
ENDROOT
BRANCH   1   2
ATOM      2  N   UNL d   1      56.545  -0.199  32.222  0.00  0.00    -0.268 N 
ATOM      3  C   UNL d   1      56.490  -1.009  32.074  0.00  0.00     0.296 A 
ATOM      4  S   UNL d   1      56.023  -1.344  32.677  0.00  0.00    -0.025 SA
ATOM      5  O   UNL d   1      56.832  -1.420  31.447  0.00  0.00    -0.259 OA
ATOM      6  C   UNL d   1      55.799  -0.734  33.186  0.00  0.00     0.050 A 
ATOM      7  C   UNL d   1      55.334  -0.731  33.882  0.00  0.00     0.008 A 
ATOM      8  C   UNL d   1      56.117  -0.030  32.911  0.00  0.00     0.073 A 
ATOM      9  C   UNL d   1      55.201  -0.025  34.281  0.00  0.00     0.001 A 
ATOM     10  C   UNL d   1      55.527   0.682  33.995  0.00  0.00     0.002 A 
ATOM     11  C   UNL d   1      55.986   0.681  33.309  0.00  0.00     0.018 A 
ENDBRANCH   1   2
BRANCH   1  12
ATOM     12  C   UNL d   1      57.365   0.099  31.083  0.00  0.00     0.046 C 
BRANCH  12  13
ATOM     13  C   UNL d   1      57.645   0.650  30.537  0.00  0.00     0.124 C 
BRANCH  13  14
ATOM     14  O   UNL d   1      58.342   0.508  30.131  0.00  0.00    -0.305 OA
BRANCH  14  15
ATOM     15  C   UNL d   1      59.046   0.362  29.719  0.00  0.00     0.100 A 
ATOM     16  C   UNL d   1      59.021  -0.086  29.043  0.00  0.00     0.025 A 
ATOM     17  C   UNL d   1      59.722  -0.237  28.623  0.00  0.00     0.002 A 
ATOM     18  C   UNL d   1      60.438   0.070  28.899  0.00  0.00     0.000 A 
ATOM     19  C   UNL d   1      60.451   0.524  29.587  0.00  0.00     0.002 A 
ATOM     20  C   UNL d   1      61.132  -0.076  28.489  0.00  0.00     0.000 C 
ATOM     21  C   UNL d   1      59.757   0.670  29.997  0.00  0.00     0.025 A 
ENDBRANCH  14  15
ENDBRANCH  13  14
ENDBRANCH  12  13
ENDBRANCH   1  12
TORSDOF 5
ENDMDL
