MODEL 1
REMARK VINA RESULT:      -5.8      0.000      0.000
REMARK  1 active torsions:
REMARK  status: ('A' for Active; 'I' for Inactive)
REMARK       I    between atoms: N_2  and  C_1 
REMARK    1  A    between atoms: C_4  and  N_2 
ROOT
ATOM      1  C   UNL d   1     -48.984  11.698  22.820  0.00  0.00     0.101 A 
ATOM      2  C   UNL d   1     -49.666  11.746  23.283  0.00  0.00     0.031 A 
ATOM      3  C   UNL d   1     -50.338  12.135  22.988  0.00  0.00     0.059 A 
ATOM      4 CL   UNL d   1     -51.020  12.182  23.451  0.00  0.00    -0.082 Cl
ATOM      5  C   UNL d   1     -49.643  12.426  21.775  0.00  0.00     0.002 A 
ATOM      6  C   UNL d   1     -48.975  12.040  22.064  0.00  0.00     0.020 A 
ATOM      7  C   UNL d   1     -50.325  12.473  22.237  0.00  0.00     0.011 A 
ENDROOT
BRANCH   1   8
ATOM      8  N   UNL d   1     -48.313  11.313  23.106  0.00  0.00    -0.056 NA
ATOM      9  C   UNL d   1     -47.666  11.748  23.370  0.00  0.00     0.787 C 
ATOM     10  N   UNL d   1     -46.996  11.366  23.656  0.00  0.00     0.064 N 
ATOM     11  N   UNL d   1     -47.695  12.572  23.347  0.00  0.00     0.064 N 
ENDBRANCH   1   8
TORSDOF 1
ENDMDL
MODEL 2
REMARK VINA RESULT:      -5.8      2.247      3.078
REMARK  1 active torsions:
REMARK  status: ('A' for Active; 'I' for Inactive)
REMARK       I    between atoms: N_2  and  C_1 
REMARK    1  A    between atoms: C_4  and  N_2 
ROOT
ATOM      1  C   UNL d   1     -48.055  13.217  22.723  0.00  0.00     0.101 A 
ATOM      2  C   UNL d   1     -47.715  12.556  23.080  0.00  0.00     0.031 A 
ATOM      3  C   UNL d   1     -46.926  12.587  23.341  0.00  0.00     0.059 A 
ATOM      4 CL   UNL d   1     -46.585  11.926  23.698  0.00  0.00    -0.082 Cl
ATOM      5  C   UNL d   1     -46.826  13.938  22.885  0.00  0.00     0.002 A 
ATOM      6  C   UNL d   1     -47.608  13.910  22.626  0.00  0.00     0.020 A 
ATOM      7  C   UNL d   1     -46.486  13.277  23.242  0.00  0.00     0.011 A 
ENDROOT
BRANCH   1   8
ATOM      8  N   UNL d   1     -48.837  13.192  22.463  0.00  0.00    -0.056 NA
ATOM      9  C   UNL d   1     -49.008  13.004  21.680  0.00  0.00     0.787 C 
ATOM     10  N   UNL d   1     -49.788  12.979  21.417  0.00  0.00     0.064 N 
ATOM     11  N   UNL d   1     -48.390  12.841  21.158  0.00  0.00     0.064 N 
ENDBRANCH   1   8
TORSDOF 1
ENDMDL
MODEL 3
REMARK VINA RESULT:      -5.6      3.001      3.732
REMARK  1 active torsions:
REMARK  status: ('A' for Active; 'I' for Inactive)
REMARK       I    between atoms: N_2  and  C_1 
REMARK    1  A    between atoms: C_4  and  N_2 
ROOT
ATOM      1  C   UNL d   1     -47.404  13.957  22.951  0.00  0.00     0.101 A 
ATOM      2  C   UNL d   1     -46.666  14.033  22.590  0.00  0.00     0.031 A 
ATOM      3  C   UNL d   1     -46.137  13.392  22.592  0.00  0.00     0.059 A 
ATOM      4 CL   UNL d   1     -45.399  13.468  22.231  0.00  0.00    -0.082 Cl
ATOM      5  C   UNL d   1     -47.087  12.607  23.315  0.00  0.00     0.002 A 
ATOM      6  C   UNL d   1     -47.613  13.240  23.315  0.00  0.00     0.020 A 
ATOM      7  C   UNL d   1     -46.349  12.683  22.954  0.00  0.00     0.011 A 
ENDROOT
BRANCH   1   8
ATOM      8  N   UNL d   1     -47.933  14.589  22.953  0.00  0.00    -0.056 NA
ATOM      9  C   UNL d   1     -48.568  14.601  22.428  0.00  0.00     0.787 C 
ATOM     10  N   UNL d   1     -49.097  15.231  22.428  0.00  0.00     0.064 N 
ATOM     11  N   UNL d   1     -48.669  13.975  21.901  0.00  0.00     0.064 N 
ENDBRANCH   1   8
TORSDOF 1
ENDMDL
MODEL 4
REMARK VINA RESULT:      -5.6      1.699      2.476
REMARK  1 active torsions:
REMARK  status: ('A' for Active; 'I' for Inactive)
REMARK       I    between atoms: N_2  and  C_1 
REMARK    1  A    between atoms: C_4  and  N_2 
ROOT
ATOM      1  C   UNL d   1     -47.385  12.806  23.323  0.00  0.00     0.101 A 
ATOM      2  C   UNL d   1     -48.115  12.675  22.961  0.00  0.00     0.031 A 
ATOM      3  C   UNL d   1     -48.449  11.914  22.969  0.00  0.00     0.059 A 
ATOM      4 CL   UNL d   1     -49.179  11.783  22.607  0.00  0.00    -0.082 Cl
ATOM      5  C   UNL d   1     -47.322  11.423  23.698  0.00  0.00     0.002 A 
ATOM      6  C   UNL d   1     -46.989  12.176  23.692  0.00  0.00     0.020 A 
ATOM      7  C   UNL d   1     -48.052  11.292  23.336  0.00  0.00     0.011 A 
ENDROOT
BRANCH   1   8
ATOM      8  N   UNL d   1     -47.048  13.558  23.319  0.00  0.00    -0.056 NA
ATOM      9  C   UNL d   1     -46.455  13.745  22.779  0.00  0.00     0.787 C 
ATOM     10  N   UNL d   1     -46.117  14.495  22.773  0.00  0.00     0.064 N 
ATOM     11  N   UNL d   1     -46.201  13.172  22.242  0.00  0.00     0.064 N 
ENDBRANCH   1   8
TORSDOF 1
ENDMDL
MODEL 5
REMARK VINA RESULT:      -5.4      1.858      2.119
REMARK  1 active torsions:
REMARK  status: ('A' for Active; 'I' for Inactive)
REMARK       I    between atoms: N_2  and  C_1 
REMARK    1  A    between atoms: C_4  and  N_2 
ROOT
ATOM      1  C   UNL d   1     -47.704  13.269  22.431  0.00  0.00     0.101 A 
ATOM      2  C   UNL d   1     -47.892  14.025  22.702  0.00  0.00     0.031 A 
ATOM      3  C   UNL d   1     -48.553  14.423  22.393  0.00  0.00     0.059 A 
ATOM      4 CL   UNL d   1     -48.741  15.179  22.664  0.00  0.00    -0.082 Cl
ATOM      5  C   UNL d   1     -48.831  13.307  21.545  0.00  0.00     0.002 A 
ATOM      6  C   UNL d   1     -48.176  12.911  21.850  0.00  0.00     0.020 A 
ATOM      7  C   UNL d   1     -49.019  14.063  21.816  0.00  0.00     0.011 A 
ENDROOT
BRANCH   1   8
ATOM      8  N   UNL d   1     -47.050  12.869  22.734  0.00  0.00    -0.056 NA
ATOM      9  C   UNL d   1     -47.148  12.286  23.306  0.00  0.00     0.787 C 
ATOM     10  N   UNL d   1     -46.496  11.885  23.610  0.00  0.00     0.064 N 
ATOM     11  N   UNL d   1     -47.907  12.104  23.573  0.00  0.00     0.064 N 
ENDBRANCH   1   8
TORSDOF 1
ENDMDL
