MODEL 1
REMARK VINA RESULT:      -3.7      0.000      0.000
REMARK  3 active torsions:
REMARK  status: ('A' for Active; 'I' for Inactive)
REMARK    1  A    between atoms: C_4  and  S_13 
REMARK    2  A    between atoms: C_16  and  C_6 
REMARK    3  A    between atoms: S_13  and  C_16 
ROOT
ATOM      1  C   UNL d   1      32.890  20.422 -21.378  0.00  0.00     0.059 C 
ENDROOT
BRANCH   1   2
ATOM      2  S   UNL d   1      33.232  20.371 -22.111  0.00  0.00    -0.046 SA
BRANCH   2   3
ATOM      3  C   UNL d   1      33.178  19.662 -22.528  0.00  0.00     0.194 A 
ATOM      4  N   UNL d   1      33.170  18.871 -22.299  0.00  0.00    -0.220 NA
ATOM      5  C   UNL d   1      33.106  18.410 -22.971  0.00  0.00     0.101 A 
ATOM      6  C   UNL d   1      33.072  17.599 -23.069  0.00  0.00     0.021 A 
ATOM      7  C   UNL d   1      33.075  18.896 -23.603  0.00  0.00     0.101 A 
ATOM      8  C   UNL d   1      33.007  17.265 -23.808  0.00  0.00     0.002 A 
ATOM      9  C   UNL d   1      32.973  17.754 -24.484  0.00  0.00     0.002 A 
ATOM     10  C   UNL d   1      33.008  18.593 -24.375  0.00  0.00     0.021 A 
ATOM     11  N   UNL d   1      33.118  19.694 -23.359  0.00  0.00    -0.220 NA
ENDBRANCH   2   3
ENDBRANCH   1   2
BRANCH   1  12
ATOM     12  C   UNL d   1      32.856  21.144 -21.000  0.00  0.00     0.107 A 
ATOM     13  C   UNL d   1      32.458  21.808 -21.250  0.00  0.00     0.101 A 
ATOM     14  N   UNL d   1      32.556  22.426 -20.717  0.00  0.00    -0.289 N 
ATOM     15  C   UNL d   1      33.035  22.135 -20.106  0.00  0.00     0.148 A 
ATOM     16  C   UNL d   1      32.285  23.216 -20.685  0.00  0.00     0.066 A 
ATOM     17  N   UNL d   1      33.226  21.342 -20.273  0.00  0.00    -0.226 NA
ATOM     18  C   UNL d   1      33.241  22.623 -19.474  0.00  0.00     0.037 A 
ATOM     19  C   UNL d   1      32.966  23.412 -19.449  0.00  0.00     0.005 A 
ATOM     20  C   UNL d   1      32.487  23.702 -20.059  0.00  0.00     0.018 A 
ATOM     21  C   UNL d   1      31.802  23.505 -21.302  0.00  0.00     0.019 C 
ENDBRANCH   1  12
TORSDOF 3
ENDMDL
MODEL 2
REMARK VINA RESULT:      -3.7      1.130      5.261
REMARK  3 active torsions:
REMARK  status: ('A' for Active; 'I' for Inactive)
REMARK    1  A    between atoms: C_4  and  S_13 
REMARK    2  A    between atoms: C_16  and  C_6 
REMARK    3  A    between atoms: S_13  and  C_16 
ROOT
ATOM      1  C   UNL d   1      32.903  19.474 -22.883  0.00  0.00     0.059 C 
ENDROOT
BRANCH   1   2
ATOM      2  S   UNL d   1      32.915  19.676 -22.099  0.00  0.00    -0.046 SA
BRANCH   2   3
ATOM      3  C   UNL d   1      32.898  20.474 -21.891  0.00  0.00     0.194 A 
ATOM      4  N   UNL d   1      33.237  21.150 -22.218  0.00  0.00    -0.220 NA
ATOM      5  C   UNL d   1      33.019  21.793 -21.761  0.00  0.00     0.101 A 
ATOM      6  C   UNL d   1      33.195  22.588 -21.829  0.00  0.00     0.021 A 
ATOM      7  C   UNL d   1      32.557  21.528 -21.167  0.00  0.00     0.101 A 
ATOM      8  C   UNL d   1      32.908  23.131 -21.295  0.00  0.00     0.002 A 
ATOM      9  C   UNL d   1      32.422  22.878 -20.665  0.00  0.00     0.002 A 
ATOM     10  C   UNL d   1      32.244  22.053 -20.602  0.00  0.00     0.021 A 
ATOM     11  N   UNL d   1      32.460  20.701 -21.219  0.00  0.00    -0.220 NA
ENDBRANCH   2   3
ENDBRANCH   1   2
BRANCH   1  12
ATOM     12  C   UNL d   1      32.775  18.698 -23.097  0.00  0.00     0.107 A 
ATOM     13  C   UNL d   1      32.174  18.414 -23.568  0.00  0.00     0.101 A 
ATOM     14  N   UNL d   1      32.232  17.599 -23.656  0.00  0.00    -0.289 N 
ATOM     15  C   UNL d   1      32.897  17.362 -23.221  0.00  0.00     0.148 A 
ATOM     16  C   UNL d   1      31.783  17.024 -24.065  0.00  0.00     0.066 A 
ATOM     17  N   UNL d   1      33.239  18.036 -22.871  0.00  0.00    -0.226 NA
ATOM     18  C   UNL d   1      33.111  16.566 -23.194  0.00  0.00     0.037 A 
ATOM     19  C   UNL d   1      32.658  15.998 -23.606  0.00  0.00     0.005 A 
ATOM     20  C   UNL d   1      31.994  16.235 -24.040  0.00  0.00     0.018 A 
ATOM     21  C   UNL d   1      31.114  17.268 -24.502  0.00  0.00     0.019 C 
ENDBRANCH   1  12
TORSDOF 3
ENDMDL
MODEL 3
REMARK VINA RESULT:      -3.3      1.032      1.579
REMARK  3 active torsions:
REMARK  status: ('A' for Active; 'I' for Inactive)
REMARK    1  A    between atoms: C_4  and  S_13 
REMARK    2  A    between atoms: C_16  and  C_6 
REMARK    3  A    between atoms: S_13  and  C_16 
ROOT
ATOM      1  C   UNL d   1      33.143  19.786 -22.235  0.00  0.00     0.059 C 
ENDROOT
BRANCH   1   2
ATOM      2  S   UNL d   1      32.870  19.527 -22.952  0.00  0.00    -0.046 SA
BRANCH   2   3
ATOM      3  C   UNL d   1      32.842  18.716 -23.100  0.00  0.00     0.194 A 
ATOM      4  N   UNL d   1      33.241  18.070 -22.781  0.00  0.00    -0.220 NA
ATOM      5  C   UNL d   1      32.976  17.394 -23.157  0.00  0.00     0.101 A 
ATOM      6  C   UNL d   1      33.179  16.608 -23.062  0.00  0.00     0.021 A 
ATOM      7  C   UNL d   1      32.428  17.609 -23.696  0.00  0.00     0.101 A 
ATOM      8  C   UNL d   1      32.831  16.025 -23.510  0.00  0.00     0.002 A 
ATOM      9  C   UNL d   1      32.255  16.225 -24.080  0.00  0.00     0.002 A 
ATOM     10  C   UNL d   1      32.050  17.042 -24.173  0.00  0.00     0.021 A 
ATOM     11  N   UNL d   1      32.319  18.437 -23.686  0.00  0.00    -0.220 NA
ENDBRANCH   2   3
ENDBRANCH   1   2
BRANCH   1  12
ATOM     12  C   UNL d   1      33.087  20.577 -22.045  0.00  0.00     0.107 A 
ATOM     13  C   UNL d   1      32.872  20.892 -21.326  0.00  0.00     0.101 A 
ATOM     14  N   UNL d   1      32.881  21.713 -21.352  0.00  0.00    -0.289 N 
ATOM     15  C   UNL d   1      33.111  21.922 -22.121  0.00  0.00     0.148 A 
ATOM     16  C   UNL d   1      32.715  22.316 -20.796  0.00  0.00     0.066 A 
ATOM     17  N   UNL d   1      33.241  21.224 -22.557  0.00  0.00    -0.226 NA
ATOM     18  C   UNL d   1      33.175  22.716 -22.333  0.00  0.00     0.037 A 
ATOM     19  C   UNL d   1      33.008  23.312 -21.771  0.00  0.00     0.005 A 
ATOM     20  C   UNL d   1      32.778  23.104 -21.003  0.00  0.00     0.018 A 
ATOM     21  C   UNL d   1      32.484  22.101 -20.023  0.00  0.00     0.019 C 
ENDBRANCH   1  12
TORSDOF 3
ENDMDL
