MODEL 1
REMARK VINA RESULT:      -4.9      0.000      0.000
REMARK  3 active torsions:
REMARK  status: ('A' for Active; 'I' for Inactive)
REMARK    1  A    between atoms: S_8  and  C_2 
REMARK       I    between atoms: N_6  and  C_7 
REMARK    2  A    between atoms: C_7  and  C_9 
REMARK    3  A    between atoms: C_9  and  S_8 
ROOT
ATOM      1  N   UNL d   1     -41.480-122.712 -51.638  0.00  0.00    -0.267 N 
ATOM      2  C   UNL d   1     -41.355-123.024 -52.395  0.00  0.00     0.272 C 
ATOM      3  O   UNL d   1     -41.123-123.817 -52.482  0.00  0.00    -0.266 OA
ATOM      4  O   UNL d   1     -41.731-122.088 -50.135  0.00  0.00    -0.300 OA
ATOM      5  C   UNL d   1     -41.376-123.186 -50.974  0.00  0.00     0.110 A 
ATOM      6  C   UNL d   1     -41.710-121.927 -51.552  0.00  0.00     0.110 A 
ATOM      7  C   UNL d   1     -41.836-121.615 -50.802  0.00  0.00     0.142 A 
ATOM      8  C   UNL d   1     -41.501-122.874 -50.221  0.00  0.00     0.142 A 
ENDROOT
BRANCH   2   9
ATOM      9  C   UNL d   1     -41.460-122.550 -53.062  0.00  0.00     0.099 C 
BRANCH   9  10
ATOM     10  S   UNL d   1     -41.412-122.882 -53.814  0.00  0.00    -0.041 SA
BRANCH  10  11
ATOM     11  C   UNL d   1     -41.700-122.471 -54.464  0.00  0.00     0.233 A 
ATOM     12  N   UNL d   1     -42.391-122.556 -54.914  0.00  0.00    -0.029 NA
ATOM     13  C   UNL d   1     -42.379-121.979 -55.501  0.00  0.00     0.788 A 
ATOM     14  N   UNL d   1     -41.698-121.540 -55.426  0.00  0.00     0.050 NA
ATOM     15  N   UNL d   1     -42.977-121.870 -56.080  0.00  0.00     0.064 N 
ATOM     16  N   UNL d   1     -41.269-121.839 -54.782  0.00  0.00    -0.105 NA
ENDBRANCH  10  11
ENDBRANCH   9  10
ENDBRANCH   2   9
TORSDOF 3
ENDMDL
MODEL 2
REMARK VINA RESULT:      -4.7      1.790      4.227
REMARK  3 active torsions:
REMARK  status: ('A' for Active; 'I' for Inactive)
REMARK    1  A    between atoms: S_8  and  C_2 
REMARK       I    between atoms: N_6  and  C_7 
REMARK    2  A    between atoms: C_7  and  C_9 
REMARK    3  A    between atoms: C_9  and  S_8 
ROOT
ATOM      1  N   UNL d   1     -41.315-122.623 -53.332  0.00  0.00    -0.267 N 
ATOM      2  C   UNL d   1     -41.262-122.239 -52.600  0.00  0.00     0.272 C 
ATOM      3  O   UNL d   1     -41.123-121.420 -52.572  0.00  0.00    -0.266 OA
ATOM      4  O   UNL d   1     -41.421-123.391 -54.785  0.00  0.00    -0.300 OA
ATOM      5  C   UNL d   1     -41.231-122.195 -54.029  0.00  0.00     0.110 A 
ATOM      6  C   UNL d   1     -41.452-123.434 -53.360  0.00  0.00     0.110 A 
ATOM      7  C   UNL d   1     -41.505-123.817 -54.084  0.00  0.00     0.142 A 
ATOM      8  C   UNL d   1     -41.284-122.580 -54.757  0.00  0.00     0.142 A 
ENDROOT
BRANCH   2   9
ATOM      9  C   UNL d   1     -41.346-122.667 -51.899  0.00  0.00     0.099 C 
BRANCH   9  10
ATOM     10  S   UNL d   1     -41.392-122.271 -51.179  0.00  0.00    -0.041 SA
BRANCH  10  11
ATOM     11  C   UNL d   1     -41.666-122.663 -50.512  0.00  0.00     0.233 A 
ATOM     12  N   UNL d   1     -42.420-122.722 -50.171  0.00  0.00    -0.029 NA
ATOM     13  C   UNL d   1     -42.353-123.194 -49.500  0.00  0.00     0.788 A 
ATOM     14  N   UNL d   1     -41.579-123.428 -49.417  0.00  0.00     0.050 NA
ATOM     15  N   UNL d   1     -42.990-123.396 -48.990  0.00  0.00     0.064 N 
ATOM     16  N   UNL d   1     -41.143-123.102 -50.043  0.00  0.00    -0.105 NA
ENDBRANCH  10  11
ENDBRANCH   9  10
ENDBRANCH   2   9
TORSDOF 3
ENDMDL
MODEL 3
REMARK VINA RESULT:      -4.6      1.069      1.385
REMARK  3 active torsions:
REMARK  status: ('A' for Active; 'I' for Inactive)
REMARK    1  A    between atoms: S_8  and  C_2 
REMARK       I    between atoms: N_6  and  C_7 
REMARK    2  A    between atoms: C_7  and  C_9 
REMARK    3  A    between atoms: C_9  and  S_8 
ROOT
ATOM      1  N   UNL d   1     -41.655-122.620 -50.850  0.00  0.00    -0.267 N 
ATOM      2  C   UNL d   1     -41.421-122.182 -51.514  0.00  0.00     0.272 C 
ATOM      3  O   UNL d   1     -41.123-121.413 -51.417  0.00  0.00    -0.266 OA
ATOM      4  O   UNL d   1     -42.121-123.492 -49.534  0.00  0.00    -0.300 OA
ATOM      5  C   UNL d   1     -41.592-122.293 -50.098  0.00  0.00     0.110 A 
ATOM      6  C   UNL d   1     -41.951-123.382 -50.945  0.00  0.00     0.110 A 
ATOM      7  C   UNL d   1     -42.183-123.817 -50.289  0.00  0.00     0.142 A 
ATOM      8  C   UNL d   1     -41.826-122.730 -49.438  0.00  0.00     0.142 A 
ENDROOT
BRANCH   2   9
ATOM      9  C   UNL d   1     -41.484-122.508 -52.269  0.00  0.00     0.099 C 
BRANCH   9  10
ATOM     10  S   UNL d   1     -41.160-122.114 -52.915  0.00  0.00    -0.041 SA
BRANCH  10  11
ATOM     11  C   UNL d   1     -41.438-122.268 -53.672  0.00  0.00     0.233 A 
ATOM     12  N   UNL d   1     -42.019-121.900 -54.137  0.00  0.00    -0.029 NA
ATOM     13  C   UNL d   1     -42.055-122.301 -54.854  0.00  0.00     0.788 A 
ATOM     14  N   UNL d   1     -41.514-122.908 -54.845  0.00  0.00     0.050 NA
ATOM     15  N   UNL d   1     -42.573-122.108 -55.487  0.00  0.00     0.064 N 
ATOM     16  N   UNL d   1     -41.124-122.895 -54.113  0.00  0.00    -0.105 NA
ENDBRANCH  10  11
ENDBRANCH   9  10
ENDBRANCH   2   9
TORSDOF 3
ENDMDL
MODEL 4
REMARK VINA RESULT:      -4.5      1.616      2.260
REMARK  3 active torsions:
REMARK  status: ('A' for Active; 'I' for Inactive)
REMARK    1  A    between atoms: S_8  and  C_2 
REMARK       I    between atoms: N_6  and  C_7 
REMARK    2  A    between atoms: C_7  and  C_9 
REMARK    3  A    between atoms: C_9  and  S_8 
ROOT
ATOM      1  N   UNL d   1     -41.940-122.885 -49.854  0.00  0.00    -0.267 N 
ATOM      2  C   UNL d   1     -42.056-122.493 -50.575  0.00  0.00     0.272 C 
ATOM      3  O   UNL d   1     -42.678-121.948 -50.653  0.00  0.00    -0.266 OA
ATOM      4  O   UNL d   1     -41.705-123.666 -48.424  0.00  0.00    -0.300 OA
ATOM      5  C   UNL d   1     -42.438-122.735 -49.219  0.00  0.00     0.110 A 
ATOM      6  C   UNL d   1     -41.324-123.425 -49.777  0.00  0.00     0.110 A 
ATOM      7  C   UNL d   1     -41.206-123.815 -49.064  0.00  0.00     0.142 A 
ATOM      8  C   UNL d   1     -42.321-123.126 -48.502  0.00  0.00     0.142 A 
ENDROOT
BRANCH   2   9
ATOM      9  C   UNL d   1     -41.556-122.643 -51.215  0.00  0.00     0.099 C 
BRANCH   9  10
ATOM     10  S   UNL d   1     -41.524-122.113 -51.844  0.00  0.00    -0.041 SA
BRANCH  10  11
ATOM     11  C   UNL d   1     -41.402-122.390 -52.608  0.00  0.00     0.233 A 
ATOM     12  N   UNL d   1     -41.432-123.151 -52.936  0.00  0.00    -0.029 NA
ATOM     13  C   UNL d   1     -41.258-123.084 -53.737  0.00  0.00     0.788 A 
ATOM     14  N   UNL d   1     -41.123-122.302 -53.914  0.00  0.00     0.050 NA
ATOM     15  N   UNL d   1     -41.229-123.726 -54.278  0.00  0.00     0.064 N 
ATOM     16  N   UNL d   1     -41.210-121.861 -53.216  0.00  0.00    -0.105 NA
ENDBRANCH  10  11
ENDBRANCH   9  10
ENDBRANCH   2   9
TORSDOF 3
ENDMDL
MODEL 5
REMARK VINA RESULT:      -4.3      1.507      3.984
REMARK  3 active torsions:
REMARK  status: ('A' for Active; 'I' for Inactive)
REMARK    1  A    between atoms: S_8  and  C_2 
REMARK       I    between atoms: N_6  and  C_7 
REMARK    2  A    between atoms: C_7  and  C_9 
REMARK    3  A    between atoms: C_9  and  S_8 
ROOT
ATOM      1  N   UNL d   1     -41.802-122.651 -54.107  0.00  0.00    -0.267 N 
ATOM      2  C   UNL d   1     -41.485-123.042 -53.448  0.00  0.00     0.272 C 
ATOM      3  O   UNL d   1     -41.133-123.789 -53.541  0.00  0.00    -0.266 OA
ATOM      4  O   UNL d   1     -42.434-121.872 -55.413  0.00  0.00    -0.300 OA
ATOM      5  C   UNL d   1     -41.769-123.002 -54.849  0.00  0.00     0.110 A 
ATOM      6  C   UNL d   1     -42.151-121.912 -54.015  0.00  0.00     0.110 A 
ATOM      7  C   UNL d   1     -42.466-121.522 -54.666  0.00  0.00     0.142 A 
ATOM      8  C   UNL d   1     -42.085-122.612 -55.504  0.00  0.00     0.142 A 
ENDROOT
BRANCH   2   9
ATOM      9  C   UNL d   1     -41.519-122.691 -52.702  0.00  0.00     0.099 C 
BRANCH   9  10
ATOM     10  S   UNL d   1     -41.126-123.038 -52.067  0.00  0.00    -0.041 SA
BRANCH  10  11
ATOM     11  C   UNL d   1     -41.407-122.932 -51.303  0.00  0.00     0.233 A 
ATOM     12  N   UNL d   1     -41.892-123.398 -50.818  0.00  0.00    -0.029 NA
ATOM     13  C   UNL d   1     -41.984-123.002 -50.103  0.00  0.00     0.788 A 
ATOM     14  N   UNL d   1     -41.567-122.304 -50.132  0.00  0.00     0.050 NA
ATOM     15  N   UNL d   1     -42.436-123.282 -49.453  0.00  0.00     0.064 N 
ATOM     16  N   UNL d   1     -41.204-122.252 -50.876  0.00  0.00    -0.105 NA
ENDBRANCH  10  11
ENDBRANCH   9  10
ENDBRANCH   2   9
TORSDOF 3
ENDMDL
MODEL 6
REMARK VINA RESULT:      -3.2      2.589      4.956
REMARK  3 active torsions:
REMARK  status: ('A' for Active; 'I' for Inactive)
REMARK    1  A    between atoms: S_8  and  C_2 
REMARK       I    between atoms: N_6  and  C_7 
REMARK    2  A    between atoms: C_7  and  C_9 
REMARK    3  A    between atoms: C_9  and  S_8 
ROOT
ATOM      1  N   UNL d   1     -41.468-122.441 -51.414  0.00  0.00    -0.267 N 
ATOM      2  C   UNL d   1     -41.628-123.035 -50.859  0.00  0.00     0.272 C 
ATOM      3  O   UNL d   1     -41.790-123.808 -51.116  0.00  0.00    -0.266 OA
ATOM      4  O   UNL d   1     -41.150-121.258 -52.514  0.00  0.00    -0.300 OA
ATOM      5  C   UNL d   1     -41.470-122.617 -52.217  0.00  0.00     0.110 A 
ATOM      6  C   UNL d   1     -41.308-121.675 -51.160  0.00  0.00     0.110 A 
ATOM      7  C   UNL d   1     -41.149-121.085 -51.708  0.00  0.00     0.142 A 
ATOM      8  C   UNL d   1     -41.310-122.024 -52.769  0.00  0.00     0.142 A 
ENDROOT
BRANCH   2   9
ATOM      9  C   UNL d   1     -41.627-122.860 -50.052  0.00  0.00     0.099 C 
BRANCH   9  10
ATOM     10  S   UNL d   1     -41.930-123.404 -49.514  0.00  0.00    -0.041 SA
BRANCH  10  11
ATOM     11  C   UNL d   1     -42.095-123.172 -48.744  0.00  0.00     0.233 A 
ATOM     12  N   UNL d   1     -41.605-122.957 -48.110  0.00  0.00    -0.029 NA
ATOM     13  C   UNL d   1     -42.090-122.777 -47.470  0.00  0.00     0.788 A 
ATOM     14  N   UNL d   1     -42.866-122.874 -47.691  0.00  0.00     0.050 NA
ATOM     15  N   UNL d   1     -41.817-122.533 -46.714  0.00  0.00     0.064 N 
ATOM     16  N   UNL d   1     -42.880-123.120 -48.483  0.00  0.00    -0.105 NA
ENDBRANCH  10  11
ENDBRANCH   9  10
ENDBRANCH   2   9
TORSDOF 3
ENDMDL
