MODEL 1
REMARK VINA RESULT:      31.2      0.000      0.000
REMARK  5 active torsions:
REMARK  status: ('A' for Active; 'I' for Inactive)
REMARK    1  A    between atoms: N_2  and  S_1 
REMARK    2  A    between atoms: C_8  and  S_1 
REMARK    3  A    between atoms: S_5  and  C_3 
REMARK    4  A    between atoms: C_13  and  S_5 
REMARK    5  A    between atoms: C_12  and  C_13 
ROOT
ATOM      1  N   UNL d   1     -56.966 -98.815 -44.756  0.00  0.00    -0.208 N 
ATOM      2  C   UNL d   1     -56.147 -98.907 -44.877  0.00  0.00     0.189 A 
ATOM      3  N   UNL d   1     -56.005 -98.905 -45.693  0.00  0.00    -0.219 NA
ATOM      4  C   UNL d   1     -57.330 -98.756 -45.505  0.00  0.00     0.114 A 
ATOM      5  C   UNL d   1     -56.735 -98.811 -46.077  0.00  0.00     0.121 A 
ENDROOT
BRANCH   1   6
ATOM      6  S   UNL d   1     -57.349 -98.787 -44.020  0.00  0.00     0.273 S 
ATOM      7  O   UNL d   1     -56.605 -98.772 -43.674  0.00  0.00    -0.200 OA
ATOM      8  O   UNL d   1     -57.490 -98.756 -43.202  0.00  0.00    -0.200 OA
BRANCH   6   9
ATOM      9  C   UNL d   1     -58.108 -98.802 -44.349  0.00  0.00     0.104 A 
ATOM     10  C   UNL d   1     -58.195 -98.756 -45.163  0.00  0.00     0.013 A 
ATOM     11  C   UNL d   1     -58.951 -98.771 -45.490  0.00  0.00     0.001 A 
ATOM     12  C   UNL d   1     -59.612 -98.831 -45.000  0.00  0.00     0.000 A 
ATOM     13  C   UNL d   1     -59.519 -98.878 -44.185  0.00  0.00     0.001 A 
ATOM     14  C   UNL d   1     -58.757 -98.863 -43.860  0.00  0.00     0.013 A 
ENDBRANCH   6   9
ENDBRANCH   1   6
BRANCH   2  15
ATOM     15  S   UNL d   1     -55.571 -98.987 -44.279  0.00  0.00    -0.049 SA
BRANCH  15  16
ATOM     16  C   UNL d   1     -54.876 -99.407 -44.432  0.00  0.00     0.040 C 
BRANCH  16  17
ATOM     17  C   UNL d   1     -54.852-100.221 -44.299  0.00  0.00     0.026 A 
ATOM     18  C   UNL d   1     -54.738-100.515 -43.518  0.00  0.00     0.099 A 
ATOM     19  N   UNL d   1     -54.712-101.324 -43.368  0.00  0.00    -0.242 NA
ATOM     20  C   UNL d   1     -54.799-101.846 -44.001  0.00  0.00     0.099 A 
ATOM     21  C   UNL d   1     -54.911-101.564 -44.769  0.00  0.00     0.021 A 
ATOM     22  C   UNL d   1     -54.937-100.751 -44.915  0.00  0.00     0.004 A 
ENDBRANCH  16  17
ENDBRANCH  15  16
ENDBRANCH   2  15
TORSDOF 5
ENDMDL
