MODEL 1
REMARK VINA RESULT:       8.9      0.000      0.000
REMARK  3 active torsions:
REMARK  status: ('A' for Active; 'I' for Inactive)
REMARK    1  A    between atoms: C_2  and  C_1 
REMARK    2  A    between atoms: N_5  and  C_2 
REMARK    3  A    between atoms: C_9  and  N_5 
ROOT
ATOM      1  C   UNL d   1      13.627  12.486  -2.784  0.00  0.00     0.139 C 
ATOM      2  S   UNL d   1      13.849  13.202  -2.427  0.00  0.00    -0.057 SA
ENDROOT
BRANCH   1   3
ATOM      3  C   UNL d   1      13.319  12.482  -3.552  0.00  0.00     0.074 A 
ATOM      4  C   UNL d   1      13.130  13.178  -4.021  0.00  0.00     0.129 A 
ATOM      5  O   UNL d   1      12.827  12.906  -4.778  0.00  0.00    -0.211 OA
ATOM      6  C   UNL d   1      13.224  13.955  -3.784  0.00  0.00     0.029 C 
ATOM      7  N   UNL d   1      12.829  12.050  -4.778  0.00  0.00    -0.125 NA
ATOM      8  C   UNL d   1      13.133  11.785  -4.020  0.00  0.00     0.132 A 
ENDBRANCH   1   3
BRANCH   1   9
ATOM      9  N   UNL d   1      13.714  11.781  -2.371  0.00  0.00    -0.235 NA
BRANCH   9  10
ATOM     10  C   UNL d   1      13.970  11.790  -1.590  0.00  0.00     0.082 A 
ATOM     11  C   UNL d   1      13.418  11.800  -0.981  0.00  0.00     0.019 A 
ATOM     12  C   UNL d   1      13.677  11.810  -0.205  0.00  0.00     0.002 A 
ATOM     13  C   UNL d   1      14.475  11.810  -0.036  0.00  0.00     0.000 A 
ATOM     14  C   UNL d   1      15.025  11.800  -0.652  0.00  0.00     0.002 A 
ATOM     15  C   UNL d   1      14.766  11.790  -1.435  0.00  0.00     0.019 A 
ENDBRANCH   9  10
ENDBRANCH   1   9
TORSDOF 3
ENDMDL
MODEL 2
REMARK VINA RESULT:       9.8      1.560      3.478
REMARK  3 active torsions:
REMARK  status: ('A' for Active; 'I' for Inactive)
REMARK    1  A    between atoms: C_2  and  C_1 
REMARK    2  A    between atoms: N_5  and  C_2 
REMARK    3  A    between atoms: C_9  and  N_5 
ROOT
ATOM      1  C   UNL d   1      13.876  12.187  -2.198  0.00  0.00     0.139 C 
ATOM      2  S   UNL d   1      14.544  12.409  -2.639  0.00  0.00    -0.057 SA
ENDROOT
BRANCH   1   3
ATOM      3  C   UNL d   1      13.934  12.090  -1.377  0.00  0.00     0.074 A 
ATOM      4  C   UNL d   1      14.623  12.274  -0.897  0.00  0.00     0.129 A 
ATOM      5  O   UNL d   1      14.429  12.085  -0.081  0.00  0.00    -0.211 OA
ATOM      6  C   UNL d   1      15.333  12.574  -1.172  0.00  0.00     0.029 C 
ATOM      7  N   UNL d   1      13.627  11.788  -0.057  0.00  0.00    -0.125 NA
ATOM      8  C   UNL d   1      13.318  11.790  -0.858  0.00  0.00     0.132 A 
ENDBRANCH   1   3
BRANCH   1   9
ATOM      9  N   UNL d   1      13.158  12.065  -2.577  0.00  0.00    -0.235 NA
BRANCH   9  10
ATOM     10  C   UNL d   1      13.052  12.325  -3.350  0.00  0.00     0.082 A 
ATOM     11  C   UNL d   1      12.948  13.127  -3.498  0.00  0.00     0.019 A 
ATOM     12  C   UNL d   1      12.843  13.382  -4.268  0.00  0.00     0.002 A 
ATOM     13  C   UNL d   1      12.841  12.847  -4.884  0.00  0.00     0.000 A 
ATOM     14  C   UNL d   1      12.946  12.042  -4.729  0.00  0.00     0.002 A 
ATOM     15  C   UNL d   1      13.052  11.783  -3.953  0.00  0.00     0.019 A 
ENDBRANCH   9  10
ENDBRANCH   1   9
TORSDOF 3
ENDMDL
