MODEL 1
REMARK VINA RESULT:      -3.2      0.000      0.000
REMARK  5 active torsions:
REMARK  status: ('A' for Active; 'I' for Inactive)
REMARK    1  A    between atoms: N_2  and  S_1 
REMARK    2  A    between atoms: C_4  and  S_1 
REMARK    3  A    between atoms: S_8  and  C_3 
REMARK    4  A    between atoms: C_18  and  S_8 
REMARK    5  A    between atoms: C_17  and  C_18 
ROOT
ATOM      1  N   UNL d   1      32.441  17.604 -23.938  0.00  0.00    -0.208 N 
ATOM      2  C   UNL d   1      32.765  17.959 -23.259  0.00  0.00     0.189 A 
ATOM      3  N   UNL d   1      33.164  17.375 -22.829  0.00  0.00    -0.219 NA
ATOM      4  C   UNL d   1      32.642  16.797 -23.925  0.00  0.00     0.114 A 
ATOM      5  C   UNL d   1      33.086  16.661 -23.243  0.00  0.00     0.121 A 
ENDROOT
BRANCH   1   6
ATOM      6  S   UNL d   1      31.996  17.991 -24.521  0.00  0.00     0.273 S 
ATOM      7  O   UNL d   1      31.752  18.533 -25.096  0.00  0.00    -0.200 OA
ATOM      8  O   UNL d   1      32.597  18.544 -24.561  0.00  0.00    -0.200 OA
BRANCH   6   9
ATOM      9  C   UNL d   1      31.379  17.441 -24.494  0.00  0.00     0.104 A 
ATOM     10  C   UNL d   1      30.657  17.664 -24.171  0.00  0.00     0.013 A 
ATOM     11  C   UNL d   1      30.043  17.112 -24.145  0.00  0.00     0.001 A 
ATOM     12  C   UNL d   1      29.317  17.334 -23.822  0.00  0.00     0.000 A 
ATOM     13  C   UNL d   1      30.152  16.351 -24.439  0.00  0.00     0.000 A 
ATOM     14  C   UNL d   1      28.697  16.792 -23.791  0.00  0.00     0.000 A 
ATOM     15  C   UNL d   1      28.805  16.024 -24.086  0.00  0.00     0.000 A 
ATOM     16  C   UNL d   1      29.528  15.806 -24.408  0.00  0.00     0.000 A 
ATOM     17  C   UNL d   1      30.878  16.129 -24.763  0.00  0.00     0.001 A 
ATOM     18  C   UNL d   1      31.500  16.685 -24.790  0.00  0.00     0.013 A 
ENDBRANCH   6   9
ENDBRANCH   1   6
BRANCH   2  19
ATOM     19  S   UNL d   1      32.698  18.761 -23.051  0.00  0.00    -0.049 SA
BRANCH  19  20
ATOM     20  C   UNL d   1      33.228  19.088 -22.509  0.00  0.00     0.040 C 
BRANCH  20  21
ATOM     21  C   UNL d   1      33.093  19.843 -22.210  0.00  0.00     0.026 A 
ATOM     22  C   UNL d   1      33.239  20.516 -22.690  0.00  0.00     0.099 A 
ATOM     23  N   UNL d   1      33.109  21.275 -22.407  0.00  0.00    -0.242 NA
ATOM     24  C   UNL d   1      32.829  21.366 -21.637  0.00  0.00     0.099 A 
ATOM     25  C   UNL d   1      32.684  20.710 -21.162  0.00  0.00     0.021 A 
ATOM     26  C   UNL d   1      32.816  19.949 -21.450  0.00  0.00     0.004 A 
ENDBRANCH  20  21
ENDBRANCH  19  20
ENDBRANCH   2  19
TORSDOF 5
ENDMDL
MODEL 2
REMARK VINA RESULT:      -1.2      1.272      2.024
REMARK  5 active torsions:
REMARK  status: ('A' for Active; 'I' for Inactive)
REMARK    1  A    between atoms: N_2  and  S_1 
REMARK    2  A    between atoms: C_4  and  S_1 
REMARK    3  A    between atoms: S_8  and  C_3 
REMARK    4  A    between atoms: C_18  and  S_8 
REMARK    5  A    between atoms: C_17  and  C_18 
ROOT
ATOM      1  N   UNL d   1      33.044  19.087 -23.010  0.00  0.00    -0.208 N 
ATOM      2  C   UNL d   1      33.059  19.537 -22.311  0.00  0.00     0.189 A 
ATOM      3  N   UNL d   1      33.181  19.021 -21.675  0.00  0.00    -0.219 NA
ATOM      4  C   UNL d   1      33.158  18.289 -22.802  0.00  0.00     0.114 A 
ATOM      5  C   UNL d   1      33.241  18.254 -21.982  0.00  0.00     0.121 A 
ENDROOT
BRANCH   1   6
ATOM      6  S   UNL d   1      32.936  19.385 -23.776  0.00  0.00     0.273 S 
ATOM      7  O   UNL d   1      32.917  19.891 -24.430  0.00  0.00    -0.200 OA
ATOM      8  O   UNL d   1      33.216  20.101 -23.498  0.00  0.00    -0.200 OA
BRANCH   6   9
ATOM      9  C   UNL d   1      32.651  18.668 -24.074  0.00  0.00     0.104 A 
ATOM     10  C   UNL d   1      31.839  18.543 -24.109  0.00  0.00     0.013 A 
ATOM     11  C   UNL d   1      31.557  17.826 -24.407  0.00  0.00     0.001 A 
ATOM     12  C   UNL d   1      30.743  17.698 -24.443  0.00  0.00     0.000 A 
ATOM     13  C   UNL d   1      32.081  17.246 -24.666  0.00  0.00     0.000 A 
ATOM     14  C   UNL d   1      30.450  16.986 -24.739  0.00  0.00     0.000 A 
ATOM     15  C   UNL d   1      30.977  16.400 -25.000  0.00  0.00     0.000 A 
ATOM     16  C   UNL d   1      31.787  16.530 -24.963  0.00  0.00     0.000 A 
ATOM     17  C   UNL d   1      32.896  17.373 -24.630  0.00  0.00     0.001 A 
ATOM     18  C   UNL d   1      33.183  18.098 -24.329  0.00  0.00     0.013 A 
ENDBRANCH   6   9
ENDBRANCH   1   6
BRANCH   2  19
ATOM     19  S   UNL d   1      32.967  20.362 -22.262  0.00  0.00    -0.049 SA
BRANCH  19  20
ATOM     20  C   UNL d   1      32.959  20.729 -21.523  0.00  0.00     0.040 C 
BRANCH  20  21
ATOM     21  C   UNL d   1      32.726  21.516 -21.460  0.00  0.00     0.026 A 
ATOM     22  C   UNL d   1      32.023  21.713 -21.045  0.00  0.00     0.099 A 
ATOM     23  N   UNL d   1      31.777  22.492 -20.974  0.00  0.00    -0.242 NA
ATOM     24  C   UNL d   1      32.236  23.083 -21.319  0.00  0.00     0.099 A 
ATOM     25  C   UNL d   1      32.925  22.897 -21.727  0.00  0.00     0.021 A 
ATOM     26  C   UNL d   1      33.169  22.113 -21.797  0.00  0.00     0.004 A 
ENDBRANCH  20  21
ENDBRANCH  19  20
ENDBRANCH   2  19
TORSDOF 5
ENDMDL
