MODEL 1
REMARK VINA RESULT:      69.2      0.000      0.000
REMARK  7 active torsions:
REMARK  status: ('A' for Active; 'I' for Inactive)
REMARK    1  A    between atoms: C_7  and  C_1 
REMARK    2  A    between atoms: C_9  and  N_2 
REMARK    3  A    between atoms: C_6  and  C_3 
REMARK    4  A    between atoms: C_8  and  C_7 
REMARK    5  A    between atoms: C_20  and  C_9 
REMARK    6  A    between atoms: O_24  and  C_10 
REMARK    7  A    between atoms: O_26  and  C_22 
ROOT
ATOM      1  C   UNL d   1      44.616 -16.340  37.532  0.00  0.00     0.101 A 
ATOM      2  N   UNL d   1      43.728 -15.724  36.755  0.00  0.00    -0.270 N 
ATOM      3  C   UNL d   1      44.380 -15.612  37.231  0.00  0.00     0.075 A 
ATOM      4  C   UNL d   1      44.095 -16.917  37.234  0.00  0.00     0.256 A 
ATOM      5  C   UNL d   1      43.546 -16.535  36.754  0.00  0.00     0.304 A 
ATOM      6  O   UNL d   1      42.926 -16.897  36.344  0.00  0.00    -0.263 OA
ATOM      7  O   UNL d   1      44.122 -17.727  37.390  0.00  0.00    -0.281 OA
ENDROOT
BRANCH   3   8
ATOM      8  C   UNL d   1      44.757 -14.890  37.395  0.00  0.00     0.041 A 
ATOM      9  C   UNL d   1      45.449 -14.700  36.993  0.00  0.00     0.096 A 
ATOM     10  C   UNL d   1      45.835 -13.981  37.148  0.00  0.00     0.026 A 
ATOM     11  C   UNL d   1      45.516 -13.460  37.712  0.00  0.00     0.026 A 
ATOM     12  C   UNL d   1      44.819 -13.656  38.115  0.00  0.00     0.094 A 
ATOM     13  C   UNL d   1      44.442 -14.370  37.955  0.00  0.00     0.028 A 
BRANCH   9  14
ATOM     14  O   UNL d   1      45.764 -15.213  36.436  0.00  0.00    -0.328 OA
ATOM     15  C   UNL d   1      46.580 -15.272  36.330  0.00  0.00     0.181 C 
ENDBRANCH   9  14
BRANCH  12  16
ATOM     16  O   UNL d   1      44.502 -13.136  38.676  0.00  0.00    -0.328 OA
ATOM     17  C   UNL d   1      44.936 -12.962  39.363  0.00  0.00     0.181 C 
ENDBRANCH  12  16
ENDBRANCH   3   8
BRANCH   2  18
ATOM     18  C   UNL d   1      43.312 -15.134  36.340  0.00  0.00     0.085 C 
BRANCH  18  19
ATOM     19  C   UNL d   1      42.484 -15.139  36.339  0.00  0.00     0.037 A 
ATOM     20  C   UNL d   1      42.070 -14.416  36.345  0.00  0.00     0.100 A 
ATOM     21  N   UNL d   1      41.250 -14.421  36.344  0.00  0.00    -0.242 NA
ATOM     22  C   UNL d   1      40.834 -15.133  36.337  0.00  0.00     0.099 A 
ATOM     23  C   UNL d   1      41.247 -15.846  36.331  0.00  0.00     0.021 A 
ATOM     24  C   UNL d   1      42.075 -15.848  36.332  0.00  0.00     0.005 A 
ENDBRANCH  18  19
ENDBRANCH   2  18
BRANCH   1  25
ATOM     25  C   UNL d   1      45.255 -16.483  38.041  0.00  0.00     0.223 C 
ATOM     26  O   UNL d   1      46.010 -16.240  37.827  0.00  0.00    -0.284 OA
BRANCH  25  27
ATOM     27  C   UNL d   1      45.130 -16.866  38.751  0.00  0.00     0.139 A 
ATOM     28  O   UNL d   1      44.535 -16.844  39.321  0.00  0.00    -0.302 OA
ATOM     29  C   UNL d   1      44.733 -17.371  39.922  0.00  0.00     0.123 A 
ATOM     30  C   UNL d   1      45.446 -17.718  39.725  0.00  0.00     0.029 A 
ATOM     31  C   UNL d   1      45.692 -17.407  39.003  0.00  0.00     0.030 A 
ENDBRANCH  25  27
ENDBRANCH   1  25
TORSDOF 7
ENDMDL
