MODEL 1
REMARK VINA RESULT:      10.7      0.000      0.000
REMARK  7 active torsions:
REMARK  status: ('A' for Active; 'I' for Inactive)
REMARK    1  A    between atoms: N_8  and  C_3 
REMARK    2  A    between atoms: C_10  and  C_5 
REMARK    3  A    between atoms: C_15  and  N_8 
REMARK    4  A    between atoms: N_12  and  C_10 
REMARK    5  A    between atoms: C_21  and  N_12 
REMARK    6  A    between atoms: O_22  and  C_16 
REMARK    7  A    between atoms: C_23  and  C_21 
ROOT
ATOM      1  N   UNL d   1      32.733  18.213 -22.578  0.00  0.00    -0.209 NA
ATOM      2  N   UNL d   1      32.745  16.926 -23.205  0.00  0.00    -0.258 N 
ATOM      3  C   UNL d   1      32.485  18.564 -23.274  0.00  0.00     0.170 A 
ATOM      4  C   UNL d   1      32.866  17.390 -22.533  0.00  0.00     0.152 A 
ATOM      5  C   UNL d   1      32.364  18.100 -23.946  0.00  0.00     0.111 A 
ATOM      6  C   UNL d   1      32.491  17.285 -23.919  0.00  0.00     0.270 A 
ATOM      7  C   UNL d   1      33.114  17.039 -21.837  0.00  0.00     0.035 A 
ATOM      8  C   UNL d   1      32.872  16.110 -23.179  0.00  0.00     0.084 A 
ATOM      9  O   UNL d   1      32.364  16.828 -24.606  0.00  0.00    -0.266 OA
ATOM     10  C   UNL d   1      33.119  15.760 -22.482  0.00  0.00     0.019 A 
ATOM     11  C   UNL d   1      33.241  16.224 -21.810  0.00  0.00     0.005 A 
ATOM     12  C   UNL d   1      33.240  17.496 -21.151  0.00  0.00     0.003 C 
ENDROOT
BRANCH   3  13
ATOM     13  N   UNL d   1      32.358  19.398 -23.291  0.00  0.00    -0.227 NA
BRANCH  13  14
ATOM     14  C   UNL d   1      32.455  19.851 -22.617  0.00  0.00     0.083 A 
ATOM     15  C   UNL d   1      31.833  19.894 -22.086  0.00  0.00     0.021 A 
ATOM     16  C   UNL d   1      31.919  20.353 -21.393  0.00  0.00     0.026 A 
ATOM     17  C   UNL d   1      32.613  20.751 -21.251  0.00  0.00     0.094 A 
ATOM     18  C   UNL d   1      33.238  20.711 -21.780  0.00  0.00     0.026 A 
ATOM     19  C   UNL d   1      33.160  20.265 -22.458  0.00  0.00     0.021 A 
BRANCH  17  20
ATOM     20  O   UNL d   1      32.681  21.213 -20.541  0.00  0.00    -0.328 OA
ATOM     21  C   UNL d   1      32.682  22.054 -20.586  0.00  0.00     0.181 C 
ENDBRANCH  17  20
ENDBRANCH  13  14
ENDBRANCH   3  13
BRANCH   5  22
ATOM     22  C   UNL d   1      32.112  18.456 -24.653  0.00  0.00     0.107 C 
BRANCH  22  23
ATOM     23  N   UNL d   1      31.309  18.589 -24.781  0.00  0.00    -0.242 NA
BRANCH  23  24
ATOM     24  C   UNL d   1      30.838  17.985 -25.072  0.00  0.00     0.099 C 
BRANCH  24  25
ATOM     25  C   UNL d   1      30.025  17.994 -24.928  0.00  0.00     0.019 A 
ATOM     26  C   UNL d   1      29.655  17.320 -24.648  0.00  0.00     0.002 A 
ATOM     27  C   UNL d   1      28.843  17.328 -24.504  0.00  0.00     0.000 A 
ATOM     28  C   UNL d   1      28.401  18.011 -24.641  0.00  0.00     0.000 A 
ATOM     29  C   UNL d   1      28.771  18.685 -24.921  0.00  0.00     0.000 A 
ATOM     30  C   UNL d   1      29.583  18.677 -25.065  0.00  0.00     0.002 A 
ENDBRANCH  24  25
ENDBRANCH  23  24
ENDBRANCH  22  23
ENDBRANCH   5  22
TORSDOF 7
ENDMDL
MODEL 2
REMARK VINA RESULT:      11.3      1.737      3.912
REMARK  7 active torsions:
REMARK  status: ('A' for Active; 'I' for Inactive)
REMARK    1  A    between atoms: N_8  and  C_3 
REMARK    2  A    between atoms: C_10  and  C_5 
REMARK    3  A    between atoms: C_15  and  N_8 
REMARK    4  A    between atoms: N_12  and  C_10 
REMARK    5  A    between atoms: C_21  and  N_12 
REMARK    6  A    between atoms: O_22  and  C_16 
REMARK    7  A    between atoms: C_23  and  C_21 
ROOT
ATOM      1  N   UNL d   1      29.515  18.141 -24.315  0.00  0.00    -0.209 NA
ATOM      2  N   UNL d   1      28.828  16.945 -23.928  0.00  0.00    -0.258 N 
ATOM      3  C   UNL d   1      30.103  17.701 -24.675  0.00  0.00     0.170 A 
ATOM      4  C   UNL d   1      28.869  17.769 -23.937  0.00  0.00     0.152 A 
ATOM      5  C   UNL d   1      30.062  16.877 -24.667  0.00  0.00     0.111 A 
ATOM      6  C   UNL d   1      29.432  16.494 -24.298  0.00  0.00     0.270 A 
ATOM      7  C   UNL d   1      28.281  18.208 -23.577  0.00  0.00     0.035 A 
ATOM      8  C   UNL d   1      28.197  16.561 -23.559  0.00  0.00     0.084 A 
ATOM      9  O   UNL d   1      29.403  15.660 -24.297  0.00  0.00    -0.266 OA
ATOM     10  C   UNL d   1      27.609  17.000 -23.199  0.00  0.00     0.019 A 
ATOM     11  C   UNL d   1      27.650  17.825 -23.208  0.00  0.00     0.005 A 
ATOM     12  C   UNL d   1      28.309  19.042 -23.578  0.00  0.00     0.003 C 
ENDROOT
BRANCH   3  13
ATOM     13  N   UNL d   1      30.744  18.103 -25.050  0.00  0.00    -0.227 NA
BRANCH  13  14
ATOM     14  C   UNL d   1      31.302  18.507 -24.609  0.00  0.00     0.083 A 
ATOM     15  C   UNL d   1      32.028  18.663 -24.952  0.00  0.00     0.021 A 
ATOM     16  C   UNL d   1      32.607  19.075 -24.512  0.00  0.00     0.026 A 
ATOM     17  C   UNL d   1      32.447  19.317 -23.752  0.00  0.00     0.094 A 
ATOM     18  C   UNL d   1      31.720  19.163 -23.406  0.00  0.00     0.026 A 
ATOM     19  C   UNL d   1      31.151  18.761 -23.830  0.00  0.00     0.021 A 
BRANCH  17  20
ATOM     20  O   UNL d   1      33.048  19.735 -23.321  0.00  0.00    -0.328 OA
ATOM     21  C   UNL d   1      33.040  19.729 -22.479  0.00  0.00     0.181 C 
ENDBRANCH  17  20
ENDBRANCH  13  14
ENDBRANCH   3  13
BRANCH   5  22
ATOM     22  C   UNL d   1      30.660  16.430 -25.033  0.00  0.00     0.107 C 
BRANCH  22  23
ATOM     23  N   UNL d   1      30.853  15.685 -24.737  0.00  0.00    -0.242 NA
BRANCH  23  24
ATOM     24  C   UNL d   1      31.638  15.455 -24.696  0.00  0.00     0.099 C 
BRANCH  24  25
ATOM     25  C   UNL d   1      32.027  15.455 -23.968  0.00  0.00     0.019 A 
ATOM     26  C   UNL d   1      31.590  15.454 -23.275  0.00  0.00     0.002 A 
ATOM     27  C   UNL d   1      31.978  15.454 -22.547  0.00  0.00     0.000 A 
ATOM     28  C   UNL d   1      32.802  15.456 -22.511  0.00  0.00     0.000 A 
ATOM     29  C   UNL d   1      33.238  15.457 -23.205  0.00  0.00     0.000 A 
ATOM     30  C   UNL d   1      32.850  15.457 -23.932  0.00  0.00     0.002 A 
ENDBRANCH  24  25
ENDBRANCH  23  24
ENDBRANCH  22  23
ENDBRANCH   5  22
TORSDOF 7
ENDMDL
MODEL 3
REMARK VINA RESULT:      13.2      1.633      4.394
REMARK  7 active torsions:
REMARK  status: ('A' for Active; 'I' for Inactive)
REMARK    1  A    between atoms: N_8  and  C_3 
REMARK    2  A    between atoms: C_10  and  C_5 
REMARK    3  A    between atoms: C_15  and  N_8 
REMARK    4  A    between atoms: N_12  and  C_10 
REMARK    5  A    between atoms: C_21  and  N_12 
REMARK    6  A    between atoms: O_22  and  C_16 
REMARK    7  A    between atoms: C_23  and  C_21 
ROOT
ATOM      1  N   UNL d   1      31.054  17.070 -24.544  0.00  0.00    -0.209 NA
ATOM      2  N   UNL d   1      32.482  17.026 -24.645  0.00  0.00    -0.258 N 
ATOM      3  C   UNL d   1      31.082  17.856 -24.319  0.00  0.00     0.170 A 
ATOM      4  C   UNL d   1      31.754  16.644 -24.711  0.00  0.00     0.152 A 
ATOM      5  C   UNL d   1      31.811  18.238 -24.254  0.00  0.00     0.111 A 
ATOM      6  C   UNL d   1      32.511  17.832 -24.414  0.00  0.00     0.270 A 
ATOM      7  C   UNL d   1      31.726  15.858 -24.936  0.00  0.00     0.035 A 
ATOM      8  C   UNL d   1      33.184  16.621 -24.806  0.00  0.00     0.084 A 
ATOM      9  O   UNL d   1      33.241  18.231 -24.344  0.00  0.00    -0.266 OA
ATOM     10  C   UNL d   1      33.156  15.835 -25.032  0.00  0.00     0.019 A 
ATOM     11  C   UNL d   1      32.427  15.453 -25.097  0.00  0.00     0.005 A 
ATOM     12  C   UNL d   1      30.997  15.460 -25.006  0.00  0.00     0.003 C 
ENDROOT
BRANCH   3  13
ATOM     13  N   UNL d   1      30.360  18.261 -24.157  0.00  0.00    -0.227 NA
BRANCH  13  14
ATOM     14  C   UNL d   1      29.679  17.848 -23.970  0.00  0.00     0.083 A 
ATOM     15  C   UNL d   1      29.035  17.918 -24.470  0.00  0.00     0.021 A 
ATOM     16  C   UNL d   1      28.333  17.501 -24.291  0.00  0.00     0.026 A 
ATOM     17  C   UNL d   1      28.294  17.033 -23.628  0.00  0.00     0.094 A 
ATOM     18  C   UNL d   1      28.937  16.961 -23.125  0.00  0.00     0.026 A 
ATOM     19  C   UNL d   1      29.625  17.365 -23.294  0.00  0.00     0.021 A 
BRANCH  17  20
ATOM     20  O   UNL d   1      27.572  16.617 -23.463  0.00  0.00    -0.328 OA
ATOM     21  C   UNL d   1      27.464  15.833 -23.753  0.00  0.00     0.181 C 
ENDBRANCH  17  20
ENDBRANCH  13  14
ENDBRANCH   3  13
BRANCH   5  22
ATOM     22  C   UNL d   1      31.839  19.036 -24.024  0.00  0.00     0.107 C 
BRANCH  22  23
ATOM     23  N   UNL d   1      32.257  19.253 -23.348  0.00  0.00    -0.242 NA
BRANCH  23  24
ATOM     24  C   UNL d   1      32.415  20.043 -23.203  0.00  0.00     0.099 C 
BRANCH  24  25
ATOM     25  C   UNL d   1      32.668  20.280 -22.454  0.00  0.00     0.019 A 
ATOM     26  C   UNL d   1      32.869  21.063 -22.322  0.00  0.00     0.002 A 
ATOM     27  C   UNL d   1      33.121  21.300 -21.574  0.00  0.00     0.000 A 
ATOM     28  C   UNL d   1      33.174  20.754 -20.957  0.00  0.00     0.000 A 
ATOM     29  C   UNL d   1      32.973  19.971 -21.089  0.00  0.00     0.000 A 
ATOM     30  C   UNL d   1      32.720  19.735 -21.838  0.00  0.00     0.002 A 
ENDBRANCH  24  25
ENDBRANCH  23  24
ENDBRANCH  22  23
ENDBRANCH   5  22
TORSDOF 7
ENDMDL
