MODEL 1
REMARK VINA RESULT:      45.8      0.000      0.000
REMARK  5 active torsions:
REMARK  status: ('A' for Active; 'I' for Inactive)
REMARK    1  A    between atoms: S_6  and  C_2 
REMARK    2  A    between atoms: C_11  and  S_6 
REMARK    3  A    between atoms: C_7  and  C_11 
REMARK       I    between atoms: N_8  and  C_7 
REMARK    4  A    between atoms: C_13  and  N_8 
REMARK    5  A    between atoms: C_14  and  C_13 
ROOT
ATOM      1  S   UNL d   1     -56.138 -98.756 -44.807  0.00  0.00    -0.080 SA
ENDROOT
BRANCH   1   2
ATOM      2  C   UNL d   1     -56.951 -98.757 -44.942  0.00  0.00     0.049 A 
ATOM      3  C   UNL d   1     -57.322 -98.758 -45.674  0.00  0.00     0.087 A 
ATOM      4  N   UNL d   1     -58.149 -98.759 -45.547  0.00  0.00    -0.302 N 
ATOM      5  C   UNL d   1     -58.275 -98.759 -44.724  0.00  0.00     0.065 A 
ATOM      6  C   UNL d   1     -58.731 -98.760 -46.131  0.00  0.00     0.100 C 
ATOM      7  C   UNL d   1     -57.538 -98.757 -44.351  0.00  0.00     0.024 A 
ATOM      8  C   UNL d   1     -58.971 -98.759 -44.283  0.00  0.00     0.018 A 
ATOM      9  C   UNL d   1     -57.502 -98.757 -43.527  0.00  0.00     0.002 A 
ATOM     10  C   UNL d   1     -58.190 -98.758 -43.083  0.00  0.00     0.000 A 
ATOM     11  C   UNL d   1     -58.926 -98.759 -43.456  0.00  0.00     0.002 A 
ENDBRANCH   1   2
BRANCH   1  12
ATOM     12  C   UNL d   1     -55.830 -99.170 -44.159  0.00  0.00     0.098 C 
BRANCH  12  13
ATOM     13  C   UNL d   1     -55.528 -99.932 -44.263  0.00  0.00     0.286 C 
ATOM     14  N   UNL d   1     -55.234-100.346 -43.614  0.00  0.00    -0.204 NA
ATOM     15  O   UNL d   1     -55.522-100.276 -45.011  0.00  0.00    -0.265 OA
BRANCH  14  16
ATOM     16  C   UNL d   1     -54.932-101.108 -43.717  0.00  0.00     0.127 C 
BRANCH  16  17
ATOM     17  C   UNL d   1     -55.164-101.706 -43.219  0.00  0.00     0.119 A 
ATOM     18  O   UNL d   1     -54.713-102.049 -42.620  0.00  0.00    -0.304 OA
ATOM     19  C   UNL d   1     -55.172-102.638 -42.252  0.00  0.00     0.123 A 
ATOM     20  C   UNL d   1     -55.907-102.656 -42.627  0.00  0.00     0.029 A 
ATOM     21  C   UNL d   1     -55.901-102.086 -43.218  0.00  0.00     0.028 A 
ENDBRANCH  16  17
ENDBRANCH  14  16
ENDBRANCH  12  13
ENDBRANCH   1  12
TORSDOF 5
ENDMDL
MODEL 2
REMARK VINA RESULT:      46.1      4.361      6.655
REMARK  5 active torsions:
REMARK  status: ('A' for Active; 'I' for Inactive)
REMARK    1  A    between atoms: S_6  and  C_2 
REMARK    2  A    between atoms: C_11  and  S_6 
REMARK    3  A    between atoms: C_7  and  C_11 
REMARK       I    between atoms: N_8  and  C_7 
REMARK    4  A    between atoms: C_13  and  N_8 
REMARK    5  A    between atoms: C_14  and  C_13 
ROOT
ATOM      1  S   UNL d   1     -54.966-102.424 -38.645  0.00  0.00    -0.080 SA
ENDROOT
BRANCH   1   2
ATOM      2  C   UNL d   1     -55.610-102.539 -38.142  0.00  0.00     0.049 A 
ATOM      3  C   UNL d   1     -56.398-102.595 -38.366  0.00  0.00     0.087 A 
ATOM      4  N   UNL d   1     -56.857-102.710 -37.677  0.00  0.00    -0.302 N 
ATOM      5  C   UNL d   1     -56.335-102.723 -37.029  0.00  0.00     0.065 A 
ATOM      6  C   UNL d   1     -57.676-102.795 -37.646  0.00  0.00     0.100 C 
ATOM      7  C   UNL d   1     -55.567-102.618 -37.314  0.00  0.00     0.024 A 
ATOM      8  C   UNL d   1     -56.476-102.818 -36.222  0.00  0.00     0.018 A 
ATOM      9  C   UNL d   1     -54.935-102.608 -36.783  0.00  0.00     0.002 A 
ATOM     10  C   UNL d   1     -55.068-102.702 -35.981  0.00  0.00     0.000 A 
ATOM     11  C   UNL d   1     -55.836-102.807 -35.696  0.00  0.00     0.002 A 
ENDBRANCH   1   2
BRANCH   1  12
ATOM     12  C   UNL d   1     -55.040-101.914 -39.294  0.00  0.00     0.098 C 
BRANCH  12  13
ATOM     13  C   UNL d   1     -55.298-102.208 -40.021  0.00  0.00     0.286 C 
ATOM     14  N   UNL d   1     -55.016-101.872 -40.719  0.00  0.00    -0.204 NA
ATOM     15  O   UNL d   1     -55.834-102.832 -40.048  0.00  0.00    -0.265 OA
BRANCH  14  16
ATOM     16  C   UNL d   1     -55.274-102.166 -41.447  0.00  0.00     0.127 C 
BRANCH  16  17
ATOM     17  C   UNL d   1     -55.080-101.775 -42.132  0.00  0.00     0.119 A 
ATOM     18  O   UNL d   1     -54.862-100.982 -42.199  0.00  0.00    -0.304 OA
ATOM     19  C   UNL d   1     -54.713-100.820 -43.003  0.00  0.00     0.123 A 
ATOM     20  C   UNL d   1     -54.840-101.515 -43.428  0.00  0.00     0.029 A 
ATOM     21  C   UNL d   1     -55.065-102.098 -42.895  0.00  0.00     0.028 A 
ENDBRANCH  16  17
ENDBRANCH  14  16
ENDBRANCH  12  13
ENDBRANCH   1  12
TORSDOF 5
ENDMDL
MODEL 3
REMARK VINA RESULT:      47.3      2.291      3.731
REMARK  5 active torsions:
REMARK  status: ('A' for Active; 'I' for Inactive)
REMARK    1  A    between atoms: S_6  and  C_2 
REMARK    2  A    between atoms: C_11  and  S_6 
REMARK    3  A    between atoms: C_7  and  C_11 
REMARK       I    between atoms: N_8  and  C_7 
REMARK    4  A    between atoms: C_13  and  N_8 
REMARK    5  A    between atoms: C_14  and  C_13 
ROOT
ATOM      1  S   UNL d   1     -54.768-101.682 -43.237  0.00  0.00    -0.080 SA
ENDROOT
BRANCH   1   2
ATOM      2  C   UNL d   1     -55.175-101.222 -43.788  0.00  0.00     0.049 A 
ATOM      3  C   UNL d   1     -55.423-100.446 -43.686  0.00  0.00     0.087 A 
ATOM      4  N   UNL d   1     -55.811-100.203 -44.385  0.00  0.00    -0.302 N 
ATOM      5  C   UNL d   1     -55.796-100.844 -44.915  0.00  0.00     0.065 A 
ATOM      6  C   UNL d   1     -56.148 -99.463 -44.523  0.00  0.00     0.100 C 
ATOM      7  C   UNL d   1     -55.404-101.472 -44.549  0.00  0.00     0.024 A 
ATOM      8  C   UNL d   1     -56.092-100.922 -45.681  0.00  0.00     0.018 A 
ATOM      9  C   UNL d   1     -55.310-102.184 -44.956  0.00  0.00     0.002 A 
ATOM     10  C   UNL d   1     -55.602-102.267 -45.716  0.00  0.00     0.000 A 
ATOM     11  C   UNL d   1     -55.993-101.639 -46.082  0.00  0.00     0.002 A 
ENDBRANCH   1   2
BRANCH   1  12
ATOM     12  C   UNL d   1     -54.793-101.476 -42.435  0.00  0.00     0.098 C 
BRANCH  12  13
ATOM     13  C   UNL d   1     -54.755-102.067 -41.858  0.00  0.00     0.286 C 
ATOM     14  N   UNL d   1     -54.753-101.857 -41.061  0.00  0.00    -0.204 NA
ATOM     15  O   UNL d   1     -54.720-102.859 -42.078  0.00  0.00    -0.265 OA
BRANCH  14  16
ATOM     16  C   UNL d   1     -54.715-102.447 -40.482  0.00  0.00     0.127 C 
BRANCH  16  17
ATOM     17  C   UNL d   1     -54.799-102.250 -39.699  0.00  0.00     0.119 A 
ATOM     18  O   UNL d   1     -54.961-102.768 -39.078  0.00  0.00    -0.304 OA
ATOM     19  C   UNL d   1     -55.000-102.326 -38.373  0.00  0.00     0.123 A 
ATOM     20  C   UNL d   1     -54.862-101.536 -38.563  0.00  0.00     0.029 A 
ATOM     21  C   UNL d   1     -54.739-101.491 -39.374  0.00  0.00     0.028 A 
ENDBRANCH  16  17
ENDBRANCH  14  16
ENDBRANCH  12  13
ENDBRANCH   1  12
TORSDOF 5
ENDMDL
