MODEL 1
REMARK VINA RESULT:      22.3      0.000      0.000
REMARK  6 active torsions:
REMARK  status: ('A' for Active; 'I' for Inactive)
REMARK       I    between atoms: N_2  and  C_1 
REMARK    1  A    between atoms: C_5  and  C_1 
REMARK    2  A    between atoms: C_3  and  N_2 
REMARK    3  A    between atoms: O_14  and  C_10 
REMARK    4  A    between atoms: C_18  and  O_14 
REMARK    5  A    between atoms: C_19  and  C_18 
REMARK    6  A    between atoms: C_20  and  C_19 
ROOT
ATOM      1  C   UNL d   1      14.879  12.352  -0.986  0.00  0.00     0.058 A 
ATOM      2  C   UNL d   1      14.909  12.821  -1.664  0.00  0.00     0.007 A 
ATOM      3  C   UNL d   1      14.261  11.840  -0.875  0.00  0.00     0.007 A 
ATOM      4  C   UNL d   1      13.682  12.256  -2.128  0.00  0.00     0.100 A 
ATOM      5  C   UNL d   1      14.309  12.766  -2.224  0.00  0.00     0.025 A 
ATOM      6  C   UNL d   1      13.666  11.780  -1.424  0.00  0.00     0.025 A 
ENDROOT
BRANCH   1   7
ATOM      7  C   UNL d   1      15.497  12.423  -0.429  0.00  0.00     0.281 C 
ATOM      8  N   UNL d   1      15.621  13.124  -0.015  0.00  0.00    -0.189 NA
ATOM      9  O   UNL d   1      15.988  11.780  -0.294  0.00  0.00    -0.265 OA
BRANCH   8  10
ATOM     10  C   UNL d   1      15.117  13.783  -0.154  0.00  0.00     0.166 A 
ATOM     11  N   UNL d   1      15.474  14.476  -0.445  0.00  0.00    -0.227 NA
ATOM     12  C   UNL d   1      15.016  15.122  -0.587  0.00  0.00     0.083 A 
ATOM     13  C   UNL d   1      15.319  15.877  -0.890  0.00  0.00     0.021 C 
ATOM     14  C   UNL d   1      14.188  15.076  -0.436  0.00  0.00     0.019 A 
ATOM     15  C   UNL d   1      13.855  14.374  -0.146  0.00  0.00     0.005 A 
ATOM     16  C   UNL d   1      14.339  13.747  -0.015  0.00  0.00     0.039 A 
ENDBRANCH   8  10
ENDBRANCH   1   7
BRANCH   4  17
ATOM     17  O   UNL d   1      13.076  12.198  -2.691  0.00  0.00    -0.305 OA
BRANCH  17  18
ATOM     18  C   UNL d   1      13.190  12.438  -3.470  0.00  0.00     0.123 C 
BRANCH  18  19
ATOM     19  C   UNL d   1      13.110  11.889  -4.078  0.00  0.00     0.027 C 
BRANCH  19  20
ATOM     20  C   UNL d   1      13.028  12.177  -4.861  0.00  0.00     0.002 C 
ATOM     21  C   UNL d   1      13.485  11.858  -5.472  0.00  0.00     0.000 C 
ENDBRANCH  19  20
ENDBRANCH  18  19
ENDBRANCH  17  18
ENDBRANCH   4  17
TORSDOF 6
ENDMDL
