MODEL 1
REMARK VINA RESULT:      71.1      0.000      0.000
REMARK  4 active torsions:
REMARK  status: ('A' for Active; 'I' for Inactive)
REMARK    1  A    between atoms: C_2  and  S_1 
REMARK    2  A    between atoms: N_3  and  S_1 
REMARK    3  A    between atoms: C_4  and  C_6 
REMARK       I    between atoms: N_5  and  C_4 
REMARK    4  A    between atoms: C_11  and  N_8 
ROOT
ATOM      1  C   UNL d   1      44.945 -16.684  38.473  0.00  0.00     0.104 A 
ATOM      2  C   UNL d   1      45.341 -17.823  39.229  0.00  0.00     0.057 A 
ATOM      3  C   UNL d   1      45.508 -17.252  38.655  0.00  0.00     0.018 A 
ATOM      4  C   UNL d   1      44.219 -16.674  38.855  0.00  0.00     0.012 A 
ATOM      5  C   UNL d   1      44.614 -17.820  39.616  0.00  0.00     0.005 A 
ATOM      6  C   UNL d   1      44.052 -17.245  39.429  0.00  0.00     0.001 A 
ATOM      7  C   UNL d   1      43.655 -16.106  38.673  0.00  0.00     0.001 C 
ENDROOT
BRANCH   2   8
ATOM      8  C   UNL d   1      45.898 -18.402  39.423  0.00  0.00     0.265 C 
ATOM      9  N   UNL d   1      45.997 -18.616  40.214  0.00  0.00    -0.269 N 
ATOM     10  C   UNL d   1      46.547 -19.189  40.410  0.00  0.00     0.102 A 
ATOM     11  C   UNL d   1      45.540 -18.248  40.796  0.00  0.00     0.102 A 
ATOM     12  C   UNL d   1      46.647 -19.402  41.201  0.00  0.00     0.100 A 
ATOM     13  N   UNL d   1      46.193 -19.040  41.789  0.00  0.00    -0.301 N 
ATOM     14  C   UNL d   1      45.642 -18.464  41.584  0.00  0.00     0.100 A 
ATOM     15  O   UNL d   1      46.343 -18.757  38.836  0.00  0.00    -0.267 OA
BRANCH  13  16
ATOM     16  C   UNL d   1      46.293 -19.253  42.580  0.00  0.00     0.064 A 
ATOM     17  C   UNL d   1      46.173 -20.038  42.812  0.00  0.00     0.020 A 
ATOM     18  C   UNL d   1      46.273 -20.251  43.603  0.00  0.00     0.031 A 
ATOM     19  C   UNL d   1      46.491 -19.687  44.164  0.00  0.00     0.140 A 
ATOM     20  C   UNL d   1      46.610 -18.896  43.925  0.00  0.00     0.031 A 
ATOM     21  F   UNL d   1      46.590 -19.900  44.954  0.00  0.00    -0.204 F 
ATOM     22  C   UNL d   1      46.511 -18.682  43.135  0.00  0.00     0.020 A 
ENDBRANCH  13  16
ENDBRANCH   2   8
BRANCH   1  23
ATOM     23  S   UNL d   1      45.112 -16.113  37.899  0.00  0.00     0.271 S 
ATOM     24  O   UNL d   1      44.839 -16.625  37.311  0.00  0.00    -0.200 OA
ATOM     25  O   UNL d   1      45.426 -15.523  38.576  0.00  0.00    -0.200 OA
BRANCH  23  26
ATOM     26  N   UNL d   1      45.298 -15.506  37.372  0.00  0.00    -0.229 N 
ATOM     27  C   UNL d   1      46.062 -15.202  37.366  0.00  0.00     0.092 A 
ATOM     28  C   UNL d   1      46.254 -14.591  36.838  0.00  0.00     0.020 A 
ATOM     29  C   UNL d   1      45.676 -14.302  36.330  0.00  0.00     0.003 A 
ATOM     30  C   UNL d   1      44.921 -14.607  36.341  0.00  0.00     0.020 A 
ATOM     31  C   UNL d   1      44.728 -15.208  36.859  0.00  0.00     0.092 A 
ENDBRANCH  23  26
ENDBRANCH   1  23
TORSDOF 4
ENDMDL
MODEL 2
REMARK VINA RESULT:      71.7      2.640      6.181
REMARK  4 active torsions:
REMARK  status: ('A' for Active; 'I' for Inactive)
REMARK    1  A    between atoms: C_2  and  S_1 
REMARK    2  A    between atoms: N_3  and  S_1 
REMARK    3  A    between atoms: C_4  and  C_6 
REMARK       I    between atoms: N_5  and  C_4 
REMARK    4  A    between atoms: C_11  and  N_8 
ROOT
ATOM      1  C   UNL d   1      46.129 -18.165  42.494  0.00  0.00     0.104 A 
ATOM      2  C   UNL d   1      46.186 -17.946  41.089  0.00  0.00     0.057 A 
ATOM      3  C   UNL d   1      46.095 -18.460  41.730  0.00  0.00     0.018 A 
ATOM      4  C   UNL d   1      46.252 -17.365  42.631  0.00  0.00     0.012 A 
ATOM      5  C   UNL d   1      46.311 -17.142  41.219  0.00  0.00     0.005 A 
ATOM      6  C   UNL d   1      46.344 -16.851  41.990  0.00  0.00     0.001 A 
ATOM      7  C   UNL d   1      46.286 -17.069  43.396  0.00  0.00     0.001 C 
ENDROOT
BRANCH   2   8
ATOM      8  C   UNL d   1      46.155 -18.228  40.313  0.00  0.00     0.265 C 
ATOM      9  N   UNL d   1      45.746 -17.794  39.743  0.00  0.00    -0.269 N 
ATOM     10  C   UNL d   1      45.712 -18.070  38.973  0.00  0.00     0.102 A 
ATOM     11  C   UNL d   1      45.376 -17.086  39.957  0.00  0.00     0.102 A 
ATOM     12  C   UNL d   1      45.303 -17.635  38.403  0.00  0.00     0.100 A 
ATOM     13  N   UNL d   1      44.931 -16.927  38.610  0.00  0.00    -0.301 N 
ATOM     14  C   UNL d   1      44.969 -16.655  39.386  0.00  0.00     0.100 A 
ATOM     15  O   UNL d   1      46.525 -18.930  40.116  0.00  0.00    -0.267 OA
BRANCH  13  16
ATOM     16  C   UNL d   1      44.522 -16.492  38.040  0.00  0.00     0.064 A 
ATOM     17  C   UNL d   1      43.759 -16.218  38.201  0.00  0.00     0.020 A 
ATOM     18  C   UNL d   1      43.350 -15.784  37.631  0.00  0.00     0.031 A 
ATOM     19  C   UNL d   1      43.697 -15.620  36.901  0.00  0.00     0.140 A 
ATOM     20  C   UNL d   1      44.468 -15.899  36.742  0.00  0.00     0.031 A 
ATOM     21  F   UNL d   1      43.289 -15.186  36.331  0.00  0.00    -0.204 F 
ATOM     22  C   UNL d   1      44.877 -16.334  37.312  0.00  0.00     0.020 A 
ENDBRANCH  13  16
ENDBRANCH   2   8
BRANCH   1  23
ATOM     23  S   UNL d   1      46.037 -18.680  43.135  0.00  0.00     0.271 S 
ATOM     24  O   UNL d   1      45.516 -18.145  43.489  0.00  0.00    -0.200 OA
ATOM     25  O   UNL d   1      46.637 -19.295  42.726  0.00  0.00    -0.200 OA
BRANCH  23  26
ATOM     26  N   UNL d   1      45.986 -19.232  43.745  0.00  0.00    -0.229 N 
ATOM     27  C   UNL d   1      45.278 -19.633  43.864  0.00  0.00     0.092 A 
ATOM     28  C   UNL d   1      45.222 -20.189  44.477  0.00  0.00     0.020 A 
ATOM     29  C   UNL d   1      45.876 -20.330  44.955  0.00  0.00     0.003 A 
ATOM     30  C   UNL d   1      46.575 -19.928  44.832  0.00  0.00     0.020 A 
ATOM     31  C   UNL d   1      46.634 -19.380  44.230  0.00  0.00     0.092 A 
ENDBRANCH  23  26
ENDBRANCH   1  23
TORSDOF 4
ENDMDL
