MODEL 1
REMARK VINA RESULT:      75.4      0.000      0.000
REMARK  6 active torsions:
REMARK  status: ('A' for Active; 'I' for Inactive)
REMARK    1  A    between atoms: N_15  and  C_1 
REMARK    2  A    between atoms: C_21  and  N_6 
REMARK    3  A    between atoms: C_16  and  C_8 
REMARK    4  A    between atoms: C_9  and  S_17 
REMARK       I    between atoms: C_20  and  N_15 
REMARK    5  A    between atoms: S_17  and  C_23 
REMARK    6  A    between atoms: C_23  and  C_20 
ROOT
ATOM      1  C   UNL d   1      14.981  15.608  -3.592  0.00  0.00     0.099 C 
ENDROOT
BRANCH   1   2
ATOM      2  S   UNL d   1      14.478  15.271  -2.945  0.00  0.00    -0.064 SA
BRANCH   2   3
ATOM      3  C   UNL d   1      14.488  14.540  -2.494  0.00  0.00     0.096 A 
ATOM      4  N   UNL d   1      14.149  13.862  -2.814  0.00  0.00    -0.285 N 
ATOM      5  C   UNL d   1      14.158  13.145  -2.372  0.00  0.00     0.150 A 
ATOM      6  C   UNL d   1      13.456  13.180  -3.885  0.00  0.00     0.084 A 
ATOM      7  N   UNL d   1      13.817  12.453  -2.689  0.00  0.00    -0.227 NA
ATOM      8  C   UNL d   1      14.505  13.130  -1.624  0.00  0.00     0.056 A 
ATOM      9  C   UNL d   1      13.465  12.465  -3.443  0.00  0.00     0.099 A 
ATOM     10  C   UNL d   1      13.126  11.786  -3.763  0.00  0.00     0.021 A 
ATOM     11  C   UNL d   1      12.778  11.801  -4.512  0.00  0.00     0.002 A 
ATOM     12  C   UNL d   1      12.770  12.506  -4.946  0.00  0.00     0.002 A 
ATOM     13  C   UNL d   1      13.108  13.196  -4.634  0.00  0.00     0.019 A 
ATOM     14  C   UNL d   1      14.848  13.824  -1.304  0.00  0.00     0.006 A 
ATOM     15  C   UNL d   1      14.835  14.525  -1.745  0.00  0.00     0.025 A 
ATOM     16  C   UNL d   1      15.192  13.805  -0.563  0.00  0.00     0.000 C 
BRANCH   8  17
ATOM     17  C   UNL d   1      14.518  12.430  -1.183  0.00  0.00     0.125 C 
ATOM     18  N   UNL d   1      14.116  12.433  -0.458  0.00  0.00    -0.146 N 
ENDBRANCH   8  17
ENDBRANCH   2   3
ENDBRANCH   1   2
BRANCH   1  19
ATOM     19  C   UNL d   1      14.633  16.189  -4.152  0.00  0.00     0.286 C 
ATOM     20  N   UNL d   1      14.912  17.027  -4.143  0.00  0.00    -0.201 NA
ATOM     21  O   UNL d   1      14.007  15.942  -4.724  0.00  0.00    -0.265 OA
BRANCH  20  22
ATOM     22  C   UNL d   1      14.565  17.617  -4.706  0.00  0.00     0.160 A 
ATOM     23  C   UNL d   1      14.719  18.389  -4.888  0.00  0.00     0.298 A 
ATOM     24  N   UNL d   1      14.273  18.763  -5.451  0.00  0.00    -0.209 N 
ATOM     25  O   UNL d   1      15.309  18.779  -4.514  0.00  0.00    -0.263 OA
ATOM     26  N   UNL d   1      13.681  18.376  -5.827  0.00  0.00    -0.238 N 
ATOM     27  C   UNL d   1      13.528  17.602  -5.643  0.00  0.00     0.104 A 
ATOM     28  C   UNL d   1      13.239  18.747  -6.385  0.00  0.00     0.120 C 
ATOM     29  C   UNL d   1      12.947  17.003  -5.921  0.00  0.00     0.022 C 
BRANCH  24  30
ATOM     30  C   UNL d   1      14.428  19.536  -5.633  0.00  0.00     0.085 A 
ATOM     31  C   UNL d   1      15.117  19.727  -6.001  0.00  0.00     0.019 A 
ATOM     32  C   UNL d   1      15.272  20.499  -6.183  0.00  0.00     0.002 A 
ATOM     33  C   UNL d   1      14.730  21.070  -5.992  0.00  0.00     0.000 A 
ATOM     34  C   UNL d   1      14.048  20.861  -5.625  0.00  0.00     0.002 A 
ATOM     35  C   UNL d   1      13.898  20.095  -5.446  0.00  0.00     0.019 A 
ENDBRANCH  24  30
ENDBRANCH  20  22
ENDBRANCH   1  19
TORSDOF 6
ENDMDL
