MODEL 1
REMARK VINA RESULT:      -6.7      0.000      0.000
REMARK  4 active torsions:
REMARK  status: ('A' for Active; 'I' for Inactive)
REMARK    1  A    between atoms: C_2  and  S_1 
REMARK    2  A    between atoms: N_11  and  S_1 
REMARK    3  A    between atoms: C_7  and  C_19 
REMARK    4  A    between atoms: C_19  and  N_11 
ROOT
ATOM      1  C   UNL d   1     -41.669-122.340 -51.843  0.00  0.00     0.133 C 
ENDROOT
BRANCH   1   2
ATOM      2  C   UNL d   1     -41.725-122.549 -51.041  0.00  0.00     0.120 A 
ATOM      3  N   UNL d   1     -42.362-122.398 -50.567  0.00  0.00    -0.225 NA
ATOM      4  C   UNL d   1     -42.193-122.699 -49.804  0.00  0.00     0.148 A 
ATOM      5  C   UNL d   1     -42.626-122.707 -49.102  0.00  0.00     0.037 A 
ATOM      6  N   UNL d   1     -41.440-123.034 -49.828  0.00  0.00    -0.288 N 
ATOM      7  C   UNL d   1     -42.307-123.050 -48.425  0.00  0.00     0.004 A 
ATOM      8  C   UNL d   1     -42.748-123.054 -47.727  0.00  0.00     0.000 C 
ATOM      9  C   UNL d   1     -41.556-123.385 -48.449  0.00  0.00     0.019 A 
ATOM     10  C   UNL d   1     -41.123-123.377 -49.151  0.00  0.00     0.082 A 
ATOM     11  C   UNL d   1     -41.145-122.942 -50.599  0.00  0.00     0.102 A 
ENDBRANCH   1   2
BRANCH   1  12
ATOM     12  N   UNL d   1     -41.463-122.910 -52.403  0.00  0.00    -0.155 NA
BRANCH  12  13
ATOM     13  S   UNL d   1     -41.551-122.742 -53.209  0.00  0.00     0.291 S 
ATOM     14  O   UNL d   1     -41.203-121.994 -53.090  0.00  0.00    -0.198 OA
ATOM     15  O   UNL d   1     -41.899-123.492 -53.323  0.00  0.00    -0.198 OA
BRANCH  13  16
ATOM     16  C   UNL d   1     -41.640-122.577 -54.013  0.00  0.00     0.135 A 
ATOM     17  S   UNL d   1     -42.248-122.153 -54.354  0.00  0.00    -0.062 SA
ATOM     18  C   UNL d   1     -42.123-122.120 -55.169  0.00  0.00     0.088 A 
ATOM     19 CL   UNL d   1     -42.606-121.745 -55.718  0.00  0.00    -0.075 Cl
ATOM     20  C   UNL d   1     -41.419-122.536 -55.330  0.00  0.00     0.019 A 
ATOM     21  C   UNL d   1     -41.123-122.818 -54.616  0.00  0.00     0.021 A 
ENDBRANCH  13  16
ENDBRANCH  12  13
ENDBRANCH   1  12
TORSDOF 4
ENDMDL
MODEL 2
REMARK VINA RESULT:      -6.7      2.441      5.045
REMARK  4 active torsions:
REMARK  status: ('A' for Active; 'I' for Inactive)
REMARK    1  A    between atoms: C_2  and  S_1 
REMARK    2  A    between atoms: N_11  and  S_1 
REMARK    3  A    between atoms: C_7  and  C_19 
REMARK    4  A    between atoms: C_19  and  N_11 
ROOT
ATOM      1  C   UNL d   1     -41.376-122.727 -51.552  0.00  0.00     0.133 C 
ENDROOT
BRANCH   1   2
ATOM      2  C   UNL d   1     -41.452-122.687 -52.378  0.00  0.00     0.120 A 
ATOM      3  N   UNL d   1     -41.866-122.119 -52.777  0.00  0.00    -0.225 NA
ATOM      4  C   UNL d   1     -41.803-122.282 -53.596  0.00  0.00     0.148 A 
ATOM      5  C   UNL d   1     -42.104-121.900 -54.263  0.00  0.00     0.037 A 
ATOM      6  N   UNL d   1     -41.343-122.961 -53.682  0.00  0.00    -0.288 N 
ATOM      7  C   UNL d   1     -41.946-122.197 -55.014  0.00  0.00     0.004 A 
ATOM      8  C   UNL d   1     -42.251-121.810 -55.676  0.00  0.00     0.000 C 
ATOM      9  C   UNL d   1     -41.487-122.875 -55.100  0.00  0.00     0.019 A 
ATOM     10  C   UNL d   1     -41.186-123.257 -54.433  0.00  0.00     0.082 A 
ATOM     11  C   UNL d   1     -41.123-123.217 -52.923  0.00  0.00     0.102 A 
ENDBRANCH   1   2
BRANCH   1  12
ATOM     12  N   UNL d   1     -42.044-122.843 -51.082  0.00  0.00    -0.155 NA
BRANCH  12  13
ATOM     13  S   UNL d   1     -41.955-122.995 -50.273  0.00  0.00     0.291 S 
ATOM     14  O   UNL d   1     -41.495-122.304 -50.196  0.00  0.00    -0.198 OA
ATOM     15  O   UNL d   1     -42.416-123.686 -50.356  0.00  0.00    -0.198 OA
BRANCH  13  16
ATOM     16  C   UNL d   1     -41.867-123.148 -49.467  0.00  0.00     0.135 A 
ATOM     17  S   UNL d   1     -42.433-123.034 -48.890  0.00  0.00    -0.062 SA
ATOM     18  C   UNL d   1     -42.117-123.257 -48.162  0.00  0.00     0.088 A 
ATOM     19 CL   UNL d   1     -42.503-123.229 -47.437  0.00  0.00    -0.075 Cl
ATOM     20  C   UNL d   1     -41.336-123.515 -48.297  0.00  0.00     0.019 A 
ATOM     21  C   UNL d   1     -41.183-123.448 -49.103  0.00  0.00     0.021 A 
ENDBRANCH  13  16
ENDBRANCH  12  13
ENDBRANCH   1  12
TORSDOF 4
ENDMDL
