MODEL 1
REMARK VINA RESULT:      42.6      0.000      0.000
REMARK  2 active torsions:
REMARK  status: ('A' for Active; 'I' for Inactive)
REMARK    1  A    between atoms: C_12  and  C_4 
REMARK    2  A    between atoms: C_10  and  C_5 
ROOT
ATOM      1  N   UNL d   1      13.993  13.542  -2.944  0.00  0.00    -0.208 N 
ATOM      2  N   UNL d   1      14.289  13.502  -2.171  0.00  0.00    -0.163 NA
ATOM      3  C   UNL d   1      13.738  12.787  -3.158  0.00  0.00     0.088 A 
ATOM      4  C   UNL d   1      13.927  14.167  -3.469  0.00  0.00     0.183 A 
ATOM      5  C   UNL d   1      14.217  12.726  -1.909  0.00  0.00     0.109 A 
ATOM      6  O   UNL d   1      13.603  14.039  -4.215  0.00  0.00    -0.289 OA
ATOM      7  C   UNL d   1      13.877  12.281  -2.515  0.00  0.00     0.041 A 
ATOM      8  C   UNL d   1      13.417  12.660  -3.898  0.00  0.00     0.041 A 
ATOM      9  C   UNL d   1      13.347  13.287  -4.433  0.00  0.00     0.103 A 
ATOM     10  C   UNL d   1      13.161  11.907  -4.115  0.00  0.00     0.004 A 
ATOM     11  C   UNL d   1      13.025  13.160  -5.178  0.00  0.00     0.025 A 
ATOM     12  C   UNL d   1      12.838  11.779  -4.860  0.00  0.00     0.000 A 
ATOM     13  C   UNL d   1      12.769  12.408  -5.394  0.00  0.00     0.002 A 
ENDROOT
BRANCH   4  14
ATOM     14  C   UNL d   1      14.183  14.922  -3.253  0.00  0.00     0.041 A 
ATOM     15  C   UNL d   1      14.330  15.084  -2.468  0.00  0.00     0.004 A 
ATOM     16  C   UNL d   1      14.588  15.843  -2.246  0.00  0.00     0.000 A 
ATOM     17  C   UNL d   1      14.694  16.430  -2.825  0.00  0.00     0.000 A 
ATOM     18  C   UNL d   1      14.540  16.250  -3.619  0.00  0.00     0.000 A 
ATOM     19  C   UNL d   1      14.285  15.498  -3.836  0.00  0.00     0.004 A 
ENDBRANCH   4  14
BRANCH   5  20
ATOM     20  C   UNL d   1      14.443  12.437  -1.172  0.00  0.00     0.049 A 
ATOM     21  S   UNL d   1      14.012  11.920  -0.701  0.00  0.00    -0.085 SA
ATOM     22  C   UNL d   1      14.444  11.780  -0.014  0.00  0.00     0.035 A 
ATOM     23  C   UNL d   1      15.148  12.213  -0.058  0.00  0.00     0.007 A 
ATOM     24  C   UNL d   1      15.153  12.620  -0.768  0.00  0.00     0.009 A 
ENDBRANCH   5  20
TORSDOF 2
ENDMDL
MODEL 2
REMARK VINA RESULT:      44.6      1.250      3.844
REMARK  2 active torsions:
REMARK  status: ('A' for Active; 'I' for Inactive)
REMARK    1  A    between atoms: C_12  and  C_4 
REMARK    2  A    between atoms: C_10  and  C_5 
ROOT
ATOM      1  N   UNL d   1      14.184  13.578  -2.577  0.00  0.00    -0.208 N 
ATOM      2  N   UNL d   1      14.204  14.277  -3.021  0.00  0.00    -0.163 NA
ATOM      3  C   UNL d   1      14.554  13.726  -1.853  0.00  0.00     0.088 A 
ATOM      4  C   UNL d   1      13.876  12.837  -2.743  0.00  0.00     0.183 A 
ATOM      5  C   UNL d   1      14.585  14.854  -2.574  0.00  0.00     0.109 A 
ATOM      6  O   UNL d   1      13.938  12.237  -2.183  0.00  0.00    -0.289 OA
ATOM      7  C   UNL d   1      14.802  14.517  -1.853  0.00  0.00     0.041 A 
ATOM      8  C   UNL d   1      14.615  13.130  -1.299  0.00  0.00     0.041 A 
ATOM      9  C   UNL d   1      14.306  12.379  -1.460  0.00  0.00     0.103 A 
ATOM     10  C   UNL d   1      14.983  13.273  -0.575  0.00  0.00     0.004 A 
ATOM     11  C   UNL d   1      14.368  11.779  -0.902  0.00  0.00     0.025 A 
ATOM     12  C   UNL d   1      15.045  12.673  -0.017  0.00  0.00     0.000 A 
ATOM     13  C   UNL d   1      14.736  11.923  -0.180  0.00  0.00     0.002 A 
ENDROOT
BRANCH   4  14
ATOM     14  C   UNL d   1      13.507  12.693  -3.467  0.00  0.00     0.041 A 
ATOM     15  C   UNL d   1      13.163  13.311  -3.870  0.00  0.00     0.004 A 
ATOM     16  C   UNL d   1      12.789  13.169  -4.600  0.00  0.00     0.000 A 
ATOM     17  C   UNL d   1      12.771  12.399  -4.912  0.00  0.00     0.000 A 
ATOM     18  C   UNL d   1      13.126  11.780  -4.490  0.00  0.00     0.000 A 
ATOM     19  C   UNL d   1      13.494  11.924  -3.769  0.00  0.00     0.004 A 
ENDBRANCH   4  14
BRANCH   5  20
ATOM     20  C   UNL d   1      14.728  15.632  -2.802  0.00  0.00     0.049 A 
ATOM     21  S   UNL d   1      14.890  16.262  -2.300  0.00  0.00    -0.085 SA
ATOM     22  C   UNL d   1      14.995  16.936  -2.762  0.00  0.00     0.035 A 
ATOM     23  C   UNL d   1      14.897  16.722  -3.556  0.00  0.00     0.007 A 
ATOM     24  C   UNL d   1      14.732  15.922  -3.588  0.00  0.00     0.009 A 
ENDBRANCH   5  20
TORSDOF 2
ENDMDL
MODEL 3
REMARK VINA RESULT:      44.9      1.117      3.883
REMARK  2 active torsions:
REMARK  status: ('A' for Active; 'I' for Inactive)
REMARK    1  A    between atoms: C_12  and  C_4 
REMARK    2  A    between atoms: C_10  and  C_5 
ROOT
ATOM      1  N   UNL d   1      14.227  13.684  -2.262  0.00  0.00    -0.208 N 
ATOM      2  N   UNL d   1      13.918  13.032  -2.668  0.00  0.00    -0.163 NA
ATOM      3  C   UNL d   1      14.169  14.343  -2.757  0.00  0.00     0.088 A 
ATOM      4  C   UNL d   1      14.550  13.756  -1.513  0.00  0.00     0.183 A 
ATOM      5  C   UNL d   1      13.670  13.285  -3.411  0.00  0.00     0.109 A 
ATOM      6  O   UNL d   1      14.817  14.489  -1.253  0.00  0.00    -0.289 OA
ATOM      7  C   UNL d   1      13.823  14.094  -3.469  0.00  0.00     0.041 A 
ATOM      8  C   UNL d   1      14.433  15.071  -2.500  0.00  0.00     0.041 A 
ATOM      9  C   UNL d   1      14.760  15.149  -1.744  0.00  0.00     0.103 A 
ATOM     10  C   UNL d   1      14.377  15.730  -2.990  0.00  0.00     0.004 A 
ATOM     11  C   UNL d   1      15.027  15.882  -1.483  0.00  0.00     0.025 A 
ATOM     12  C   UNL d   1      14.643  16.463  -2.731  0.00  0.00     0.000 A 
ATOM     13  C   UNL d   1      14.970  16.540  -1.974  0.00  0.00     0.002 A 
ENDROOT
BRANCH   4  14
ATOM     14  C   UNL d   1      14.607  13.096  -1.020  0.00  0.00     0.041 A 
ATOM     15  C   UNL d   1      15.276  12.631  -1.051  0.00  0.00     0.004 A 
ATOM     16  C   UNL d   1      15.338  11.965  -0.556  0.00  0.00     0.000 A 
ATOM     17  C   UNL d   1      14.718  11.779  -0.034  0.00  0.00     0.000 A 
ATOM     18  C   UNL d   1      14.044  12.262  -0.014  0.00  0.00     0.000 A 
ATOM     19  C   UNL d   1      13.986  12.919  -0.505  0.00  0.00     0.004 A 
ENDBRANCH   4  14
BRANCH   5  20
ATOM     20  C   UNL d   1      13.328  12.819  -3.996  0.00  0.00     0.049 A 
ATOM     21  S   UNL d   1      13.128  12.025  -3.927  0.00  0.00    -0.085 SA
ATOM     22  C   UNL d   1      12.803  11.781  -4.643  0.00  0.00     0.035 A 
ATOM     23  C   UNL d   1      12.800  12.428  -5.160  0.00  0.00     0.007 A 
ATOM     24  C   UNL d   1      13.122  13.070  -4.768  0.00  0.00     0.009 A 
ENDBRANCH   5  20
TORSDOF 2
ENDMDL
