MODEL 1
REMARK VINA RESULT:      -5.1      0.000      0.000
REMARK  1 active torsions:
REMARK  status: ('A' for Active; 'I' for Inactive)
REMARK    1  A    between atoms: C_5  and  C_1 
ROOT
ATOM      1  C   UNL d   1     -41.672-122.435 -53.699  0.00  0.00     0.005 A 
ATOM      2  C   UNL d   1     -41.244-122.748 -54.332  0.00  0.00     0.001 A 
ATOM      3  C   UNL d   1     -42.297-121.918 -53.837  0.00  0.00     0.001 A 
ATOM      4  C   UNL d   1     -42.071-122.023 -55.242  0.00  0.00     0.058 A 
ATOM      5  C   UNL d   1     -42.499-121.710 -54.610  0.00  0.00     0.011 A 
ATOM      6  C   UNL d   1     -41.441-122.544 -55.101  0.00  0.00     0.011 A 
ATOM      7 CL   UNL d   1     -42.271-121.816 -56.024  0.00  0.00    -0.082 Cl
ENDROOT
BRANCH   1   8
ATOM      8  C   UNL d   1     -41.472-122.641 -52.928  0.00  0.00     0.060 A 
ATOM      9  C   UNL d   1     -41.301-122.236 -52.259  0.00  0.00     0.206 A 
ATOM     10  N   UNL d   1     -41.125-122.619 -51.587  0.00  0.00    -0.127 NA
ATOM     11  N   UNL d   1     -41.306-121.407 -52.269  0.00  0.00    -0.125 N 
ATOM     12  N   UNL d   1     -41.123-123.410 -51.588  0.00  0.00    -0.145 NA
ATOM     13  C   UNL d   1     -41.293-123.817 -52.252  0.00  0.00     0.125 A 
ENDBRANCH   1   8
TORSDOF 1
ENDMDL
MODEL 2
REMARK VINA RESULT:      -5.0      0.509      1.025
REMARK  1 active torsions:
REMARK  status: ('A' for Active; 'I' for Inactive)
REMARK    1  A    between atoms: C_5  and  C_1 
ROOT
ATOM      1  C   UNL d   1     -41.677-122.303 -53.717  0.00  0.00     0.005 A 
ATOM      2  C   UNL d   1     -41.123-122.461 -54.307  0.00  0.00     0.001 A 
ATOM      3  C   UNL d   1     -42.424-122.021 -53.914  0.00  0.00     0.001 A 
ATOM      4  C   UNL d   1     -42.068-122.052 -55.296  0.00  0.00     0.058 A 
ATOM      5  C   UNL d   1     -42.622-121.894 -54.706  0.00  0.00     0.011 A 
ATOM      6  C   UNL d   1     -41.315-122.337 -55.094  0.00  0.00     0.011 A 
ATOM      7 CL   UNL d   1     -42.262-121.926 -56.096  0.00  0.00    -0.082 Cl
ENDROOT
BRANCH   1   8
ATOM      8  C   UNL d   1     -41.482-122.429 -52.926  0.00  0.00     0.060 A 
ATOM      9  C   UNL d   1     -41.289-123.070 -52.485  0.00  0.00     0.206 A 
ATOM     10  N   UNL d   1     -41.127-122.995 -51.713  0.00  0.00    -0.127 NA
ATOM     11  N   UNL d   1     -41.260-123.817 -52.840  0.00  0.00    -0.125 N 
ATOM     12  N   UNL d   1     -41.158-122.275 -51.384  0.00  0.00    -0.145 NA
ATOM     13  C   UNL d   1     -41.348-121.636 -51.820  0.00  0.00     0.125 A 
ENDBRANCH   1   8
TORSDOF 1
ENDMDL
MODEL 3
REMARK VINA RESULT:      -4.5      2.811      3.920
REMARK  1 active torsions:
REMARK  status: ('A' for Active; 'I' for Inactive)
REMARK    1  A    between atoms: C_5  and  C_1 
ROOT
ATOM      1  C   UNL d   1     -41.676-122.731 -50.770  0.00  0.00     0.005 A 
ATOM      2  C   UNL d   1     -41.123-123.123 -50.299  0.00  0.00     0.001 A 
ATOM      3  C   UNL d   1     -42.408-122.520 -50.461  0.00  0.00     0.001 A 
ATOM      4  C   UNL d   1     -42.039-123.090 -49.205  0.00  0.00     0.058 A 
ATOM      5  C   UNL d   1     -42.592-122.699 -49.676  0.00  0.00     0.011 A 
ATOM      6  C   UNL d   1     -41.301-123.302 -49.519  0.00  0.00     0.011 A 
ATOM      7 CL   UNL d   1     -42.220-123.273 -48.413  0.00  0.00    -0.082 Cl
ENDROOT
BRANCH   1   8
ATOM      8  C   UNL d   1     -41.493-122.552 -51.553  0.00  0.00     0.060 A 
ATOM      9  C   UNL d   1     -41.254-121.895 -51.943  0.00  0.00     0.206 A 
ATOM     10  N   UNL d   1     -41.123-121.914 -52.725  0.00  0.00    -0.127 NA
ATOM     11  N   UNL d   1     -41.141-121.189 -51.525  0.00  0.00    -0.125 N 
ATOM     12  N   UNL d   1     -41.234-122.594 -53.114  0.00  0.00    -0.145 NA
ATOM     13  C   UNL d   1     -41.473-123.250 -52.730  0.00  0.00     0.125 A 
ENDBRANCH   1   8
TORSDOF 1
ENDMDL
MODEL 4
REMARK VINA RESULT:      -2.6      2.786      3.588
REMARK  1 active torsions:
REMARK  status: ('A' for Active; 'I' for Inactive)
REMARK    1  A    between atoms: C_5  and  C_1 
ROOT
ATOM      1  C   UNL d   1     -42.104-122.871 -50.356  0.00  0.00     0.005 A 
ATOM      2  C   UNL d   1     -41.412-123.151 -50.707  0.00  0.00     0.001 A 
ATOM      3  C   UNL d   1     -42.540-122.275 -50.717  0.00  0.00     0.001 A 
ATOM      4  C   UNL d   1     -41.595-122.232 -51.785  0.00  0.00     0.058 A 
ATOM      5  C   UNL d   1     -42.287-121.953 -51.434  0.00  0.00     0.011 A 
ATOM      6  C   UNL d   1     -41.156-122.834 -51.419  0.00  0.00     0.011 A 
ATOM      7 CL   UNL d   1     -41.335-121.911 -52.508  0.00  0.00    -0.082 Cl
ENDROOT
BRANCH   1   8
ATOM      8  C   UNL d   1     -42.358-123.191 -49.641  0.00  0.00     0.060 A 
ATOM      9  C   UNL d   1     -43.061-123.446 -49.351  0.00  0.00     0.206 A 
ATOM     10  N   UNL d   1     -43.114-123.732 -48.614  0.00  0.00    -0.127 NA
ATOM     11  N   UNL d   1     -43.737-123.409 -49.828  0.00  0.00    -0.125 N 
ATOM     12  N   UNL d   1     -42.461-123.763 -48.168  0.00  0.00    -0.145 NA
ATOM     13  C   UNL d   1     -41.761-123.511 -48.452  0.00  0.00     0.125 A 
ENDBRANCH   1   8
TORSDOF 1
ENDMDL
