MODEL 1
REMARK VINA RESULT:      -2.6      0.000      0.000
REMARK  3 active torsions:
REMARK  status: ('A' for Active; 'I' for Inactive)
REMARK       I    between atoms: N_2  and  C_1 
REMARK       I    between atoms: N_5  and  C_1 
REMARK       I    between atoms: C_4  and  N_3 
REMARK    1  A    between atoms: O_14  and  C_4 
REMARK    2  A    between atoms: C_12  and  N_5 
REMARK    3  A    between atoms: C_20  and  O_14 
ROOT
ATOM      1  C   UNL d   1     -41.354-121.139 -51.241  0.00  0.00     0.354 C 
ATOM      2  N   UNL d   1     -41.468-121.624 -51.906  0.00  0.00    -0.253 N 
ATOM      3  N   UNL d   1     -41.684-122.549 -53.228  0.00  0.00    -0.249 N 
ATOM      4  C   UNL d   1     -41.795-123.025 -53.920  0.00  0.00     0.378 C 
ATOM      5  N   UNL d   1     -41.475-121.460 -50.468  0.00  0.00    -0.192 NA
ATOM      6  O   UNL d   1     -41.123-120.342 -51.304  0.00  0.00    -0.244 OA
ATOM      7  C   UNL d   1     -41.699-122.419 -51.833  0.00  0.00     0.104 A 
ATOM      8  C   UNL d   1     -41.348-121.303 -52.644  0.00  0.00     0.104 A 
ATOM      9  C   UNL d   1     -41.460-121.779 -53.318  0.00  0.00     0.104 A 
ATOM     10  C   UNL d   1     -41.803-122.869 -52.507  0.00  0.00     0.104 A 
ATOM     11  O   UNL d   1     -42.021-123.805 -53.873  0.00  0.00    -0.237 OA
ENDROOT
BRANCH   5  12
ATOM     12  C   UNL d   1     -41.697-122.222 -50.387  0.00  0.00     0.087 A 
ATOM     13  C   UNL d   1     -42.476-122.438 -50.238  0.00  0.00     0.031 A 
ATOM     14  C   UNL d   1     -42.682-123.208 -50.159  0.00  0.00     0.059 A 
ATOM     15 CL   UNL d   1     -43.487-123.391 -50.008  0.00  0.00    -0.082 Cl
ATOM     16  C   UNL d   1     -42.117-123.805 -50.225  0.00  0.00     0.011 A 
ATOM     17  C   UNL d   1     -41.329-123.594 -50.375  0.00  0.00     0.002 A 
ATOM     18  C   UNL d   1     -41.123-122.824 -50.454  0.00  0.00     0.019 A 
ENDBRANCH   5  12
BRANCH   4  19
ATOM     19  O   UNL d   1     -41.670-122.687 -54.665  0.00  0.00    -0.257 OA
BRANCH  19  20
ATOM     20  C   UNL d   1     -42.274-122.679 -55.214  0.00  0.00     0.128 C 
ATOM     21  C   UNL d   1     -42.252-122.160 -55.855  0.00  0.00     0.029 C 
ENDBRANCH  19  20
ENDBRANCH   4  19
TORSDOF 3
ENDMDL
