MODEL 1
REMARK VINA RESULT:      68.1      0.000      0.000
REMARK  9 active torsions:
REMARK  status: ('A' for Active; 'I' for Inactive)
REMARK    1  A    between atoms: C_5  and  C_1 
REMARK    2  A    between atoms: N_6  and  C_2 
REMARK    3  A    between atoms: C_7  and  C_5 
REMARK    4  A    between atoms: C_8  and  C_5 
REMARK    5  A    between atoms: O_13  and  C_7 
REMARK    6  A    between atoms: C_17  and  N_12 
REMARK    7  A    between atoms: C_20  and  O_13 
REMARK    8  A    between atoms: C_21  and  C_17 
REMARK    9  A    between atoms: C_24  and  C_20 
ROOT
ATOM      1  C   UNL d   1      13.993  14.575  -3.685  0.00  0.00     0.117 A 
ATOM      2  C   UNL d   1      13.563  14.569  -4.385  0.00  0.00     0.145 A 
ATOM      3  N   UNL d   1      13.153  13.888  -4.619  0.00  0.00    -0.230 NA
ATOM      4  N   UNL d   1      14.017  13.895  -3.212  0.00  0.00    -0.241 NA
ATOM      5  C   UNL d   1      13.177  13.209  -4.146  0.00  0.00     0.100 A 
ATOM      6  C   UNL d   1      13.614  13.219  -3.437  0.00  0.00     0.099 A 
ATOM      7  C   UNL d   1      12.769  12.526  -4.375  0.00  0.00     0.021 A 
ATOM      8  C   UNL d   1      13.637  12.546  -2.970  0.00  0.00     0.021 A 
ATOM      9  C   UNL d   1      12.798  11.858  -3.901  0.00  0.00     0.002 A 
ATOM     10  C   UNL d   1      13.232  11.860  -3.193  0.00  0.00     0.002 A 
ENDROOT
BRANCH   2  11
ATOM     11  N   UNL d   1      13.637  15.314  -4.739  0.00  0.00    -0.189 NA
ATOM     12  C   UNL d   1      13.564  15.867  -5.107  0.00  0.00     0.076 A 
ATOM     13  C   UNL d   1      14.112  16.746  -5.148  0.00  0.00     0.093 A 
ATOM     14  N   UNL d   1      13.599  17.117  -5.775  0.00  0.00    -0.301 N 
ATOM     15  C   UNL d   1      13.704  16.579  -5.390  0.00  0.00     0.093 A 
ATOM     16  C   UNL d   1      13.142  15.630  -5.321  0.00  0.00     0.076 A 
BRANCH  14  17
ATOM     17  C   UNL d   1      13.277  17.640  -6.332  0.00  0.00     0.080 C 
BRANCH  17  18
ATOM     18  C   UNL d   1      13.417  18.450  -6.260  0.00  0.00     0.018 A 
ATOM     19  C   UNL d   1      12.792  18.979  -6.326  0.00  0.00     0.002 A 
ATOM     20  C   UNL d   1      12.936  19.788  -6.253  0.00  0.00     0.000 A 
ATOM     21  C   UNL d   1      13.703  20.063  -6.116  0.00  0.00     0.000 A 
ATOM     22  C   UNL d   1      14.325  19.525  -6.051  0.00  0.00     0.000 A 
ATOM     23  C   UNL d   1      14.181  18.717  -6.124  0.00  0.00     0.002 A 
ENDBRANCH  17  18
ENDBRANCH  14  17
ENDBRANCH   2  11
BRANCH   1  24
ATOM     24  C   UNL d   1      14.337  15.322  -3.601  0.00  0.00     0.104 C 
BRANCH  24  25
ATOM     25  C   UNL d   1      14.265  15.822  -2.936  0.00  0.00     0.303 C 
ATOM     26  O   UNL d   1      13.923  16.567  -3.017  0.00  0.00    -0.259 OA
BRANCH  25  27
ATOM     27  O   UNL d   1      14.539  15.565  -2.198  0.00  0.00    -0.271 OA
BRANCH  27  28
ATOM     28  C   UNL d   1      14.609  16.096  -1.572  0.00  0.00     0.126 C 
BRANCH  28  29
ATOM     29  C   UNL d   1      15.100  15.924  -0.933  0.00  0.00     0.025 C 
ATOM     30  C   UNL d   1      15.714  16.434  -0.738  0.00  0.00     0.002 C 
ATOM     31  C   UNL d   1      14.974  15.239  -0.489  0.00  0.00     0.002 C 
ENDBRANCH  28  29
ENDBRANCH  27  28
ENDBRANCH  25  27
ENDBRANCH  24  25
BRANCH  24  32
ATOM     32  C   UNL d   1      14.763  15.490  -4.285  0.00  0.00     0.129 C 
ATOM     33  N   UNL d   1      15.585  15.594  -4.343  0.00  0.00    -0.146 N 
ENDBRANCH  24  32
ENDBRANCH   1  24
TORSDOF 9
ENDMDL
MODEL 2
REMARK VINA RESULT:      70.2      0.905      4.752
REMARK  9 active torsions:
REMARK  status: ('A' for Active; 'I' for Inactive)
REMARK    1  A    between atoms: C_5  and  C_1 
REMARK    2  A    between atoms: N_6  and  C_2 
REMARK    3  A    between atoms: C_7  and  C_5 
REMARK    4  A    between atoms: C_8  and  C_5 
REMARK    5  A    between atoms: O_13  and  C_7 
REMARK    6  A    between atoms: C_17  and  N_12 
REMARK    7  A    between atoms: C_20  and  O_13 
REMARK    8  A    between atoms: C_21  and  C_17 
REMARK    9  A    between atoms: C_24  and  C_20 
ROOT
ATOM      1  C   UNL d   1      14.707  17.558  -4.689  0.00  0.00     0.117 A 
ATOM      2  C   UNL d   1      14.091  17.313  -5.173  0.00  0.00     0.145 A 
ATOM      3  N   UNL d   1      13.756  17.835  -5.722  0.00  0.00    -0.230 NA
ATOM      4  N   UNL d   1      14.995  18.332  -4.751  0.00  0.00    -0.241 NA
ATOM      5  C   UNL d   1      14.044  18.610  -5.784  0.00  0.00     0.100 A 
ATOM      6  C   UNL d   1      14.669  18.854  -5.292  0.00  0.00     0.099 A 
ATOM      7  C   UNL d   1      13.713  19.135  -6.331  0.00  0.00     0.021 A 
ATOM      8  C   UNL d   1      14.953  19.620  -5.354  0.00  0.00     0.021 A 
ATOM      9  C   UNL d   1      14.004  19.899  -6.386  0.00  0.00     0.002 A 
ATOM     10  C   UNL d   1      14.627  20.151  -5.898  0.00  0.00     0.002 A 
ENDROOT
BRANCH   2  11
ATOM     11  N   UNL d   1      13.920  16.523  -4.992  0.00  0.00    -0.189 NA
ATOM     12  C   UNL d   1      13.711  15.888  -4.993  0.00  0.00     0.076 A 
ATOM     13  C   UNL d   1      13.803  15.130  -4.293  0.00  0.00     0.093 A 
ATOM     14  N   UNL d   1      13.366  14.529  -4.785  0.00  0.00    -0.301 N 
ATOM     15  C   UNL d   1      13.590  15.158  -4.748  0.00  0.00     0.093 A 
ATOM     16  C   UNL d   1      13.510  15.989  -5.473  0.00  0.00     0.076 A 
BRANCH  14  17
ATOM     17  C   UNL d   1      13.006  13.832  -5.054  0.00  0.00     0.080 C 
BRANCH  17  18
ATOM     18  C   UNL d   1      13.054  13.145  -4.600  0.00  0.00     0.018 A 
ATOM     19  C   UNL d   1      13.378  12.464  -4.924  0.00  0.00     0.002 A 
ATOM     20  C   UNL d   1      13.424  11.779  -4.466  0.00  0.00     0.000 A 
ATOM     21  C   UNL d   1      13.146  11.780  -3.688  0.00  0.00     0.000 A 
ATOM     22  C   UNL d   1      12.821  12.468  -3.371  0.00  0.00     0.000 A 
ATOM     23  C   UNL d   1      12.776  13.152  -3.828  0.00  0.00     0.002 A 
ENDBRANCH  17  18
ENDBRANCH  14  17
ENDBRANCH   2  11
BRANCH   1  24
ATOM     24  C   UNL d   1      14.922  16.923  -4.205  0.00  0.00     0.104 C 
BRANCH  24  25
ATOM     25  C   UNL d   1      14.710  16.825  -3.403  0.00  0.00     0.303 C 
ATOM     26  O   UNL d   1      13.929  16.946  -3.167  0.00  0.00    -0.259 OA
BRANCH  25  27
ATOM     27  O   UNL d   1      15.286  16.607  -2.850  0.00  0.00    -0.271 OA
BRANCH  27  28
ATOM     28  C   UNL d   1      15.321  16.982  -2.116  0.00  0.00     0.126 C 
BRANCH  28  29
ATOM     29  C   UNL d   1      15.381  16.538  -1.425  0.00  0.00     0.025 C 
ATOM     30  C   UNL d   1      15.317  16.907  -0.694  0.00  0.00     0.002 C 
ATOM     31  C   UNL d   1      15.504  15.722  -1.468  0.00  0.00     0.002 C 
ENDBRANCH  28  29
ENDBRANCH  27  28
ENDBRANCH  25  27
ENDBRANCH  24  25
BRANCH  24  32
ATOM     32  C   UNL d   1      15.381  16.403  -4.649  0.00  0.00     0.129 C 
ATOM     33  N   UNL d   1      16.183  16.498  -4.848  0.00  0.00    -0.146 N 
ENDBRANCH  24  32
ENDBRANCH   1  24
TORSDOF 9
ENDMDL
