MODEL 1
REMARK VINA RESULT:      -8.9      0.000      0.000
REMARK  4 active torsions:
REMARK  status: ('A' for Active; 'I' for Inactive)
REMARK    1  A    between atoms: C_4  and  N_1 
REMARK    2  A    between atoms: S_8  and  C_5 
REMARK    3  A    between atoms: C_10  and  C_7 
REMARK    4  A    between atoms: C_9  and  S_8 
ROOT
ATOM      1  N   UNL d   1      51.866  33.626  53.026  0.00  0.00    -0.241 N 
ATOM      2  C   UNL d   1      51.981  34.252  52.507  0.00  0.00     0.268 A 
ATOM      3  C   UNL d   1      51.091  33.666  53.314  0.00  0.00     0.273 A 
ATOM      4  C   UNL d   1      50.730  34.318  52.970  0.00  0.00     0.091 A 
ATOM      5  C   UNL d   1      51.277  34.683  52.470  0.00  0.00     0.072 A 
ATOM      6  O   UNL d   1      52.675  34.423  52.094  0.00  0.00    -0.267 OA
ATOM      7  O   UNL d   1      50.746  33.143  53.850  0.00  0.00    -0.266 OA
ENDROOT
BRANCH   1   8
ATOM      8  C   UNL d   1      52.426  33.060  53.224  0.00  0.00     0.070 A 
ATOM      9  C   UNL d   1      52.975  33.204  53.828  0.00  0.00     0.016 A 
ATOM     10  C   UNL d   1      53.537  32.630  54.024  0.00  0.00     0.001 A 
ATOM     11  C   UNL d   1      52.954  33.920  54.229  0.00  0.00     0.001 A 
ATOM     12  C   UNL d   1      54.078  32.773  54.620  0.00  0.00     0.000 A 
ATOM     13  C   UNL d   1      53.554  31.917  53.621  0.00  0.00     0.000 A 
ATOM     14  C   UNL d   1      54.065  33.492  55.030  0.00  0.00     0.000 A 
ATOM     15  C   UNL d   1      53.499  34.065  54.831  0.00  0.00     0.000 A 
ATOM     16  C   UNL d   1      53.009  31.765  53.015  0.00  0.00     0.002 A 
ATOM     17  C   UNL d   1      52.447  32.337  52.819  0.00  0.00     0.018 A 
ENDBRANCH   1   8
BRANCH   4  18
ATOM     18  S   UNL d   1      49.950  34.570  53.100  0.00  0.00    -0.082 SA
BRANCH  18  19
ATOM     19  C   UNL d   1      49.508  34.658  52.414  0.00  0.00     0.035 A 
ATOM     20  C   UNL d   1      48.846  35.148  52.417  0.00  0.00     0.070 A 
ATOM     21  C   UNL d   1      48.404  35.235  51.727  0.00  0.00     0.007 A 
ATOM     22  C   UNL d   1      48.621  34.836  51.042  0.00  0.00     0.000 A 
ATOM     23  C   UNL d   1      49.281  34.348  51.045  0.00  0.00     0.001 A 
ATOM     24  C   UNL d   1      49.724  34.256  51.720  0.00  0.00     0.007 A 
BRANCH  20  25
ATOM     25  C   UNL d   1      48.631  35.547  53.104  0.00  0.00     0.211 C 
ATOM     26  O   UNL d   1      48.934  36.300  53.254  0.00  0.00    -0.644 OA
ATOM     27  O   UNL d   1      48.112  35.192  53.640  0.00  0.00    -0.644 OA
ENDBRANCH  20  25
ENDBRANCH  18  19
ENDBRANCH   4  18
TORSDOF 4
ENDMDL
MODEL 2
REMARK VINA RESULT:      -7.9      1.280      4.788
REMARK  4 active torsions:
REMARK  status: ('A' for Active; 'I' for Inactive)
REMARK    1  A    between atoms: C_4  and  N_1 
REMARK    2  A    between atoms: S_8  and  C_5 
REMARK    3  A    between atoms: C_10  and  C_7 
REMARK    4  A    between atoms: C_9  and  S_8 
ROOT
ATOM      1  N   UNL d   1      50.906  34.031  52.774  0.00  0.00    -0.241 N 
ATOM      2  C   UNL d   1      51.632  34.290  52.490  0.00  0.00     0.268 A 
ATOM      3  C   UNL d   1      50.986  33.242  53.011  0.00  0.00     0.273 A 
ATOM      4  C   UNL d   1      51.763  33.017  52.873  0.00  0.00     0.091 A 
ATOM      5  C   UNL d   1      52.166  33.662  52.551  0.00  0.00     0.072 A 
ATOM      6  O   UNL d   1      51.801  35.043  52.197  0.00  0.00    -0.267 OA
ATOM      7  O   UNL d   1      50.390  32.769  53.329  0.00  0.00    -0.266 OA
ENDROOT
BRANCH   1   8
ATOM      8  C   UNL d   1      50.220  34.480  52.814  0.00  0.00     0.070 A 
ATOM      9  C   UNL d   1      49.713  34.531  52.160  0.00  0.00     0.016 A 
ATOM     10  C   UNL d   1      49.023  34.985  52.206  0.00  0.00     0.001 A 
ATOM     11  C   UNL d   1      49.902  34.128  51.471  0.00  0.00     0.001 A 
ATOM     12  C   UNL d   1      48.523  35.035  51.560  0.00  0.00     0.000 A 
ATOM     13  C   UNL d   1      48.838  35.386  52.896  0.00  0.00     0.000 A 
ATOM     14  C   UNL d   1      48.704  34.633  50.861  0.00  0.00     0.000 A 
ATOM     15  C   UNL d   1      49.398  34.178  50.819  0.00  0.00     0.000 A 
ATOM     16  C   UNL d   1      49.341  35.339  53.554  0.00  0.00     0.002 A 
ATOM     17  C   UNL d   1      50.030  34.886  53.510  0.00  0.00     0.018 A 
ENDBRANCH   1   8
BRANCH   4  18
ATOM     18  S   UNL d   1      52.091  32.271  53.028  0.00  0.00    -0.082 SA
BRANCH  18  19
ATOM     19  C   UNL d   1      52.821  32.296  53.402  0.00  0.00     0.035 A 
ATOM     20  C   UNL d   1      53.296  31.624  53.414  0.00  0.00     0.070 A 
ATOM     21  C   UNL d   1      54.029  31.653  53.791  0.00  0.00     0.007 A 
ATOM     22  C   UNL d   1      54.283  32.346  54.152  0.00  0.00     0.000 A 
ATOM     23  C   UNL d   1      53.805  33.014  54.137  0.00  0.00     0.001 A 
ATOM     24  C   UNL d   1      53.081  32.996  53.768  0.00  0.00     0.007 A 
BRANCH  20  25
ATOM     25  C   UNL d   1      53.040  30.931  53.053  0.00  0.00     0.211 C 
ATOM     26  O   UNL d   1      52.673  30.344  53.503  0.00  0.00    -0.644 OA
ATOM     27  O   UNL d   1      53.150  30.825  52.241  0.00  0.00    -0.644 OA
ENDBRANCH  20  25
ENDBRANCH  18  19
ENDBRANCH   4  18
TORSDOF 4
ENDMDL
MODEL 3
REMARK VINA RESULT:      -7.8      1.255      4.590
REMARK  4 active torsions:
REMARK  status: ('A' for Active; 'I' for Inactive)
REMARK    1  A    between atoms: C_4  and  N_1 
REMARK    2  A    between atoms: S_8  and  C_5 
REMARK    3  A    between atoms: C_10  and  C_7 
REMARK    4  A    between atoms: C_9  and  S_8 
ROOT
ATOM      1  N   UNL d   1      50.883  34.046  52.809  0.00  0.00    -0.241 N 
ATOM      2  C   UNL d   1      50.888  33.374  53.281  0.00  0.00     0.268 A 
ATOM      3  C   UNL d   1      51.590  34.457  52.935  0.00  0.00     0.273 A 
ATOM      4  C   UNL d   1      52.030  34.036  53.486  0.00  0.00     0.091 A 
ATOM      5  C   UNL d   1      51.599  33.365  53.702  0.00  0.00     0.072 A 
ATOM      6  O   UNL d   1      50.290  32.807  53.328  0.00  0.00    -0.267 OA
ATOM      7  O   UNL d   1      51.812  35.163  52.571  0.00  0.00    -0.266 OA
ENDROOT
BRANCH   1   8
ATOM      8  C   UNL d   1      50.279  34.270  52.300  0.00  0.00     0.070 A 
ATOM      9  C   UNL d   1      49.658  34.748  52.570  0.00  0.00     0.016 A 
ATOM     10  C   UNL d   1      49.051  34.971  52.053  0.00  0.00     0.001 A 
ATOM     11  C   UNL d   1      49.652  34.998  53.352  0.00  0.00     0.001 A 
ATOM     12  C   UNL d   1      48.439  35.443  52.321  0.00  0.00     0.000 A 
ATOM     13  C   UNL d   1      49.061  34.719  51.274  0.00  0.00     0.000 A 
ATOM     14  C   UNL d   1      48.424  35.700  53.107  0.00  0.00     0.000 A 
ATOM     15  C   UNL d   1      49.034  35.474  53.622  0.00  0.00     0.000 A 
ATOM     16  C   UNL d   1      49.679  34.240  50.997  0.00  0.00     0.002 A 
ATOM     17  C   UNL d   1      50.285  34.017  51.511  0.00  0.00     0.018 A 
ENDBRANCH   1   8
BRANCH   4  18
ATOM     18  S   UNL d   1      52.778  34.244  53.777  0.00  0.00    -0.082 SA
BRANCH  18  19
ATOM     19  C   UNL d   1      53.306  33.618  53.825  0.00  0.00     0.035 A 
ATOM     20  C   UNL d   1      53.902  33.630  54.392  0.00  0.00     0.070 A 
ATOM     21  C   UNL d   1      54.430  32.999  54.437  0.00  0.00     0.007 A 
ATOM     22  C   UNL d   1      54.364  32.363  53.921  0.00  0.00     0.000 A 
ATOM     23  C   UNL d   1      53.767  32.357  53.356  0.00  0.00     0.001 A 
ATOM     24  C   UNL d   1      53.241  32.973  53.304  0.00  0.00     0.007 A 
BRANCH  20  25
ATOM     25  C   UNL d   1      53.967  34.267  54.909  0.00  0.00     0.211 C 
ATOM     26  O   UNL d   1      53.601  34.236  55.648  0.00  0.00    -0.644 OA
ATOM     27  O   UNL d   1      54.398  34.935  54.686  0.00  0.00    -0.644 OA
ENDBRANCH  20  25
ENDBRANCH  18  19
ENDBRANCH   4  18
TORSDOF 4
ENDMDL
MODEL 4
REMARK VINA RESULT:      -7.7      2.925      4.906
REMARK  4 active torsions:
REMARK  status: ('A' for Active; 'I' for Inactive)
REMARK    1  A    between atoms: C_4  and  N_1 
REMARK    2  A    between atoms: S_8  and  C_5 
REMARK    3  A    between atoms: C_10  and  C_7 
REMARK    4  A    between atoms: C_9  and  S_8 
ROOT
ATOM      1  N   UNL d   1      54.003  32.767  54.130  0.00  0.00    -0.241 N 
ATOM      2  C   UNL d   1      54.436  32.513  53.480  0.00  0.00     0.268 A 
ATOM      3  C   UNL d   1      53.701  32.101  54.517  0.00  0.00     0.273 A 
ATOM      4  C   UNL d   1      53.949  31.437  54.103  0.00  0.00     0.091 A 
ATOM      5  C   UNL d   1      54.403  31.688  53.461  0.00  0.00     0.072 A 
ATOM      6  O   UNL d   1      54.833  32.995  52.939  0.00  0.00    -0.267 OA
ATOM      7  O   UNL d   1      53.235  32.106  55.197  0.00  0.00    -0.266 OA
ENDROOT
BRANCH   1   8
ATOM      8  C   UNL d   1      53.892  33.549  54.355  0.00  0.00     0.070 A 
ATOM      9  C   UNL d   1      53.285  34.001  54.016  0.00  0.00     0.016 A 
ATOM     10  C   UNL d   1      53.177  34.788  54.246  0.00  0.00     0.001 A 
ATOM     11  C   UNL d   1      52.796  33.661  53.452  0.00  0.00     0.001 A 
ATOM     12  C   UNL d   1      52.579  35.233  53.911  0.00  0.00     0.000 A 
ATOM     13  C   UNL d   1      53.668  35.124  54.810  0.00  0.00     0.000 A 
ATOM     14  C   UNL d   1      52.080  34.900  53.342  0.00  0.00     0.000 A 
ATOM     15  C   UNL d   1      52.192  34.110  53.114  0.00  0.00     0.000 A 
ATOM     16  C   UNL d   1      54.277  34.677  55.153  0.00  0.00     0.002 A 
ATOM     17  C   UNL d   1      54.386  33.892  54.924  0.00  0.00     0.018 A 
ENDBRANCH   1   8
BRANCH   4  18
ATOM     18  S   UNL d   1      53.775  30.649  54.294  0.00  0.00    -0.082 SA
BRANCH  18  19
ATOM     19  C   UNL d   1      53.353  30.249  53.714  0.00  0.00     0.035 A 
ATOM     20  C   UNL d   1      53.129  29.467  53.841  0.00  0.00     0.070 A 
ATOM     21  C   UNL d   1      52.705  29.068  53.257  0.00  0.00     0.007 A 
ATOM     22  C   UNL d   1      52.508  29.446  52.555  0.00  0.00     0.000 A 
ATOM     23  C   UNL d   1      52.735  30.227  52.434  0.00  0.00     0.001 A 
ATOM     24  C   UNL d   1      53.152  30.628  53.003  0.00  0.00     0.007 A 
BRANCH  20  25
ATOM     25  C   UNL d   1      53.327  29.089  54.545  0.00  0.00     0.211 C 
ATOM     26  O   UNL d   1      52.812  29.125  55.189  0.00  0.00    -0.644 OA
ATOM     27  O   UNL d   1      54.039  28.676  54.603  0.00  0.00    -0.644 OA
ENDBRANCH  20  25
ENDBRANCH  18  19
ENDBRANCH   4  18
TORSDOF 4
ENDMDL
MODEL 5
REMARK VINA RESULT:      -7.5      2.219      3.679
REMARK  4 active torsions:
REMARK  status: ('A' for Active; 'I' for Inactive)
REMARK    1  A    between atoms: C_4  and  N_1 
REMARK    2  A    between atoms: S_8  and  C_5 
REMARK    3  A    between atoms: C_10  and  C_7 
REMARK    4  A    between atoms: C_9  and  S_8 
ROOT
ATOM      1  N   UNL d   1      53.146  31.365  53.299  0.00  0.00    -0.241 N 
ATOM      2  C   UNL d   1      53.846  31.794  53.292  0.00  0.00     0.268 A 
ATOM      3  C   UNL d   1      52.515  31.897  53.354  0.00  0.00     0.273 A 
ATOM      4  C   UNL d   1      52.829  32.655  53.381  0.00  0.00     0.091 A 
ATOM      5  C   UNL d   1      53.652  32.596  53.343  0.00  0.00     0.072 A 
ATOM      6  O   UNL d   1      54.609  31.482  53.242  0.00  0.00    -0.267 OA
ATOM      7  O   UNL d   1      51.715  31.700  53.378  0.00  0.00    -0.266 OA
ENDROOT
BRANCH   1   8
ATOM      8  C   UNL d   1      53.085  30.547  53.258  0.00  0.00     0.070 A 
ATOM      9  C   UNL d   1      53.167  30.085  53.942  0.00  0.00     0.016 A 
ATOM     10  C   UNL d   1      53.105  29.261  53.895  0.00  0.00     0.001 A 
ATOM     11  C   UNL d   1      53.310  30.452  54.661  0.00  0.00     0.001 A 
ATOM     12  C   UNL d   1      53.186  28.807  54.570  0.00  0.00     0.000 A 
ATOM     13  C   UNL d   1      52.962  28.899  53.174  0.00  0.00     0.000 A 
ATOM     14  C   UNL d   1      53.331  29.167  55.300  0.00  0.00     0.000 A 
ATOM     15  C   UNL d   1      53.393  29.993  55.342  0.00  0.00     0.000 A 
ATOM     16  C   UNL d   1      52.879  29.355  52.486  0.00  0.00     0.002 A 
ATOM     17  C   UNL d   1      52.940  30.177  52.531  0.00  0.00     0.018 A 
ENDBRANCH   1   8
BRANCH   4  18
ATOM     18  S   UNL d   1      52.398  33.362  53.437  0.00  0.00    -0.082 SA
BRANCH  18  19
ATOM     19  C   UNL d   1      52.746  33.930  53.917  0.00  0.00     0.035 A 
ATOM     20  C   UNL d   1      52.605  34.728  53.771  0.00  0.00     0.070 A 
ATOM     21  C   UNL d   1      52.956  35.295  54.255  0.00  0.00     0.007 A 
ATOM     22  C   UNL d   1      53.441  35.068  54.878  0.00  0.00     0.000 A 
ATOM     23  C   UNL d   1      53.578  34.271  55.019  0.00  0.00     0.001 A 
ATOM     24  C   UNL d   1      53.237  33.704  54.548  0.00  0.00     0.007 A 
BRANCH  20  25
ATOM     25  C   UNL d   1      52.118  34.954  53.147  0.00  0.00     0.211 C 
ATOM     26  O   UNL d   1      52.442  35.074  52.397  0.00  0.00    -0.644 OA
ATOM     27  O   UNL d   1      51.309  35.059  53.274  0.00  0.00    -0.644 OA
ENDBRANCH  20  25
ENDBRANCH  18  19
ENDBRANCH   4  18
TORSDOF 4
ENDMDL
