MODEL 1
REMARK VINA RESULT:      -2.7      0.000      0.000
REMARK  2 active torsions:
REMARK  status: ('A' for Active; 'I' for Inactive)
REMARK    1  A    between atoms: C_2  and  S_1 
REMARK    2  A    between atoms: C_7  and  C_3 
ROOT
ATOM      1  C   UNL d   1      30.869  16.475 -24.077  0.00  0.00     0.117 A 
ATOM      2  C   UNL d   1      29.436  16.535 -24.094  0.00  0.00     0.076 A 
ATOM      3  C   UNL d   1      30.137  16.150 -23.884  0.00  0.00     0.021 A 
ATOM      4  C   UNL d   1      30.909  17.190 -24.483  0.00  0.00     0.071 A 
ATOM      5  C   UNL d   1      29.475  17.251 -24.500  0.00  0.00     0.065 A 
ATOM      6  C   UNL d   1      30.215  17.580 -24.695  0.00  0.00     0.024 A 
ATOM      7 CL   UNL d   1      28.782  17.640 -24.711  0.00  0.00    -0.082 Cl
ATOM      8 CL   UNL d   1      31.641  17.516 -24.676  0.00  0.00    -0.082 Cl
ENDROOT
BRANCH   1   9
ATOM      9  S   UNL d   1      31.565  16.082 -23.863  0.00  0.00     0.303 S 
ATOM     10  O   UNL d   1      31.591  16.500 -23.160  0.00  0.00    -0.197 OA
ATOM     11  O   UNL d   1      31.548  15.651 -24.578  0.00  0.00    -0.197 OA
ATOM     12  N   UNL d   1      32.260  15.685 -23.658  0.00  0.00    -0.043 N 
ENDBRANCH   1   9
BRANCH   2  13
ATOM     13  C   UNL d   1      28.705  16.207 -23.898  0.00  0.00     0.212 C 
ATOM     14  O   UNL d   1      28.314  16.439 -23.213  0.00  0.00    -0.644 OA
ATOM     15  O   UNL d   1      28.365  15.641 -24.397  0.00  0.00    -0.644 OA
ENDBRANCH   2  13
TORSDOF 2
ENDMDL
MODEL 2
REMARK VINA RESULT:      -2.7      1.376      2.609
REMARK  2 active torsions:
REMARK  status: ('A' for Active; 'I' for Inactive)
REMARK    1  A    between atoms: C_2  and  S_1 
REMARK    2  A    between atoms: C_7  and  C_3 
ROOT
ATOM      1  C   UNL d   1      29.400  16.319 -24.021  0.00  0.00     0.117 A 
ATOM      2  C   UNL d   1      30.833  16.356 -24.069  0.00  0.00     0.076 A 
ATOM      3  C   UNL d   1      30.130  15.958 -23.892  0.00  0.00     0.021 A 
ATOM      4  C   UNL d   1      29.365  17.083 -24.327  0.00  0.00     0.071 A 
ATOM      5  C   UNL d   1      30.799  17.120 -24.376  0.00  0.00     0.065 A 
ATOM      6  C   UNL d   1      30.061  17.485 -24.505  0.00  0.00     0.024 A 
ATOM      7 CL   UNL d   1      31.495  17.521 -24.553  0.00  0.00    -0.082 Cl
ATOM      8 CL   UNL d   1      28.635  17.443 -24.456  0.00  0.00    -0.082 Cl
ENDROOT
BRANCH   1   9
ATOM      9  S   UNL d   1      28.701  15.914 -23.841  0.00  0.00     0.303 S 
ATOM     10  O   UNL d   1      28.721  16.208 -23.077  0.00  0.00    -0.197 OA
ATOM     11  O   UNL d   1      28.673  15.609 -24.618  0.00  0.00    -0.197 OA
ATOM     12  N   UNL d   1      28.003  15.505 -23.671  0.00  0.00    -0.043 N 
ENDBRANCH   1   9
BRANCH   2  13
ATOM     13  C   UNL d   1      31.562  15.992 -23.939  0.00  0.00     0.212 C 
ATOM     14  O   UNL d   1      31.956  16.094 -23.224  0.00  0.00    -0.644 OA
ATOM     15  O   UNL d   1      31.896  15.522 -24.532  0.00  0.00    -0.644 OA
ENDBRANCH   2  13
TORSDOF 2
ENDMDL
MODEL 3
REMARK VINA RESULT:      -2.3      1.983      3.308
REMARK  2 active torsions:
REMARK  status: ('A' for Active; 'I' for Inactive)
REMARK    1  A    between atoms: C_2  and  S_1 
REMARK    2  A    between atoms: C_7  and  C_3 
ROOT
ATOM      1  C   UNL d   1      31.086  16.917 -24.193  0.00  0.00     0.117 A 
ATOM      2  C   UNL d   1      32.258  17.732 -24.041  0.00  0.00     0.076 A 
ATOM      3  C   UNL d   1      31.537  17.572 -24.414  0.00  0.00     0.021 A 
ATOM      4  C   UNL d   1      31.352  16.414 -23.598  0.00  0.00     0.071 A 
ATOM      5  C   UNL d   1      32.524  17.229 -23.445  0.00  0.00     0.065 A 
ATOM      6  C   UNL d   1      32.069  16.567 -23.222  0.00  0.00     0.024 A 
ATOM      7 CL   UNL d   1      33.240  17.383 -23.070  0.00  0.00    -0.082 Cl
ATOM      8 CL   UNL d   1      30.902  15.760 -23.378  0.00  0.00    -0.082 Cl
ENDROOT
BRANCH   1   9
ATOM      9  S   UNL d   1      30.367  16.764 -24.572  0.00  0.00     0.303 S 
ATOM     10  O   UNL d   1      30.743  16.262 -25.097  0.00  0.00    -0.197 OA
ATOM     11  O   UNL d   1      29.974  17.275 -24.041  0.00  0.00    -0.197 OA
ATOM     12  N   UNL d   1      29.643  16.618 -24.943  0.00  0.00    -0.043 N 
ENDBRANCH   1   9
BRANCH   2  13
ATOM     13  C   UNL d   1      32.705  18.388 -24.264  0.00  0.00     0.212 C 
ATOM     14  O   UNL d   1      33.207  18.347 -24.914  0.00  0.00    -0.644 OA
ATOM     15  O   UNL d   1      32.647  19.089 -23.829  0.00  0.00    -0.644 OA
ENDBRANCH   2  13
TORSDOF 2
ENDMDL
