MODEL 1
REMARK VINA RESULT:      34.3      0.000      0.000
REMARK  3 active torsions:
REMARK  status: ('A' for Active; 'I' for Inactive)
REMARK    1  A    between atoms: C_13  and  C_4 
REMARK    2  A    between atoms: O_15  and  C_13 
REMARK    3  A    between atoms: C_16  and  O_15 
ROOT
ATOM      1  C   UNL d   1     -54.921-101.209 -41.387  0.00  0.00     0.144 C 
ENDROOT
BRANCH   1   2
ATOM      2  C   UNL d   1     -54.879-101.136 -42.197  0.00  0.00     0.142 A 
ATOM      3  N   UNL d   1     -54.891-101.741 -42.754  0.00  0.00    -0.057 NA
ATOM      4  C   UNL d   1     -54.836-101.421 -43.512  0.00  0.00     0.735 A 
ATOM      5  N   UNL d   1     -54.787-100.590 -43.442  0.00  0.00    -0.136 N 
ATOM      6  N   UNL d   1     -54.823-101.764 -44.256  0.00  0.00    -0.059 NA
ATOM      7  C   UNL d   1     -54.815-100.433 -42.626  0.00  0.00     0.120 A 
ATOM      8  C   UNL d   1     -54.726-100.114 -44.111  0.00  0.00     0.100 A 
ATOM      9  C   UNL d   1     -54.712-100.433 -44.848  0.00  0.00     0.041 A 
ATOM     10  C   UNL d   1     -54.760-101.281 -44.944  0.00  0.00     0.119 A 
ENDBRANCH   1   2
BRANCH   1  11
ATOM     11  O   UNL d   1     -54.712-101.911 -41.024  0.00  0.00    -0.303 OA
BRANCH  11  12
ATOM     12  C   UNL d   1     -55.005-102.104 -40.277  0.00  0.00     0.100 A 
ATOM     13  C   UNL d   1     -54.719-101.707 -39.624  0.00  0.00     0.025 A 
ATOM     14  C   UNL d   1     -55.009-101.897 -38.876  0.00  0.00     0.013 A 
ATOM     15  C   UNL d   1     -54.712-101.485 -38.198  0.00  0.00     0.001 C 
ATOM     16  C   UNL d   1     -55.587-102.484 -38.782  0.00  0.00     0.058 A 
ATOM     17  C   UNL d   1     -55.871-102.880 -39.436  0.00  0.00     0.013 A 
ATOM     18 CL   UNL d   1     -55.891-102.689 -38.033  0.00  0.00    -0.082 Cl
ATOM     19  C   UNL d   1     -55.579-102.688 -40.183  0.00  0.00     0.026 A 
ENDBRANCH  11  12
ENDBRANCH   1  11
TORSDOF 3
ENDMDL
MODEL 2
REMARK VINA RESULT:      37.1      2.622      5.071
REMARK  3 active torsions:
REMARK  status: ('A' for Active; 'I' for Inactive)
REMARK    1  A    between atoms: C_13  and  C_4 
REMARK    2  A    between atoms: O_15  and  C_13 
REMARK    3  A    between atoms: C_16  and  O_15 
ROOT
ATOM      1  C   UNL d   1     -55.488-102.116 -39.978  0.00  0.00     0.144 C 
ENDROOT
BRANCH   1   2
ATOM      2  C   UNL d   1     -55.486-102.239 -39.173  0.00  0.00     0.142 A 
ATOM      3  N   UNL d   1     -56.077-102.587 -38.720  0.00  0.00    -0.057 NA
ATOM      4  C   UNL d   1     -55.847-102.601 -37.929  0.00  0.00     0.735 A 
ATOM      5  N   UNL d   1     -55.090-102.253 -37.870  0.00  0.00    -0.136 N 
ATOM      6  N   UNL d   1     -56.216-102.879 -37.251  0.00  0.00    -0.059 NA
ATOM      7  C   UNL d   1     -54.884-102.037 -38.645  0.00  0.00     0.120 A 
ATOM      8  C   UNL d   1     -54.712-102.188 -37.141  0.00  0.00     0.100 A 
ATOM      9  C   UNL d   1     -55.059-102.455 -36.468  0.00  0.00     0.041 A 
ATOM     10  C   UNL d   1     -55.834-102.814 -36.503  0.00  0.00     0.119 A 
ENDBRANCH   1   2
BRANCH   1  11
ATOM     11  O   UNL d   1     -54.783-102.031 -40.385  0.00  0.00    -0.303 OA
BRANCH  11  12
ATOM     12  C   UNL d   1     -54.766-101.673 -41.128  0.00  0.00     0.100 A 
ATOM     13  C   UNL d   1     -54.784-102.141 -41.796  0.00  0.00     0.025 A 
ATOM     14  C   UNL d   1     -54.766-101.787 -42.540  0.00  0.00     0.013 A 
ATOM     15  C   UNL d   1     -54.785-102.273 -43.233  0.00  0.00     0.001 C 
ATOM     16  C   UNL d   1     -54.730-100.962 -42.615  0.00  0.00     0.058 A 
ATOM     17  C   UNL d   1     -54.712-100.495 -41.947  0.00  0.00     0.013 A 
ATOM     18 CL   UNL d   1     -54.712-100.587 -43.360  0.00  0.00    -0.082 Cl
ATOM     19  C   UNL d   1     -54.730-100.853 -41.203  0.00  0.00     0.026 A 
ENDBRANCH  11  12
ENDBRANCH   1  11
TORSDOF 3
ENDMDL
