MODEL 1
REMARK VINA RESULT:      -6.4      0.000      0.000
REMARK  3 active torsions:
REMARK  status: ('A' for Active; 'I' for Inactive)
REMARK    1  A    between atoms: S_5  and  C_1 
REMARK    2  A    between atoms: C_11  and  S_5 
REMARK    3  A    between atoms: C_9  and  C_11 
ROOT
ATOM      1  C   UNL d   1     -47.059  12.586  23.289  0.00  0.00     0.068 A 
ATOM      2  C   UNL d   1     -46.410  12.966  22.951  0.00  0.00     0.068 A 
ATOM      3  C   UNL d   1     -47.796  12.950  23.288  0.00  0.00     0.013 A 
ATOM      4  C   UNL d   1     -46.503  13.712  22.612  0.00  0.00     0.012 A 
ATOM      5  C   UNL d   1     -47.884  13.690  22.952  0.00  0.00     0.007 A 
ATOM      6 CL   UNL d   1     -46.970  11.835  23.631  0.00  0.00    -0.082 Cl
ATOM      7 CL   UNL d   1     -45.666  12.605  22.948  0.00  0.00    -0.082 Cl
ATOM      8  C   UNL d   1     -47.240  14.076  22.611  0.00  0.00     0.001 A 
ENDROOT
BRANCH   5   9
ATOM      9  C   UNL d   1     -48.625  14.057  22.951  0.00  0.00     0.038 C 
BRANCH   9  10
ATOM     10  S   UNL d   1     -48.766  14.872  22.860  0.00  0.00    -0.048 SA
BRANCH  10  11
ATOM     11  C   UNL d   1     -49.526  15.180  23.017  0.00  0.00     0.194 A 
ATOM     12  N   UNL d   1     -50.184  15.125  22.523  0.00  0.00    -0.218 NA
ATOM     13  C   UNL d   1     -50.820  15.506  22.896  0.00  0.00     0.122 A 
ATOM     14  C   UNL d   1     -50.550  15.798  23.625  0.00  0.00     0.122 A 
ATOM     15  N   UNL d   1     -49.752  15.595  23.698  0.00  0.00    -0.218 NA
ENDBRANCH  10  11
ENDBRANCH   9  10
ENDBRANCH   5   9
TORSDOF 3
ENDMDL
MODEL 2
REMARK VINA RESULT:      -6.2      2.533      3.906
REMARK  3 active torsions:
REMARK  status: ('A' for Active; 'I' for Inactive)
REMARK    1  A    between atoms: S_5  and  C_1 
REMARK    2  A    between atoms: C_11  and  S_5 
REMARK    3  A    between atoms: C_9  and  C_11 
ROOT
ATOM      1  C   UNL d   1     -49.695  14.300  23.240  0.00  0.00     0.068 A 
ATOM      2  C   UNL d   1     -49.747  15.095  23.029  0.00  0.00     0.068 A 
ATOM      3  C   UNL d   1     -49.000  13.883  23.106  0.00  0.00     0.013 A 
ATOM      4  C   UNL d   1     -49.100  15.470  22.682  0.00  0.00     0.012 A 
ATOM      5  C   UNL d   1     -48.361  14.258  22.763  0.00  0.00     0.007 A 
ATOM      6 CL   UNL d   1     -50.345  13.919  23.589  0.00  0.00    -0.082 Cl
ATOM      7 CL   UNL d   1     -50.444  15.521  23.161  0.00  0.00    -0.082 Cl
ATOM      8  C   UNL d   1     -48.404  15.053  22.548  0.00  0.00     0.001 A 
ENDROOT
BRANCH   5   9
ATOM      9  C   UNL d   1     -47.661  13.838  22.627  0.00  0.00     0.038 C 
BRANCH   9  10
ATOM     10  S   UNL d   1     -46.927  13.983  22.992  0.00  0.00    -0.048 SA
BRANCH  10  11
ATOM     11  C   UNL d   1     -46.277  13.486  22.825  0.00  0.00     0.194 A 
ATOM     12  N   UNL d   1     -46.099  12.775  23.205  0.00  0.00    -0.218 NA
ATOM     13  C   UNL d   1     -45.408  12.466  22.865  0.00  0.00     0.122 A 
ATOM     14  C   UNL d   1     -45.159  12.992  22.272  0.00  0.00     0.122 A 
ATOM     15  N   UNL d   1     -45.697  13.620  22.249  0.00  0.00    -0.218 NA
ENDBRANCH  10  11
ENDBRANCH   9  10
ENDBRANCH   5   9
TORSDOF 3
ENDMDL
MODEL 3
REMARK VINA RESULT:      -6.1      1.338      1.899
REMARK  3 active torsions:
REMARK  status: ('A' for Active; 'I' for Inactive)
REMARK    1  A    between atoms: S_5  and  C_1 
REMARK    2  A    between atoms: C_11  and  S_5 
REMARK    3  A    between atoms: C_9  and  C_11 
ROOT
ATOM      1  C   UNL d   1     -46.856  12.464  23.133  0.00  0.00     0.068 A 
ATOM      2  C   UNL d   1     -46.941  11.736  23.508  0.00  0.00     0.068 A 
ATOM      3  C   UNL d   1     -47.521  12.912  22.947  0.00  0.00     0.013 A 
ATOM      4  C   UNL d   1     -47.694  11.457  23.697  0.00  0.00     0.012 A 
ATOM      5  C   UNL d   1     -48.265  12.632  23.136  0.00  0.00     0.007 A 
ATOM      6 CL   UNL d   1     -46.100  12.748  22.941  0.00  0.00    -0.082 Cl
ATOM      7 CL   UNL d   1     -46.277  11.281  23.698  0.00  0.00    -0.082 Cl
ATOM      8  C   UNL d   1     -48.358  11.904  23.512  0.00  0.00     0.001 A 
ENDROOT
BRANCH   5   9
ATOM      9  C   UNL d   1     -48.933  13.081  22.949  0.00  0.00     0.038 C 
BRANCH   9  10
ATOM     10  S   UNL d   1     -49.578  12.829  22.489  0.00  0.00    -0.048 SA
BRANCH  10  11
ATOM     11  C   UNL d   1     -50.164  13.379  22.259  0.00  0.00     0.194 A 
ATOM     12  N   UNL d   1     -50.507  13.953  22.742  0.00  0.00    -0.218 NA
ATOM     13  C   UNL d   1     -51.060  14.375  22.290  0.00  0.00     0.122 A 
ATOM     14  C   UNL d   1     -51.055  14.057  21.523  0.00  0.00     0.122 A 
ATOM     15  N   UNL d   1     -50.502  13.443  21.506  0.00  0.00    -0.218 NA
ENDBRANCH  10  11
ENDBRANCH   9  10
ENDBRANCH   5   9
TORSDOF 3
ENDMDL
MODEL 4
REMARK VINA RESULT:      -6.0      1.945      2.289
REMARK  3 active torsions:
REMARK  status: ('A' for Active; 'I' for Inactive)
REMARK    1  A    between atoms: S_5  and  C_1 
REMARK    2  A    between atoms: C_11  and  S_5 
REMARK    3  A    between atoms: C_9  and  C_11 
ROOT
ATOM      1  C   UNL d   1     -46.348  12.821  22.823  0.00  0.00     0.068 A 
ATOM      2  C   UNL d   1     -46.207  13.612  22.642  0.00  0.00     0.068 A 
ATOM      3  C   UNL d   1     -47.104  12.573  23.029  0.00  0.00     0.013 A 
ATOM      4  C   UNL d   1     -46.827  14.155  22.669  0.00  0.00     0.012 A 
ATOM      5  C   UNL d   1     -47.716  13.114  23.054  0.00  0.00     0.007 A 
ATOM      6 CL   UNL d   1     -45.726  12.271  22.797  0.00  0.00    -0.082 Cl
ATOM      7 CL   UNL d   1     -45.448  13.868  22.435  0.00  0.00    -0.082 Cl
ATOM      8  C   UNL d   1     -47.584  13.908  22.875  0.00  0.00     0.001 A 
ENDROOT
BRANCH   5   9
ATOM      9  C   UNL d   1     -48.477  12.866  23.261  0.00  0.00     0.038 C 
BRANCH   9  10
ATOM     10  S   UNL d   1     -48.958  12.349  22.821  0.00  0.00    -0.048 SA
BRANCH  10  11
ATOM     11  C   UNL d   1     -49.720  12.152  23.103  0.00  0.00     0.194 A 
ATOM     12  N   UNL d   1     -49.919  11.478  23.535  0.00  0.00    -0.218 NA
ATOM     13  C   UNL d   1     -50.732  11.506  23.698  0.00  0.00     0.122 A 
ATOM     14  C   UNL d   1     -51.034  12.204  23.363  0.00  0.00     0.122 A 
ATOM     15  N   UNL d   1     -50.408  12.600  22.997  0.00  0.00    -0.218 NA
ENDBRANCH  10  11
ENDBRANCH   9  10
ENDBRANCH   5   9
TORSDOF 3
ENDMDL
MODEL 5
REMARK VINA RESULT:      -4.9      2.724      4.111
REMARK  3 active torsions:
REMARK  status: ('A' for Active; 'I' for Inactive)
REMARK    1  A    between atoms: S_5  and  C_1 
REMARK    2  A    between atoms: C_11  and  S_5 
REMARK    3  A    between atoms: C_9  and  C_11 
ROOT
ATOM      1  C   UNL d   1     -48.773  12.945  23.121  0.00  0.00     0.068 A 
ATOM      2  C   UNL d   1     -48.995  13.737  23.173  0.00  0.00     0.068 A 
ATOM      3  C   UNL d   1     -48.020  12.745  22.861  0.00  0.00     0.013 A 
ATOM      4  C   UNL d   1     -48.459  14.328  22.964  0.00  0.00     0.012 A 
ATOM      5  C   UNL d   1     -47.491  13.333  22.655  0.00  0.00     0.007 A 
ATOM      6 CL   UNL d   1     -49.310  12.347  23.330  0.00  0.00    -0.082 Cl
ATOM      7 CL   UNL d   1     -49.752  13.945  23.434  0.00  0.00    -0.082 Cl
ATOM      8  C   UNL d   1     -47.705  14.127  22.705  0.00  0.00     0.001 A 
ENDROOT
BRANCH   5   9
ATOM      9  C   UNL d   1     -46.733  13.132  22.393  0.00  0.00     0.038 C 
BRANCH   9  10
ATOM     10  S   UNL d   1     -46.023  13.259  22.809  0.00  0.00    -0.048 SA
BRANCH  10  11
ATOM     11  C   UNL d   1     -45.300  12.996  22.484  0.00  0.00     0.194 A 
ATOM     12  N   UNL d   1     -44.810  12.411  22.799  0.00  0.00    -0.218 NA
ATOM     13  C   UNL d   1     -44.153  12.328  22.300  0.00  0.00     0.122 A 
ATOM     14  C   UNL d   1     -44.240  12.866  21.673  0.00  0.00     0.122 A 
ATOM     15  N   UNL d   1     -44.948  13.277  21.789  0.00  0.00    -0.218 NA
ENDBRANCH  10  11
ENDBRANCH   9  10
ENDBRANCH   5   9
TORSDOF 3
ENDMDL
MODEL 6
REMARK VINA RESULT:      -4.8      8.564      9.360
REMARK  3 active torsions:
REMARK  status: ('A' for Active; 'I' for Inactive)
REMARK    1  A    between atoms: S_5  and  C_1 
REMARK    2  A    between atoms: C_11  and  S_5 
REMARK    3  A    between atoms: C_9  and  C_11 
ROOT
ATOM      1  C   UNL d   1     -39.065  14.094  20.689  0.00  0.00     0.068 A 
ATOM      2  C   UNL d   1     -39.641  14.062  21.277  0.00  0.00     0.068 A 
ATOM      3  C   UNL d   1     -39.240  14.429  19.959  0.00  0.00     0.013 A 
ATOM      4  C   UNL d   1     -40.394  14.367  21.131  0.00  0.00     0.012 A 
ATOM      5  C   UNL d   1     -39.986  14.729  19.818  0.00  0.00     0.007 A 
ATOM      6 CL   UNL d   1     -38.307  13.788  20.833  0.00  0.00    -0.082 Cl
ATOM      7 CL   UNL d   1     -39.472  13.727  22.014  0.00  0.00    -0.082 Cl
ATOM      8  C   UNL d   1     -40.568  14.702  20.401  0.00  0.00     0.001 A 
ENDROOT
BRANCH   5   9
ATOM      9  C   UNL d   1     -40.162  15.066  19.083  0.00  0.00     0.038 C 
BRANCH   9  10
ATOM     10  S   UNL d   1     -40.326  14.649  18.382  0.00  0.00    -0.048 SA
BRANCH  10  11
ATOM     11  C   UNL d   1     -40.523  15.069  17.687  0.00  0.00     0.194 A 
ATOM     12  N   UNL d   1     -41.258  15.071  17.313  0.00  0.00    -0.218 NA
ATOM     13  C   UNL d   1     -41.208  15.560  16.645  0.00  0.00     0.122 A 
ATOM     14  C   UNL d   1     -40.435  15.862  16.609  0.00  0.00     0.122 A 
ATOM     15  N   UNL d   1     -40.014  15.558  17.253  0.00  0.00    -0.218 NA
ENDBRANCH  10  11
ENDBRANCH   9  10
ENDBRANCH   5   9
TORSDOF 3
ENDMDL
MODEL 7
REMARK VINA RESULT:      -4.2      2.833      3.969
REMARK  3 active torsions:
REMARK  status: ('A' for Active; 'I' for Inactive)
REMARK    1  A    between atoms: S_5  and  C_1 
REMARK    2  A    between atoms: C_11  and  S_5 
REMARK    3  A    between atoms: C_9  and  C_11 
ROOT
ATOM      1  C   UNL d   1     -50.025  12.530  22.488  0.00  0.00     0.068 A 
ATOM      2  C   UNL d   1     -50.262  12.141  23.174  0.00  0.00     0.068 A 
ATOM      3  C   UNL d   1     -49.225  12.628  22.325  0.00  0.00     0.013 A 
ATOM      4  C   UNL d   1     -49.694  11.851  23.698  0.00  0.00     0.012 A 
ATOM      5  C   UNL d   1     -48.666  12.340  22.846  0.00  0.00     0.007 A 
ATOM      6 CL   UNL d   1     -50.593  12.823  21.958  0.00  0.00    -0.082 Cl
ATOM      7 CL   UNL d   1     -51.064  12.038  23.344  0.00  0.00    -0.082 Cl
ATOM      8  C   UNL d   1     -48.894  11.949  23.536  0.00  0.00     0.001 A 
ENDROOT
BRANCH   5   9
ATOM      9  C   UNL d   1     -47.861  12.439  22.683  0.00  0.00     0.038 C 
BRANCH   9  10
ATOM     10  S   UNL d   1     -47.338  12.941  23.092  0.00  0.00    -0.048 SA
BRANCH  10  11
ATOM     11  C   UNL d   1     -46.551  13.025  22.825  0.00  0.00     0.194 A 
ATOM     12  N   UNL d   1     -46.265  13.628  22.340  0.00  0.00    -0.218 NA
ATOM     13  C   UNL d   1     -45.456  13.496  22.214  0.00  0.00     0.122 A 
ATOM     14  C   UNL d   1     -45.244  12.806  22.625  0.00  0.00     0.122 A 
ATOM     15  N   UNL d   1     -45.921  12.518  23.001  0.00  0.00    -0.218 NA
ENDBRANCH  10  11
ENDBRANCH   9  10
ENDBRANCH   5   9
TORSDOF 3
ENDMDL
MODEL 8
REMARK VINA RESULT:      -3.9      1.844      2.272
REMARK  3 active torsions:
REMARK  status: ('A' for Active; 'I' for Inactive)
REMARK    1  A    between atoms: S_5  and  C_1 
REMARK    2  A    between atoms: C_11  and  S_5 
REMARK    3  A    between atoms: C_9  and  C_11 
ROOT
ATOM      1  C   UNL d   1     -46.908  14.217  22.823  0.00  0.00     0.068 A 
ATOM      2  C   UNL d   1     -46.953  14.978  22.510  0.00  0.00     0.068 A 
ATOM      3  C   UNL d   1     -47.591  13.835  23.075  0.00  0.00     0.013 A 
ATOM      4  C   UNL d   1     -47.684  15.355  22.451  0.00  0.00     0.012 A 
ATOM      5  C   UNL d   1     -48.314  14.211  23.015  0.00  0.00     0.007 A 
ATOM      6 CL   UNL d   1     -46.174  13.835  22.885  0.00  0.00    -0.082 Cl
ATOM      7 CL   UNL d   1     -46.270  15.369  22.255  0.00  0.00    -0.082 Cl
ATOM      8  C   UNL d   1     -48.367  14.973  22.703  0.00  0.00     0.001 A 
ENDROOT
BRANCH   5   9
ATOM      9  C   UNL d   1     -49.001  13.827  23.268  0.00  0.00     0.038 C 
BRANCH   9  10
ATOM     10  S   UNL d   1     -49.748  13.873  22.905  0.00  0.00    -0.048 SA
BRANCH  10  11
ATOM     11  C   UNL d   1     -50.266  13.219  22.939  0.00  0.00     0.194 A 
ATOM     12  N   UNL d   1     -50.570  12.874  23.624  0.00  0.00    -0.218 NA
ATOM     13  C   UNL d   1     -51.059  12.242  23.401  0.00  0.00     0.122 A 
ATOM     14  C   UNL d   1     -51.055  12.198  22.572  0.00  0.00     0.122 A 
ATOM     15  N   UNL d   1     -50.565  12.802  22.289  0.00  0.00    -0.218 NA
ENDBRANCH  10  11
ENDBRANCH   9  10
ENDBRANCH   5   9
TORSDOF 3
ENDMDL
