MODEL 1
REMARK VINA RESULT:      19.9      0.000      0.000
REMARK  1 active torsions:
REMARK  status: ('A' for Active; 'I' for Inactive)
REMARK    1  A    between atoms: C_10  and  C_4 
ROOT
ATOM      1  C   UNL d   1      46.134 -17.647  43.622  0.00  0.00     0.186 A 
ATOM      2  N   UNL d   1      46.267 -18.452  43.809  0.00  0.00    -0.193 N 
ATOM      3  N   UNL d   1      46.128 -17.404  42.834  0.00  0.00    -0.214 NA
ATOM      4  C   UNL d   1      46.029 -17.245  44.342  0.00  0.00     0.140 A 
ATOM      5  N   UNL d   1      46.242 -18.535  44.635  0.00  0.00    -0.058 NA
ATOM      6  N   UNL d   1      46.095 -17.786  44.955  0.00  0.00    -0.127 NA
ATOM      7  C   UNL d   1      46.253 -17.949  42.226  0.00  0.00     0.142 A 
ATOM      8  C   UNL d   1      46.384 -18.745  42.416  0.00  0.00     0.046 A 
ATOM      9  C   UNL d   1      46.391 -18.993  43.202  0.00  0.00     0.088 A 
ATOM     10 CL   UNL d   1      46.247 -17.705  41.439  0.00  0.00    -0.061 Cl
ATOM     11  C   UNL d   1      46.508 -19.286  41.809  0.00  0.00     0.004 A 
ATOM     12  C   UNL d   1      46.523 -19.789  43.378  0.00  0.00     0.019 A 
ATOM     13  C   UNL d   1      46.639 -20.079  41.986  0.00  0.00     0.000 A 
ATOM     14  C   UNL d   1      46.647 -20.330  42.771  0.00  0.00     0.002 A 
ENDROOT
BRANCH   4  15
ATOM     15  C   UNL d   1      45.885 -16.444  44.416  0.00  0.00     0.022 A 
ATOM     16  C   UNL d   1      45.199 -16.184  44.795  0.00  0.00     0.002 A 
ATOM     17  C   UNL d   1      45.051 -15.374  44.871  0.00  0.00     0.000 A 
ATOM     18  C   UNL d   1      45.590 -14.828  44.568  0.00  0.00     0.000 A 
ATOM     19  C   UNL d   1      46.278 -15.091  44.188  0.00  0.00     0.000 A 
ATOM     20  C   UNL d   1      45.444 -14.022  44.643  0.00  0.00     0.000 C 
ATOM     21  C   UNL d   1      46.424 -15.897  44.113  0.00  0.00     0.002 A 
ENDBRANCH   4  15
TORSDOF 1
ENDMDL
