MODEL 1
REMARK VINA RESULT:      72.8      0.000      0.000
REMARK  6 active torsions:
REMARK  status: ('A' for Active; 'I' for Inactive)
REMARK    1  A    between atoms: N_3  and  C_1 
REMARK    2  A    between atoms: S_2  and  C_9 
REMARK    3  A    between atoms: N_10  and  S_2 
REMARK       I    between atoms: C_8  and  N_3 
REMARK    4  A    between atoms: C_20  and  N_4 
REMARK    5  A    between atoms: C_13  and  C_8 
REMARK    6  A    between atoms: O_22  and  C_14 
ROOT
ATOM      1  N   UNL d   1      43.334 -16.195  36.851  0.00  0.00    -0.184 NA
ATOM      2  C   UNL d   1      42.666 -15.781  36.578  0.00  0.00     0.281 C 
ATOM      3  O   UNL d   1      42.739 -14.994  36.345  0.00  0.00    -0.265 OA
ENDROOT
BRANCH   1   4
ATOM      4  C   UNL d   1      44.072 -15.808  36.886  0.00  0.00     0.182 A 
ATOM      5  N   UNL d   1      44.290 -15.251  37.443  0.00  0.00    -0.283 N 
ATOM      6  C   UNL d   1      45.061 -15.006  37.284  0.00  0.00     0.094 A 
ATOM      7  C   UNL d   1      45.565 -14.456  37.662  0.00  0.00     0.111 A 
ATOM      8  C   UNL d   1      45.325 -15.412  36.624  0.00  0.00     0.050 A 
ATOM      9  C   UNL d   1      46.319 -14.332  37.364  0.00  0.00     0.026 A 
ATOM     10  C   UNL d   1      46.590 -14.735  36.702  0.00  0.00     0.003 A 
ATOM     11  C   UNL d   1      46.089 -15.280  36.330  0.00  0.00     0.008 A 
ATOM     12  S   UNL d   1      44.719 -15.912  36.371  0.00  0.00    -0.048 SA
BRANCH   5  13
ATOM     13  C   UNL d   1      43.824 -14.975  38.064  0.00  0.00     0.082 C 
ATOM     14  C   UNL d   1      43.656 -14.177  37.957  0.00  0.00     0.021 C 
ENDBRANCH   5  13
BRANCH   7  15
ATOM     15  O   UNL d   1      45.305 -14.052  38.317  0.00  0.00    -0.327 OA
ATOM     16  C   UNL d   1      45.830 -13.620  38.770  0.00  0.00     0.181 C 
ENDBRANCH   7  15
ENDBRANCH   1   4
BRANCH   2  17
ATOM     17  C   UNL d   1      41.932 -16.161  36.541  0.00  0.00     0.058 A 
ATOM     18  C   UNL d   1      41.902 -16.976  36.439  0.00  0.00     0.005 A 
ATOM     19  C   UNL d   1      41.173 -17.360  36.401  0.00  0.00     0.013 A 
ATOM     20  C   UNL d   1      40.471 -16.920  36.466  0.00  0.00     0.104 A 
ATOM     21  C   UNL d   1      40.512 -16.095  36.569  0.00  0.00     0.013 A 
ATOM     22  C   UNL d   1      41.241 -15.711  36.607  0.00  0.00     0.005 A 
BRANCH  20  23
ATOM     23  S   UNL d   1      39.741 -17.301  36.429  0.00  0.00     0.271 S 
ATOM     24  O   UNL d   1      39.394 -16.544  36.369  0.00  0.00    -0.200 OA
ATOM     25  O   UNL d   1      40.086 -18.040  36.487  0.00  0.00    -0.200 OA
BRANCH  23  26
ATOM     26  N   UNL d   1      39.011 -17.676  36.391  0.00  0.00    -0.226 N 
ATOM     27  C   UNL d   1      38.316 -17.222  36.345  0.00  0.00     0.111 C 
ATOM     28  C   UNL d   1      38.949 -18.490  36.399  0.00  0.00     0.111 C 
ENDBRANCH  23  26
ENDBRANCH  20  23
ENDBRANCH   2  17
TORSDOF 6
ENDMDL
