MODEL 1
REMARK VINA RESULT:      85.3      0.000      0.000
REMARK  6 active torsions:
REMARK  status: ('A' for Active; 'I' for Inactive)
REMARK    1  A    between atoms: N_5  and  S_1 
REMARK    2  A    between atoms: C_6  and  S_1 
REMARK    3  A    between atoms: C_2  and  C_10 
REMARK       I    between atoms: N_3  and  C_2 
REMARK    4  A    between atoms: C_11  and  N_4 
REMARK    5  A    between atoms: C_17  and  N_5 
REMARK    6  A    between atoms: O_29  and  C_23 
ROOT
ATOM      1  C   UNL d   1     -48.196  27.573  34.577  0.00  0.00     0.057 A 
ATOM      2  C   UNL d   1     -47.993  28.914  35.514  0.00  0.00     0.094 A 
ATOM      3  C   UNL d   1     -47.475  27.981  34.565  0.00  0.00     0.006 A 
ATOM      4  C   UNL d   1     -48.809  27.843  35.060  0.00  0.00     0.006 A 
ATOM      5  C   UNL d   1     -47.381  28.651  35.037  0.00  0.00     0.020 A 
ATOM      6  C   UNL d   1     -48.710  28.504  35.523  0.00  0.00     0.020 A 
ENDROOT
BRANCH   1   7
ATOM      7  C   UNL d   1     -48.301  26.897  34.105  0.00  0.00     0.265 C 
ATOM      8  N   UNL d   1     -49.060  26.579  33.990  0.00  0.00    -0.269 N 
ATOM      9  C   UNL d   1     -49.159  25.916  33.527  0.00  0.00     0.102 A 
ATOM     10  C   UNL d   1     -49.710  26.938  34.346  0.00  0.00     0.102 A 
ATOM     11  C   UNL d   1     -49.914  25.601  33.413  0.00  0.00     0.100 A 
ATOM     12  N   UNL d   1     -50.559  25.962  33.770  0.00  0.00    -0.301 N 
ATOM     13  C   UNL d   1     -50.459  26.626  34.234  0.00  0.00     0.100 A 
ATOM     14  O   UNL d   1     -47.649  26.541  33.751  0.00  0.00    -0.267 OA
BRANCH  12  15
ATOM     15  C   UNL d   1     -51.301  25.656  33.661  0.00  0.00     0.064 A 
ATOM     16  C   UNL d   1     -51.962  26.138  33.763  0.00  0.00     0.020 A 
ATOM     17  C   UNL d   1     -52.714  25.831  33.653  0.00  0.00     0.026 A 
ATOM     18  C   UNL d   1     -52.813  25.039  33.439  0.00  0.00     0.094 A 
ATOM     19  C   UNL d   1     -52.142  24.562  33.338  0.00  0.00     0.026 A 
ATOM     20  C   UNL d   1     -51.398  24.871  33.449  0.00  0.00     0.020 A 
BRANCH  18  21
ATOM     21  O   UNL d   1     -53.565  24.731  33.329  0.00  0.00    -0.328 OA
ATOM     22  C   UNL d   1     -53.689  23.921  33.409  0.00  0.00     0.181 C 
ENDBRANCH  18  21
ENDBRANCH  12  15
ENDBRANCH   1   7
BRANCH   2  23
ATOM     23  N   UNL d   1     -47.886  29.578  35.976  0.00  0.00    -0.158 NA
BRANCH  23  24
ATOM     24  S   UNL d   1     -47.766  30.318  35.629  0.00  0.00     0.285 S 
ATOM     25  O   UNL d   1     -47.522  29.952  34.939  0.00  0.00    -0.198 OA
ATOM     26  O   UNL d   1     -48.013  30.673  36.329  0.00  0.00    -0.198 OA
BRANCH  24  27
ATOM     27  C   UNL d   1     -47.649  31.056  35.295  0.00  0.00     0.107 A 
ATOM     28  C   UNL d   1     -48.185  31.353  34.751  0.00  0.00     0.043 A 
ATOM     29  C   UNL d   1     -48.066  32.100  34.413  0.00  0.00     0.141 A 
ATOM     30  F   UNL d   1     -48.607  32.406  33.861  0.00  0.00    -0.204 F 
ATOM     31  C   UNL d   1     -47.403  32.546  34.627  0.00  0.00     0.030 A 
ATOM     32  C   UNL d   1     -46.860  32.244  35.179  0.00  0.00     0.003 A 
ATOM     33  C   UNL d   1     -46.986  31.498  35.511  0.00  0.00     0.013 A 
ENDBRANCH  24  27
ENDBRANCH  23  24
ENDBRANCH   2  23
TORSDOF 6
ENDMDL
