MODEL 1
REMARK VINA RESULT:       8.7      0.000      0.000
REMARK  4 active torsions:
REMARK  status: ('A' for Active; 'I' for Inactive)
REMARK    1  A    between atoms: C_2  and  C_1 
REMARK    2  A    between atoms: C_4  and  C_2 
REMARK    3  A    between atoms: N_6  and  C_2 
REMARK    4  A    between atoms: C_8  and  N_6 
ROOT
ATOM      1  C   UNL d   1     -41.622-122.048 -51.978  0.00  0.00     0.088 C 
ENDROOT
BRANCH   1   2
ATOM      2  C   UNL d   1     -41.772-122.472 -51.276  0.00  0.00     0.058 A 
ATOM      3  C   UNL d   1     -42.541-122.471 -50.946  0.00  0.00     0.214 A 
ATOM      4  C   UNL d   1     -42.686-122.893 -50.251  0.00  0.00     0.120 A 
ATOM      5  O   UNL d   1     -43.154-122.047 -51.318  0.00  0.00    -0.285 OA
ATOM      6  N   UNL d   1     -43.442-122.886 -49.935  0.00  0.00    -0.241 NA
ATOM      7  C   UNL d   1     -42.079-123.313 -49.882  0.00  0.00     0.021 A 
ATOM      8  C   UNL d   1     -43.595-123.312 -49.231  0.00  0.00     0.099 A 
ATOM      9  C   UNL d   1     -42.988-123.731 -48.862  0.00  0.00     0.021 A 
ATOM     10  C   UNL d   1     -42.219-123.732 -49.193  0.00  0.00     0.003 A 
ATOM     11  C   UNL d   1     -41.318-123.317 -50.204  0.00  0.00     0.002 A 
ATOM     12  C   UNL d   1     -41.165-122.892 -50.907  0.00  0.00     0.005 A 
ENDBRANCH   1   2
BRANCH   1  13
ATOM     13  C   UNL d   1     -41.909-122.338 -52.708  0.00  0.00     0.045 A 
ATOM     14  C   UNL d   1     -41.640-123.067 -52.986  0.00  0.00     0.141 A 
ATOM     15  F   UNL d   1     -41.128-123.636 -52.728  0.00  0.00    -0.204 F 
ATOM     16  C   UNL d   1     -41.923-123.357 -53.709  0.00  0.00     0.030 A 
ATOM     17  C   UNL d   1     -42.468-122.910 -54.138  0.00  0.00     0.002 A 
ATOM     18  C   UNL d   1     -42.737-122.181 -53.861  0.00  0.00     0.000 A 
ATOM     19  C   UNL d   1     -42.450-121.891 -53.130  0.00  0.00     0.004 A 
ENDBRANCH   1  13
BRANCH   1  20
ATOM     20  N   UNL d   1     -41.188-121.338 -51.953  0.00  0.00    -0.227 NA
BRANCH  20  21
ATOM     21  C   UNL d   1     -41.181-120.665 -51.762  0.00  0.00     0.162 A 
ATOM     22  N   UNL d   1     -41.172-120.165 -52.260  0.00  0.00    -0.225 NA
ATOM     23  C   UNL d   1     -41.165-119.484 -52.072  0.00  0.00     0.101 A 
ATOM     24  C   UNL d   1     -41.167-119.307 -51.398  0.00  0.00     0.021 A 
ATOM     25  C   UNL d   1     -41.176-119.809 -50.904  0.00  0.00     0.005 A 
ATOM     26  C   UNL d   1     -41.183-120.489 -51.092  0.00  0.00     0.039 A 
ENDBRANCH  20  21
ENDBRANCH   1  20
TORSDOF 4
ENDMDL
MODEL 2
REMARK VINA RESULT:       9.0      1.792      2.917
REMARK  4 active torsions:
REMARK  status: ('A' for Active; 'I' for Inactive)
REMARK    1  A    between atoms: C_2  and  C_1 
REMARK    2  A    between atoms: C_4  and  C_2 
REMARK    3  A    between atoms: N_6  and  C_2 
REMARK    4  A    between atoms: C_8  and  N_6 
ROOT
ATOM      1  C   UNL d   1     -42.516-122.523 -50.185  0.00  0.00     0.088 C 
ENDROOT
BRANCH   1   2
ATOM      2  C   UNL d   1     -42.167-122.817 -49.487  0.00  0.00     0.058 A 
ATOM      3  C   UNL d   1     -42.257-122.397 -48.769  0.00  0.00     0.214 A 
ATOM      4  C   UNL d   1     -41.911-122.692 -48.079  0.00  0.00     0.120 A 
ATOM      5  O   UNL d   1     -42.694-121.687 -48.752  0.00  0.00    -0.285 OA
ATOM      6  N   UNL d   1     -42.004-122.273 -47.381  0.00  0.00    -0.241 NA
ATOM      7  C   UNL d   1     -41.479-123.394 -48.096  0.00  0.00     0.021 A 
ATOM      8  C   UNL d   1     -41.655-122.567 -46.679  0.00  0.00     0.099 A 
ATOM      9  C   UNL d   1     -41.223-123.270 -46.695  0.00  0.00     0.021 A 
ATOM     10  C   UNL d   1     -41.134-123.689 -47.414  0.00  0.00     0.003 A 
ATOM     11  C   UNL d   1     -41.387-123.813 -48.802  0.00  0.00     0.002 A 
ATOM     12  C   UNL d   1     -41.735-123.520 -49.503  0.00  0.00     0.005 A 
ENDBRANCH   1   2
BRANCH   1  13
ATOM     13  C   UNL d   1     -43.347-122.545 -50.276  0.00  0.00     0.045 A 
ATOM     14  C   UNL d   1     -43.758-121.840 -50.399  0.00  0.00     0.141 A 
ATOM     15  F   UNL d   1     -43.567-121.058 -50.463  0.00  0.00    -0.204 F 
ATOM     16  C   UNL d   1     -44.582-121.859 -50.489  0.00  0.00     0.030 A 
ATOM     17  C   UNL d   1     -44.976-122.584 -50.454  0.00  0.00     0.002 A 
ATOM     18  C   UNL d   1     -44.565-123.289 -50.331  0.00  0.00     0.000 A 
ATOM     19  C   UNL d   1     -43.734-123.267 -50.240  0.00  0.00     0.004 A 
ENDBRANCH   1  13
BRANCH   1  20
ATOM     20  N   UNL d   1     -42.038-122.208 -50.790  0.00  0.00    -0.227 NA
BRANCH  20  21
ATOM     21  C   UNL d   1     -41.733-122.320 -51.410  0.00  0.00     0.162 A 
ATOM     22  N   UNL d   1     -41.681-122.979 -51.656  0.00  0.00    -0.225 NA
ATOM     23  C   UNL d   1     -41.374-123.096 -52.281  0.00  0.00     0.101 A 
ATOM     24  C   UNL d   1     -41.123-122.562 -52.653  0.00  0.00     0.021 A 
ATOM     25  C   UNL d   1     -41.176-121.906 -52.404  0.00  0.00     0.005 A 
ATOM     26  C   UNL d   1     -41.484-121.789 -51.779  0.00  0.00     0.039 A 
ENDBRANCH  20  21
ENDBRANCH   1  20
TORSDOF 4
ENDMDL
