MODEL 1
REMARK VINA RESULT:      35.9      0.000      0.000
REMARK  6 active torsions:
REMARK  status: ('A' for Active; 'I' for Inactive)
REMARK       I    between atoms: C_2  and  N_1 
REMARK    1  A    between atoms: C_15  and  C_2 
REMARK    2  A    between atoms: C_3  and  C_4 
REMARK    3  A    between atoms: C_9  and  O_14 
REMARK    4  A    between atoms: O_14  and  C_21 
REMARK    5  A    between atoms: C_22  and  C_15 
REMARK    6  A    between atoms: C_21  and  C_22 
ROOT
ATOM      1  O   UNL d   1     -55.042-102.447 -43.067  0.00  0.00    -0.305 OA
ENDROOT
BRANCH   1   2
ATOM      2  C   UNL d   1     -55.069-101.737 -43.478  0.00  0.00     0.100 A 
ATOM      3  C   UNL d   1     -55.451-101.691 -44.213  0.00  0.00     0.024 A 
ATOM      4  C   UNL d   1     -55.484-100.989 -44.631  0.00  0.00    -0.002 A 
ATOM      5  C   UNL d   1     -55.127-100.301 -44.314  0.00  0.00    -0.023 A 
ATOM      6  C   UNL d   1     -54.748-100.337 -43.587  0.00  0.00    -0.002 A 
ATOM      7  C   UNL d   1     -54.712-101.049 -43.160  0.00  0.00     0.024 A 
BRANCH   5   8
ATOM      8  C   UNL d   1     -55.160 -99.595 -44.732  0.00  0.00     0.019 C 
ATOM      9  C   UNL d   1     -55.382 -98.900 -44.356  0.00  0.00     0.004 C 
ATOM     10  C   UNL d   1     -54.966 -99.584 -45.538  0.00  0.00     0.004 C 
ATOM     11  C   UNL d   1     -55.384 -99.397 -43.961  0.00  0.00     0.004 C 
ENDBRANCH   5   8
ENDBRANCH   1   2
BRANCH   1  12
ATOM     12  C   UNL d   1     -54.787-102.452 -42.278  0.00  0.00     0.123 C 
BRANCH  12  13
ATOM     13  C   UNL d   1     -55.242-102.833 -41.706  0.00  0.00     0.032 C 
BRANCH  13  14
ATOM     14  C   UNL d   1     -55.127-102.656 -40.911  0.00  0.00     0.063 C 
BRANCH  14  15
ATOM     15  C   UNL d   1     -55.767-102.696 -40.389  0.00  0.00     0.265 C 
ATOM     16  N   UNL d   1     -55.633-102.751 -39.573  0.00  0.00    -0.268 N 
ATOM     17  C   UNL d   1     -56.263-102.792 -39.043  0.00  0.00     0.110 A 
ATOM     18  C   UNL d   1     -54.847-102.764 -39.284  0.00  0.00     0.110 A 
ATOM     19  C   UNL d   1     -56.124-102.845 -38.240  0.00  0.00     0.142 A 
ATOM     20  O   UNL d   1     -55.338-102.858 -37.951  0.00  0.00    -0.300 OA
ATOM     21  C   UNL d   1     -54.719-102.818 -38.476  0.00  0.00     0.142 A 
ATOM     22  O   UNL d   1     -56.545-102.683 -40.675  0.00  0.00    -0.267 OA
ENDBRANCH  14  15
ENDBRANCH  13  14
ENDBRANCH  12  13
ENDBRANCH   1  12
TORSDOF 6
ENDMDL
