MODEL 1
REMARK VINA RESULT:      11.1      0.000      0.000
REMARK  3 active torsions:
REMARK  status: ('A' for Active; 'I' for Inactive)
REMARK    1  A    between atoms: N_5  and  C_1 
REMARK    2  A    between atoms: C_7  and  N_4 
REMARK    3  A    between atoms: C_12  and  C_7 
ROOT
ATOM      1  C   UNL d   1      45.638 -14.852  44.726  0.00  0.00     0.232 A 
ATOM      2  N   UNL d   1      46.296 -14.412  44.937  0.00  0.00    -0.204 NA
ATOM      3  C   UNL d   1      45.046 -14.354  44.467  0.00  0.00     0.141 A 
ATOM      4  N   UNL d   1      45.334 -13.572  44.514  0.00  0.00    -0.282 N 
ATOM      5  C   UNL d   1      46.113 -13.609  44.806  0.00  0.00     0.150 A 
ATOM      6 BR   UNL d   1      44.283 -14.566  44.200  0.00  0.00    -0.026 Br
ATOM      7  C   UNL d   1      46.647 -12.960  44.955  0.00  0.00     0.041 C 
ENDROOT
BRANCH   4   8
ATOM      8  C   UNL d   1      44.991 -12.834  44.329  0.00  0.00     0.082 C 
BRANCH   8   9
ATOM      9  C   UNL d   1      44.904 -12.584  43.544  0.00  0.00     0.018 A 
ATOM     10  C   UNL d   1      45.567 -12.452  43.079  0.00  0.00     0.002 A 
ATOM     11  C   UNL d   1      45.498 -12.203  42.297  0.00  0.00     0.000 A 
ATOM     12  C   UNL d   1      44.765 -12.080  41.960  0.00  0.00     0.000 A 
ATOM     13  C   UNL d   1      44.081 -12.210  42.419  0.00  0.00     0.000 A 
ATOM     14  C   UNL d   1      44.126 -12.458  43.203  0.00  0.00     0.002 A 
ENDBRANCH   8   9
ENDBRANCH   4   8
BRANCH   1  15
ATOM     15  N   UNL d   1      45.584 -15.666  44.769  0.00  0.00    -0.093 N 
ATOM     16  O   UNL d   1      46.214 -16.198  44.658  0.00  0.00    -0.530 OA
ATOM     17  O   UNL d   1      44.892 -16.076  44.931  0.00  0.00    -0.530 OA
ENDBRANCH   1  15
TORSDOF 3
ENDMDL
