MODEL 1
REMARK VINA RESULT:      -8.8      0.000      0.000
REMARK  6 active torsions:
REMARK  status: ('A' for Active; 'I' for Inactive)
REMARK    1  A    between atoms: N_2  and  S_1 
REMARK    2  A    between atoms: C_3  and  S_1 
REMARK    3  A    between atoms: C_6  and  N_2 
REMARK    4  A    between atoms: C_12  and  C_6 
REMARK    5  A    between atoms: O_10  and  C_11 
REMARK    6  A    between atoms: C_15  and  O_10 
ROOT
ATOM      1  C   UNL d   1      53.524  33.560  54.047  0.00  0.00     0.105 A 
ATOM      2  C   UNL d   1      53.905  33.294  53.362  0.00  0.00     0.015 A 
ATOM      3  C   UNL d   1      53.403  33.033  54.680  0.00  0.00     0.015 A 
ATOM      4  C   UNL d   1      54.041  32.000  53.931  0.00  0.00     0.100 A 
ATOM      5  C   UNL d   1      53.662  32.254  54.619  0.00  0.00     0.025 A 
ATOM      6  C   UNL d   1      54.162  32.516  53.305  0.00  0.00     0.025 A 
ENDROOT
BRANCH   1   7
ATOM      7  S   UNL d   1      53.264  34.340  54.110  0.00  0.00     0.285 S 
ATOM      8  O   UNL d   1      53.909  34.513  54.590  0.00  0.00    -0.198 OA
ATOM      9  O   UNL d   1      53.006  35.118  54.176  0.00  0.00    -0.198 OA
BRANCH   7  10
ATOM     10  N   UNL d   1      52.611  34.165  53.625  0.00  0.00    -0.155 NA
BRANCH  10  11
ATOM     11  C   UNL d   1      52.050  34.755  53.464  0.00  0.00     0.137 C 
BRANCH  11  12
ATOM     12  C   UNL d   1      51.393  34.574  52.993  0.00  0.00     0.120 A 
ATOM     13  O   UNL d   1      51.391  34.418  52.179  0.00  0.00    -0.304 OA
ATOM     14  C   UNL d   1      50.612  34.267  51.953  0.00  0.00     0.123 A 
ATOM     15  C   UNL d   1      50.134  34.329  52.614  0.00  0.00     0.029 A 
ATOM     16  C   UNL d   1      50.612  34.519  53.258  0.00  0.00     0.028 A 
ENDBRANCH  11  12
ENDBRANCH  10  11
ENDBRANCH   7  10
ENDBRANCH   1   7
BRANCH   4  17
ATOM     17  O   UNL d   1      54.303  31.212  53.869  0.00  0.00    -0.307 OA
BRANCH  17  18
ATOM     18  C   UNL d   1      53.756  30.610  53.706  0.00  0.00     0.100 A 
ATOM     19  C   UNL d   1      53.343  30.599  52.985  0.00  0.00     0.025 A 
ATOM     20  C   UNL d   1      52.801  29.997  52.829  0.00  0.00     0.002 A 
ATOM     21  C   UNL d   1      52.669  29.407  53.389  0.00  0.00     0.000 A 
ATOM     22  C   UNL d   1      53.082  29.418  54.111  0.00  0.00     0.002 A 
ATOM     23  C   UNL d   1      53.625  30.020  54.267  0.00  0.00     0.025 A 
ENDBRANCH  17  18
ENDBRANCH   4  17
TORSDOF 6
ENDMDL
MODEL 2
REMARK VINA RESULT:      -8.0      1.765      4.587
REMARK  6 active torsions:
REMARK  status: ('A' for Active; 'I' for Inactive)
REMARK    1  A    between atoms: N_2  and  S_1 
REMARK    2  A    between atoms: C_3  and  S_1 
REMARK    3  A    between atoms: C_6  and  N_2 
REMARK    4  A    between atoms: C_12  and  C_6 
REMARK    5  A    between atoms: O_10  and  C_11 
REMARK    6  A    between atoms: C_15  and  O_10 
ROOT
ATOM      1  C   UNL d   1      52.126  32.941  52.963  0.00  0.00     0.105 A 
ATOM      2  C   UNL d   1      52.274  33.615  52.507  0.00  0.00     0.015 A 
ATOM      3  C   UNL d   1      51.407  32.877  53.378  0.00  0.00     0.015 A 
ATOM      4  C   UNL d   1      51.011  34.151  52.873  0.00  0.00     0.100 A 
ATOM      5  C   UNL d   1      50.852  33.482  53.331  0.00  0.00     0.025 A 
ATOM      6  C   UNL d   1      51.719  34.217  52.462  0.00  0.00     0.025 A 
ENDROOT
BRANCH   1   7
ATOM      7  S   UNL d   1      52.680  32.332  53.012  0.00  0.00     0.285 S 
ATOM      8  O   UNL d   1      52.268  31.915  52.434  0.00  0.00    -0.198 OA
ATOM      9  O   UNL d   1      53.232  31.723  53.058  0.00  0.00    -0.198 OA
BRANCH   7  10
ATOM     10  N   UNL d   1      53.097  32.754  53.595  0.00  0.00    -0.155 NA
BRANCH  10  11
ATOM     11  C   UNL d   1      53.794  32.434  53.913  0.00  0.00     0.137 C 
BRANCH  11  12
ATOM     12  C   UNL d   1      54.202  32.852  54.501  0.00  0.00     0.120 A 
ATOM     13  O   UNL d   1      54.031  32.868  55.311  0.00  0.00    -0.304 OA
ATOM     14  C   UNL d   1      54.586  33.356  55.677  0.00  0.00     0.123 A 
ATOM     15  C   UNL d   1      55.096  33.642  55.104  0.00  0.00     0.029 A 
ATOM     16  C   UNL d   1      54.863  33.333  54.376  0.00  0.00     0.028 A 
ENDBRANCH  11  12
ENDBRANCH  10  11
ENDBRANCH   7  10
ENDBRANCH   1   7
BRANCH   4  17
ATOM     17  O   UNL d   1      50.450  34.763  52.825  0.00  0.00    -0.307 OA
BRANCH  17  18
ATOM     18  C   UNL d   1      49.824  34.704  52.284  0.00  0.00     0.100 A 
ATOM     19  C   UNL d   1      49.968  34.494  51.493  0.00  0.00     0.025 A 
ATOM     20  C   UNL d   1      49.340  34.437  50.961  0.00  0.00     0.002 A 
ATOM     21  C   UNL d   1      48.570  34.590  51.215  0.00  0.00     0.000 A 
ATOM     22  C   UNL d   1      48.427  34.800  52.006  0.00  0.00     0.002 A 
ATOM     23  C   UNL d   1      49.054  34.857  52.539  0.00  0.00     0.025 A 
ENDBRANCH  17  18
ENDBRANCH   4  17
TORSDOF 6
ENDMDL
MODEL 3
REMARK VINA RESULT:      -7.6      0.989      4.036
REMARK  6 active torsions:
REMARK  status: ('A' for Active; 'I' for Inactive)
REMARK    1  A    between atoms: N_2  and  S_1 
REMARK    2  A    between atoms: C_3  and  S_1 
REMARK    3  A    between atoms: C_6  and  N_2 
REMARK    4  A    between atoms: C_12  and  C_6 
REMARK    5  A    between atoms: O_10  and  C_11 
REMARK    6  A    between atoms: C_15  and  O_10 
ROOT
ATOM      1  C   UNL d   1      53.558  33.260  53.933  0.00  0.00     0.105 A 
ATOM      2  C   UNL d   1      52.944  33.481  54.441  0.00  0.00     0.015 A 
ATOM      3  C   UNL d   1      53.604  33.597  53.173  0.00  0.00     0.015 A 
ATOM      4  C   UNL d   1      52.430  34.358  53.450  0.00  0.00     0.100 A 
ATOM      5  C   UNL d   1      53.039  34.145  52.934  0.00  0.00     0.025 A 
ATOM      6  C   UNL d   1      52.382  34.028  54.199  0.00  0.00     0.025 A 
ENDROOT
BRANCH   1   7
ATOM      7  S   UNL d   1      54.126  32.710  54.169  0.00  0.00     0.285 S 
ATOM      8  O   UNL d   1      54.580  33.320  54.485  0.00  0.00    -0.198 OA
ATOM      9  O   UNL d   1      54.695  32.164  54.407  0.00  0.00    -0.198 OA
BRANCH   7  10
ATOM     10  N   UNL d   1      53.668  32.093  53.851  0.00  0.00    -0.155 NA
BRANCH  10  11
ATOM     11  C   UNL d   1      53.963  31.318  53.856  0.00  0.00     0.137 C 
BRANCH  11  12
ATOM     12  C   UNL d   1      53.484  30.698  53.586  0.00  0.00     0.120 A 
ATOM     13  O   UNL d   1      53.078  30.660  52.865  0.00  0.00    -0.304 OA
ATOM     14  C   UNL d   1      52.676  29.941  52.838  0.00  0.00     0.123 A 
ATOM     15  C   UNL d   1      52.827  29.535  53.533  0.00  0.00     0.029 A 
ATOM     16  C   UNL d   1      53.325  29.999  53.997  0.00  0.00     0.028 A 
ENDBRANCH  11  12
ENDBRANCH  10  11
ENDBRANCH   7  10
ENDBRANCH   1   7
BRANCH   4  17
ATOM     17  O   UNL d   1      51.859  34.913  53.208  0.00  0.00    -0.307 OA
BRANCH  17  18
ATOM     18  C   UNL d   1      51.185  34.655  52.800  0.00  0.00     0.100 A 
ATOM     19  C   UNL d   1      51.240  34.399  52.011  0.00  0.00     0.025 A 
ATOM     20  C   UNL d   1      50.565  34.144  51.612  0.00  0.00     0.002 A 
ATOM     21  C   UNL d   1      49.835  34.143  51.996  0.00  0.00     0.000 A 
ATOM     22  C   UNL d   1      49.780  34.399  52.785  0.00  0.00     0.002 A 
ATOM     23  C   UNL d   1      50.455  34.655  53.185  0.00  0.00     0.025 A 
ENDBRANCH  17  18
ENDBRANCH   4  17
TORSDOF 6
ENDMDL
MODEL 4
REMARK VINA RESULT:      -7.2      1.982      3.250
REMARK  6 active torsions:
REMARK  status: ('A' for Active; 'I' for Inactive)
REMARK    1  A    between atoms: N_2  and  S_1 
REMARK    2  A    between atoms: C_3  and  S_1 
REMARK    3  A    between atoms: C_6  and  N_2 
REMARK    4  A    between atoms: C_12  and  C_6 
REMARK    5  A    between atoms: O_10  and  C_11 
REMARK    6  A    between atoms: C_15  and  O_10 
ROOT
ATOM      1  C   UNL d   1      51.173  34.113  52.678  0.00  0.00     0.105 A 
ATOM      2  C   UNL d   1      51.095  33.422  53.126  0.00  0.00     0.015 A 
ATOM      3  C   UNL d   1      51.749  34.676  52.887  0.00  0.00     0.015 A 
ATOM      4  C   UNL d   1      52.149  33.848  53.978  0.00  0.00     0.100 A 
ATOM      5  C   UNL d   1      52.235  34.541  53.537  0.00  0.00     0.025 A 
ATOM      6  C   UNL d   1      51.582  33.291  53.774  0.00  0.00     0.025 A 
ENDROOT
BRANCH   1   7
ATOM      7  S   UNL d   1      50.687  34.252  52.026  0.00  0.00     0.285 S 
ATOM      8  O   UNL d   1      51.251  33.907  51.536  0.00  0.00    -0.198 OA
ATOM      9  O   UNL d   1      50.204  34.388  51.374  0.00  0.00    -0.198 OA
BRANCH   7  10
ATOM     10  N   UNL d   1      50.116  34.600  52.521  0.00  0.00    -0.155 NA
BRANCH  10  11
ATOM     11  C   UNL d   1      49.381  34.821  52.207  0.00  0.00     0.137 C 
BRANCH  11  12
ATOM     12  C   UNL d   1      48.871  35.295  52.657  0.00  0.00     0.120 A 
ATOM     13  O   UNL d   1      49.021  35.617  53.405  0.00  0.00    -0.304 OA
ATOM     14  C   UNL d   1      48.356  36.047  53.633  0.00  0.00     0.123 A 
ATOM     15  C   UNL d   1      47.797  35.995  53.037  0.00  0.00     0.029 A 
ATOM     16  C   UNL d   1      48.112  35.531  52.432  0.00  0.00     0.028 A 
ENDBRANCH  11  12
ENDBRANCH  10  11
ENDBRANCH   7  10
ENDBRANCH   1   7
BRANCH   4  17
ATOM     17  O   UNL d   1      52.641  33.711  54.635  0.00  0.00    -0.307 OA
BRANCH  17  18
ATOM     18  C   UNL d   1      53.428  33.477  54.516  0.00  0.00     0.100 A 
ATOM     19  C   UNL d   1      53.603  32.753  54.147  0.00  0.00     0.025 A 
ATOM     20  C   UNL d   1      54.388  32.528  54.032  0.00  0.00     0.002 A 
ATOM     21  C   UNL d   1      54.999  33.022  54.283  0.00  0.00     0.000 A 
ATOM     22  C   UNL d   1      54.824  33.746  54.651  0.00  0.00     0.002 A 
ATOM     23  C   UNL d   1      54.039  33.972  54.767  0.00  0.00     0.025 A 
ENDBRANCH  17  18
ENDBRANCH   4  17
TORSDOF 6
ENDMDL
MODEL 5
REMARK VINA RESULT:      -7.2      1.488      4.941
REMARK  6 active torsions:
REMARK  status: ('A' for Active; 'I' for Inactive)
REMARK    1  A    between atoms: N_2  and  S_1 
REMARK    2  A    between atoms: C_3  and  S_1 
REMARK    3  A    between atoms: C_6  and  N_2 
REMARK    4  A    between atoms: C_12  and  C_6 
REMARK    5  A    between atoms: O_10  and  C_11 
REMARK    6  A    between atoms: C_15  and  O_10 
ROOT
ATOM      1  C   UNL d   1      51.688  34.133  52.917  0.00  0.00     0.105 A 
ATOM      2  C   UNL d   1      51.105  33.986  53.485  0.00  0.00     0.015 A 
ATOM      3  C   UNL d   1      51.464  34.308  52.134  0.00  0.00     0.015 A 
ATOM      4  C   UNL d   1      50.093  34.186  52.509  0.00  0.00     0.100 A 
ATOM      5  C   UNL d   1      50.666  34.334  51.933  0.00  0.00     0.025 A 
ATOM      6  C   UNL d   1      50.310  34.013  53.281  0.00  0.00     0.025 A 
ENDROOT
BRANCH   1   7
ATOM      7  S   UNL d   1      52.488  34.108  53.115  0.00  0.00     0.285 S 
ATOM      8  O   UNL d   1      52.497  34.928  53.170  0.00  0.00    -0.198 OA
ATOM      9  O   UNL d   1      53.287  34.086  53.313  0.00  0.00    -0.198 OA
BRANCH   7  10
ATOM     10  N   UNL d   1      52.480  33.278  53.059  0.00  0.00    -0.155 NA
BRANCH  10  11
ATOM     11  C   UNL d   1      53.186  32.853  53.155  0.00  0.00     0.137 C 
BRANCH  11  12
ATOM     12  C   UNL d   1      53.167  32.025  53.151  0.00  0.00     0.120 A 
ATOM     13  O   UNL d   1      52.800  31.538  52.590  0.00  0.00    -0.304 OA
ATOM     14  C   UNL d   1      52.927  30.754  52.813  0.00  0.00     0.123 A 
ATOM     15  C   UNL d   1      53.367  30.750  53.503  0.00  0.00     0.029 A 
ATOM     16  C   UNL d   1      53.517  31.533  53.715  0.00  0.00     0.028 A 
ENDBRANCH  11  12
ENDBRANCH  10  11
ENDBRANCH   7  10
ENDBRANCH   1   7
BRANCH   4  17
ATOM     17  O   UNL d   1      49.286  34.212  52.306  0.00  0.00    -0.307 OA
BRANCH  17  18
ATOM     18  C   UNL d   1      48.862  34.918  52.403  0.00  0.00     0.100 A 
ATOM     19  C   UNL d   1      48.786  35.267  53.153  0.00  0.00     0.025 A 
ATOM     20  C   UNL d   1      48.363  35.969  53.241  0.00  0.00     0.002 A 
ATOM     21  C   UNL d   1      48.016  36.326  52.584  0.00  0.00     0.000 A 
ATOM     22  C   UNL d   1      48.092  35.977  51.833  0.00  0.00     0.002 A 
ATOM     23  C   UNL d   1      48.515  35.274  51.744  0.00  0.00     0.025 A 
ENDBRANCH  17  18
ENDBRANCH   4  17
TORSDOF 6
ENDMDL
MODEL 6
REMARK VINA RESULT:      -7.0      2.013      4.632
REMARK  6 active torsions:
REMARK  status: ('A' for Active; 'I' for Inactive)
REMARK    1  A    between atoms: N_2  and  S_1 
REMARK    2  A    between atoms: C_3  and  S_1 
REMARK    3  A    between atoms: C_6  and  N_2 
REMARK    4  A    between atoms: C_12  and  C_6 
REMARK    5  A    between atoms: O_10  and  C_11 
REMARK    6  A    between atoms: C_15  and  O_10 
ROOT
ATOM      1  C   UNL d   1      53.292  31.704  53.317  0.00  0.00     0.105 A 
ATOM      2  C   UNL d   1      54.075  31.958  53.240  0.00  0.00     0.015 A 
ATOM      3  C   UNL d   1      52.776  32.114  53.826  0.00  0.00     0.015 A 
ATOM      4  C   UNL d   1      53.832  33.012  54.161  0.00  0.00     0.100 A 
ATOM      5  C   UNL d   1      53.048  32.767  54.246  0.00  0.00     0.025 A 
ATOM      6  C   UNL d   1      54.344  32.610  53.661  0.00  0.00     0.025 A 
ENDROOT
BRANCH   1   7
ATOM      7  S   UNL d   1      53.016  31.050  52.897  0.00  0.00     0.285 S 
ATOM      8  O   UNL d   1      52.812  31.543  52.271  0.00  0.00    -0.198 OA
ATOM      9  O   UNL d   1      52.740  30.400  52.476  0.00  0.00    -0.198 OA
BRANCH   7  10
ATOM     10  N   UNL d   1      53.222  30.552  53.530  0.00  0.00    -0.155 NA
BRANCH  10  11
ATOM     11  C   UNL d   1      53.016  29.749  53.504  0.00  0.00     0.137 C 
BRANCH  11  12
ATOM     12  C   UNL d   1      53.181  29.264  54.156  0.00  0.00     0.120 A 
ATOM     13  O   UNL d   1      52.756  29.220  54.864  0.00  0.00    -0.304 OA
ATOM     14  C   UNL d   1      53.126  28.663  55.347  0.00  0.00     0.123 A 
ATOM     15  C   UNL d   1      53.773  28.363  54.947  0.00  0.00     0.029 A 
ATOM     16  C   UNL d   1      53.811  28.731  54.210  0.00  0.00     0.028 A 
ENDBRANCH  11  12
ENDBRANCH  10  11
ENDBRANCH   7  10
ENDBRANCH   1   7
BRANCH   4  17
ATOM     17  O   UNL d   1      54.108  33.672  54.586  0.00  0.00    -0.307 OA
BRANCH  17  18
ATOM     18  C   UNL d   1      53.704  34.394  54.529  0.00  0.00     0.100 A 
ATOM     19  C   UNL d   1      53.715  34.830  53.822  0.00  0.00     0.025 A 
ATOM     20  C   UNL d   1      53.311  35.547  53.772  0.00  0.00     0.002 A 
ATOM     21  C   UNL d   1      52.895  35.831  54.426  0.00  0.00     0.000 A 
ATOM     22  C   UNL d   1      52.883  35.395  55.133  0.00  0.00     0.002 A 
ATOM     23  C   UNL d   1      53.288  34.677  55.184  0.00  0.00     0.025 A 
ENDBRANCH  17  18
ENDBRANCH   4  17
TORSDOF 6
ENDMDL
MODEL 7
REMARK VINA RESULT:      -6.4      1.740      2.887
REMARK  6 active torsions:
REMARK  status: ('A' for Active; 'I' for Inactive)
REMARK    1  A    between atoms: N_2  and  S_1 
REMARK    2  A    between atoms: C_3  and  S_1 
REMARK    3  A    between atoms: C_6  and  N_2 
REMARK    4  A    between atoms: C_12  and  C_6 
REMARK    5  A    between atoms: O_10  and  C_11 
REMARK    6  A    between atoms: C_15  and  O_10 
ROOT
ATOM      1  C   UNL d   1      52.768  32.156  53.061  0.00  0.00     0.105 A 
ATOM      2  C   UNL d   1      53.385  31.657  52.826  0.00  0.00     0.015 A 
ATOM      3  C   UNL d   1      52.070  31.828  53.372  0.00  0.00     0.015 A 
ATOM      4  C   UNL d   1      52.620  30.522  53.205  0.00  0.00     0.100 A 
ATOM      5  C   UNL d   1      51.998  31.011  53.443  0.00  0.00     0.025 A 
ATOM      6  C   UNL d   1      53.310  30.843  52.899  0.00  0.00     0.025 A 
ENDROOT
BRANCH   1   7
ATOM      7  S   UNL d   1      52.837  32.975  52.991  0.00  0.00     0.285 S 
ATOM      8  O   UNL d   1      52.321  32.960  52.351  0.00  0.00    -0.198 OA
ATOM      9  O   UNL d   1      52.904  33.792  52.918  0.00  0.00    -0.198 OA
BRANCH   7  10
ATOM     10  N   UNL d   1      53.360  32.991  53.638  0.00  0.00    -0.155 NA
BRANCH  10  11
ATOM     11  C   UNL d   1      53.645  33.717  53.917  0.00  0.00     0.137 C 
BRANCH  11  12
ATOM     12  C   UNL d   1      54.162  33.730  54.565  0.00  0.00     0.120 A 
ATOM     13  O   UNL d   1      53.958  33.686  55.366  0.00  0.00    -0.304 OA
ATOM     14  C   UNL d   1      54.655  33.719  55.807  0.00  0.00     0.123 A 
ATOM     15  C   UNL d   1      55.285  33.784  55.289  0.00  0.00     0.029 A 
ATOM     16  C   UNL d   1      54.986  33.791  54.521  0.00  0.00     0.028 A 
ENDBRANCH  11  12
ENDBRANCH  10  11
ENDBRANCH   7  10
ENDBRANCH   1   7
BRANCH   4  17
ATOM     17  O   UNL d   1      52.547  29.696  53.277  0.00  0.00    -0.307 OA
BRANCH  17  18
ATOM     18  C   UNL d   1      52.902  29.308  53.919  0.00  0.00     0.100 A 
ATOM     19  C   UNL d   1      52.572  29.361  54.680  0.00  0.00     0.025 A 
ATOM     20  C   UNL d   1      52.931  28.972  55.313  0.00  0.00     0.002 A 
ATOM     21  C   UNL d   1      53.617  28.532  55.190  0.00  0.00     0.000 A 
ATOM     22  C   UNL d   1      53.947  28.479  54.429  0.00  0.00     0.002 A 
ATOM     23  C   UNL d   1      53.589  28.867  53.795  0.00  0.00     0.025 A 
ENDBRANCH  17  18
ENDBRANCH   4  17
TORSDOF 6
ENDMDL
