MODEL 1
REMARK VINA RESULT:       9.1      0.000      0.000
REMARK  3 active torsions:
REMARK  status: ('A' for Active; 'I' for Inactive)
REMARK    1  A    between atoms: C_6  and  N_1 
REMARK    2  A    between atoms: C_7  and  C_6 
REMARK    3  A    between atoms: C_8  and  C_7 
ROOT
ATOM      1  N   UNL d   1      46.583 -18.208  43.294  0.00  0.00    -0.305 N 
ATOM      2  C   UNL d   1      46.599 -18.395  42.291  0.00  0.00     0.064 A 
ATOM      3  C   UNL d   1      46.620 -19.178  42.537  0.00  0.00     0.018 A 
ATOM      4  C   UNL d   1      46.593 -18.753  43.910  0.00  0.00     0.064 A 
ATOM      5  C   UNL d   1      46.617 -19.350  43.352  0.00  0.00     0.018 A 
ATOM      6  C   UNL d   1      46.602 -18.224  41.484  0.00  0.00     0.018 A 
ATOM      7  C   UNL d   1      46.644 -19.786  41.998  0.00  0.00     0.002 A 
ATOM      8  C   UNL d   1      46.590 -18.925  44.725  0.00  0.00     0.018 A 
ATOM      9  C   UNL d   1      46.638 -20.137  43.597  0.00  0.00     0.002 A 
ATOM     10  C   UNL d   1      46.647 -19.613  41.179  0.00  0.00     0.000 A 
ATOM     11  C   UNL d   1      46.626 -18.838  40.928  0.00  0.00     0.002 A 
ATOM     12  C   UNL d   1      46.636 -20.328  44.400  0.00  0.00     0.000 A 
ATOM     13  C   UNL d   1      46.612 -19.726  44.954  0.00  0.00     0.002 A 
ENDROOT
BRANCH   1  14
ATOM     14  C   UNL d   1      46.556 -17.400  43.478  0.00  0.00     0.086 C 
BRANCH  14  15
ATOM     15  C   UNL d   1      45.856 -17.076  43.807  0.00  0.00     0.089 C 
BRANCH  15  16
ATOM     16  C   UNL d   1      45.839 -16.273  44.015  0.00  0.00     0.213 C 
ATOM     17  O   UNL d   1      45.133 -15.935  44.254  0.00  0.00    -0.644 OA
ATOM     18  O   UNL d   1      46.035 -15.480  44.175  0.00  0.00    -0.644 OA
ENDBRANCH  15  16
ENDBRANCH  14  15
ENDBRANCH   1  14
TORSDOF 3
ENDMDL
