MODEL 1
REMARK VINA RESULT:      -6.0      0.000      0.000
REMARK  4 active torsions:
REMARK  status: ('A' for Active; 'I' for Inactive)
REMARK    1  A    between atoms: C_5  and  C_1 
REMARK       I    between atoms: N_7  and  C_5 
REMARK    2  A    between atoms: C_9  and  N_7 
REMARK    3  A    between atoms: C_8  and  C_9 
REMARK    4  A    between atoms: O_13  and  C_11 
ROOT
ATOM      1  C   UNL d   1     -41.724-122.041 -51.435  0.00  0.00     0.299 C 
ATOM      2  N   UNL d   1     -41.848-122.410 -52.169  0.00  0.00    -0.205 NA
ATOM      3  O   UNL d   1     -41.131-121.476 -51.353  0.00  0.00    -0.263 OA
ENDROOT
BRANCH   1   4
ATOM      4  C   UNL d   1     -42.198-122.244 -50.785  0.00  0.00     0.162 A 
ATOM      5  N   UNL d   1     -42.987-122.035 -50.683  0.00  0.00    -0.143 NA
ATOM      6  N   UNL d   1     -43.252-122.351 -49.956  0.00  0.00    -0.148 NA
ATOM      7  C   UNL d   1     -42.604-122.758 -49.616  0.00  0.00     0.105 A 
ATOM      8  C   UNL d   1     -41.955-122.690 -50.130  0.00  0.00     0.044 A 
ATOM      9  C   UNL d   1     -42.534-123.173 -48.914  0.00  0.00     0.021 A 
ATOM     10  C   UNL d   1     -41.239-123.046 -49.926  0.00  0.00     0.003 A 
ATOM     11  C   UNL d   1     -41.170-123.458 -49.227  0.00  0.00     0.000 A 
ATOM     12  C   UNL d   1     -41.813-123.524 -48.721  0.00  0.00     0.002 A 
ENDBRANCH   1   4
BRANCH   2  13
ATOM     13  C   UNL d   1     -41.375-122.206 -52.815  0.00  0.00     0.104 C 
BRANCH  13  14
ATOM     14  C   UNL d   1     -41.423-122.623 -53.524  0.00  0.00     0.042 A 
ATOM     15  C   UNL d   1     -41.767-122.272 -54.193  0.00  0.00     0.096 A 
ATOM     16  C   UNL d   1     -41.808-122.693 -54.889  0.00  0.00     0.024 A 
ATOM     17  C   UNL d   1     -41.512-123.462 -54.933  0.00  0.00     0.002 A 
ATOM     18  C   UNL d   1     -41.171-123.817 -54.281  0.00  0.00     0.000 A 
ATOM     19  C   UNL d   1     -41.123-123.398 -53.565  0.00  0.00     0.004 A 
BRANCH  15  20
ATOM     20  O   UNL d   1     -42.067-121.501 -54.159  0.00  0.00    -0.328 OA
ATOM     21  C   UNL d   1     -42.643-121.244 -54.683  0.00  0.00     0.181 C 
ENDBRANCH  15  20
ENDBRANCH  13  14
ENDBRANCH   2  13
TORSDOF 4
ENDMDL
