MODEL 1
REMARK VINA RESULT:       3.5      0.000      0.000
REMARK  2 active torsions:
REMARK  status: ('A' for Active; 'I' for Inactive)
REMARK    1  A    between atoms: CA_2  and  C_1 
REMARK    2  A    between atoms: C_3  and  CA_2 
ROOT
ATOM      1  C   UNL d   1     -51.693  24.789  33.315  0.00  0.00     0.053 A 
ATOM      2  C   UNL d   1     -51.406  24.009  33.320  0.00  0.00     0.142 A 
ATOM      3  F   UNL d   1     -50.593  23.871  33.328  0.00  0.00    -0.204 F 
ATOM      4  C   UNL d   1     -52.514  24.928  33.307  0.00  0.00     0.004 A 
ATOM      5  C   UNL d   1     -51.940  23.377  33.319  0.00  0.00     0.030 A 
ATOM      6  C   UNL d   1     -53.042  24.286  33.306  0.00  0.00     0.000 A 
ATOM      7  C   UNL d   1     -52.753  23.515  33.311  0.00  0.00     0.002 A 
ENDROOT
BRANCH   1   8
ATOM      8  CA  UNL d   1     -51.166  25.421  33.316  0.00  0.00     0.169 C 
ATOM      9  N   UNL d   1     -50.353  25.285  33.306  0.00  0.00    -0.142 N 
BRANCH   8  10
ATOM     10  C   UNL d   1     -51.458  26.193  33.328  0.00  0.00     0.231 C 
ATOM     11  O   UNL d   1     -52.268  26.335  33.322  0.00  0.00    -0.643 OA
ATOM     12  OXT UNL d   1     -50.932  26.830  33.348  0.00  0.00    -0.643 OA
ENDBRANCH   8  10
ENDBRANCH   1   8
TORSDOF 2
ENDMDL
MODEL 2
REMARK VINA RESULT:       5.4      1.211      2.308
REMARK  2 active torsions:
REMARK  status: ('A' for Active; 'I' for Inactive)
REMARK    1  A    between atoms: CA_2  and  C_1 
REMARK    2  A    between atoms: C_3  and  CA_2 
ROOT
ATOM      1  C   UNL d   1     -51.450  25.386  33.314  0.00  0.00     0.053 A 
ATOM      2  C   UNL d   1     -50.639  25.566  33.311  0.00  0.00     0.142 A 
ATOM      3  F   UNL d   1     -50.084  24.956  33.313  0.00  0.00    -0.204 F 
ATOM      4  C   UNL d   1     -52.011  26.002  33.313  0.00  0.00     0.004 A 
ATOM      5  C   UNL d   1     -50.396  26.357  33.307  0.00  0.00     0.030 A 
ATOM      6  C   UNL d   1     -51.756  26.793  33.309  0.00  0.00     0.000 A 
ATOM      7  C   UNL d   1     -50.952  26.967  33.306  0.00  0.00     0.002 A 
ENDROOT
BRANCH   1   8
ATOM      8  CA  UNL d   1     -51.699  24.601  33.318  0.00  0.00     0.169 C 
ATOM      9  N   UNL d   1     -51.145  23.990  33.313  0.00  0.00    -0.142 N 
BRANCH   8  10
ATOM     10  C   UNL d   1     -52.506  24.430  33.328  0.00  0.00     0.231 C 
ATOM     11  O   UNL d   1     -53.062  25.035  33.352  0.00  0.00    -0.643 OA
ATOM     12  OXT UNL d   1     -52.758  23.644  33.312  0.00  0.00    -0.643 OA
ENDBRANCH   8  10
ENDBRANCH   1   8
TORSDOF 2
ENDMDL
