MODEL 1
REMARK VINA RESULT:      -8.2      0.000      0.000
REMARK  3 active torsions:
REMARK  status: ('A' for Active; 'I' for Inactive)
REMARK    1  A    between atoms: C_6  and  C_1 
REMARK    2  A    between atoms: O_9  and  C_6 
REMARK    3  A    between atoms: C_12  and  O_9 
ROOT
ATOM      1  C   UNL d   1      52.931  32.712  53.533  0.00  0.00     0.089 A 
ATOM      2  C   UNL d   1      52.286  33.234  53.598  0.00  0.00     0.138 A 
ATOM      3  S   UNL d   1      52.504  33.834  54.088  0.00  0.00    -0.066 SA
ATOM      4  C   UNL d   1      53.525  33.014  53.989  0.00  0.00     0.013 A 
ATOM      5  C   UNL d   1      53.275  33.693  54.328  0.00  0.00     0.031 A 
ATOM      6  N   UNL d   1      51.543  33.167  53.233  0.00  0.00    -0.141 N 
ATOM      7  C   UNL d   1      54.292  32.719  54.126  0.00  0.00     0.001 A 
ATOM      8  C   UNL d   1      53.780  34.125  54.832  0.00  0.00     0.006 A 
ATOM      9  C   UNL d   1      54.794  33.156  54.632  0.00  0.00     0.000 A 
ATOM     10  C   UNL d   1      54.534  33.826  54.961  0.00  0.00     0.001 A 
ENDROOT
BRANCH   1  11
ATOM     11  C   UNL d   1      52.929  32.010  53.069  0.00  0.00     0.302 C 
ATOM     12  O   UNL d   1      53.008  32.074  52.269  0.00  0.00    -0.259 OA
BRANCH  11  13
ATOM     13  O   UNL d   1      52.848  31.310  53.443  0.00  0.00    -0.271 OA
BRANCH  13  14
ATOM     14  C   UNL d   1      52.822  30.626  53.004  0.00  0.00     0.126 C 
ATOM     15  C   UNL d   1      52.800  29.898  53.391  0.00  0.00     0.029 C 
ENDBRANCH  13  14
ENDBRANCH  11  13
ENDBRANCH   1  11
TORSDOF 3
ENDMDL
MODEL 2
REMARK VINA RESULT:      -8.2      1.272      2.862
REMARK  3 active torsions:
REMARK  status: ('A' for Active; 'I' for Inactive)
REMARK    1  A    between atoms: C_6  and  C_1 
REMARK    2  A    between atoms: O_9  and  C_6 
REMARK    3  A    between atoms: C_12  and  O_9 
ROOT
ATOM      1  C   UNL d   1      53.585  32.283  53.466  0.00  0.00     0.089 A 
ATOM      2  C   UNL d   1      52.938  32.657  53.100  0.00  0.00     0.138 A 
ATOM      3  S   UNL d   1      52.422  32.085  52.869  0.00  0.00    -0.066 SA
ATOM      4  C   UNL d   1      53.442  31.489  53.445  0.00  0.00     0.013 A 
ATOM      5  C   UNL d   1      52.740  31.360  53.085  0.00  0.00     0.031 A 
ATOM      6  N   UNL d   1      52.824  33.472  52.985  0.00  0.00    -0.141 N 
ATOM      7  C   UNL d   1      53.903  30.857  53.730  0.00  0.00     0.001 A 
ATOM      8  C   UNL d   1      52.451  30.584  52.986  0.00  0.00     0.006 A 
ATOM      9  C   UNL d   1      53.610  30.082  53.629  0.00  0.00     0.000 A 
ATOM     10  C   UNL d   1      52.914  29.968  53.271  0.00  0.00     0.001 A 
ENDROOT
BRANCH   1  11
ATOM     11  C   UNL d   1      54.249  32.689  53.787  0.00  0.00     0.302 C 
ATOM     12  O   UNL d   1      54.890  32.819  53.314  0.00  0.00    -0.259 OA
BRANCH  11  13
ATOM     13  O   UNL d   1      54.214  32.929  54.547  0.00  0.00    -0.271 OA
BRANCH  13  14
ATOM     14  C   UNL d   1      54.843  33.334  54.865  0.00  0.00     0.126 C 
ATOM     15  C   UNL d   1      54.801  33.601  55.644  0.00  0.00     0.029 C 
ENDBRANCH  13  14
ENDBRANCH  11  13
ENDBRANCH   1  11
TORSDOF 3
ENDMDL
MODEL 3
REMARK VINA RESULT:      -8.0      1.389      1.909
REMARK  3 active torsions:
REMARK  status: ('A' for Active; 'I' for Inactive)
REMARK    1  A    between atoms: C_6  and  C_1 
REMARK    2  A    between atoms: O_9  and  C_6 
REMARK    3  A    between atoms: C_12  and  O_9 
ROOT
ATOM      1  C   UNL d   1      53.682  33.035  54.033  0.00  0.00     0.089 A 
ATOM      2  C   UNL d   1      53.941  33.344  54.761  0.00  0.00     0.138 A 
ATOM      3  S   UNL d   1      53.582  34.055  54.869  0.00  0.00    -0.066 SA
ATOM      4  C   UNL d   1      53.170  33.574  53.718  0.00  0.00     0.013 A 
ATOM      5  C   UNL d   1      53.103  34.195  54.218  0.00  0.00     0.031 A 
ATOM      6  N   UNL d   1      54.473  32.995  55.295  0.00  0.00    -0.141 N 
ATOM      7  C   UNL d   1      52.747  33.551  53.000  0.00  0.00     0.001 A 
ATOM      8  C   UNL d   1      52.606  34.838  54.031  0.00  0.00     0.006 A 
ATOM      9  C   UNL d   1      52.251  34.198  52.818  0.00  0.00     0.000 A 
ATOM     10  C   UNL d   1      52.195  34.805  53.321  0.00  0.00     0.001 A 
ENDROOT
BRANCH   1  11
ATOM     11  C   UNL d   1      53.929  32.297  53.714  0.00  0.00     0.302 C 
ATOM     12  O   UNL d   1      54.618  32.265  53.295  0.00  0.00    -0.259 OA
BRANCH  11  13
ATOM     13  O   UNL d   1      53.469  31.657  53.842  0.00  0.00    -0.271 OA
BRANCH  13  14
ATOM     14  C   UNL d   1      53.688  30.942  53.525  0.00  0.00     0.126 C 
ATOM     15  C   UNL d   1      53.197  30.287  53.628  0.00  0.00     0.029 C 
ENDBRANCH  13  14
ENDBRANCH  11  13
ENDBRANCH   1  11
TORSDOF 3
ENDMDL
MODEL 4
REMARK VINA RESULT:      -7.9      1.697      2.492
REMARK  3 active torsions:
REMARK  status: ('A' for Active; 'I' for Inactive)
REMARK    1  A    between atoms: C_6  and  C_1 
REMARK    2  A    between atoms: O_9  and  C_6 
REMARK    3  A    between atoms: C_12  and  O_9 
ROOT
ATOM      1  C   UNL d   1      52.851  34.228  53.783  0.00  0.00     0.089 A 
ATOM      2  C   UNL d   1      53.073  34.764  54.379  0.00  0.00     0.138 A 
ATOM      3  S   UNL d   1      53.581  34.386  54.874  0.00  0.00    -0.066 SA
ATOM      4  C   UNL d   1      53.235  33.534  53.936  0.00  0.00     0.013 A 
ATOM      5  C   UNL d   1      53.679  33.621  54.595  0.00  0.00     0.031 A 
ATOM      6  N   UNL d   1      52.826  35.552  54.466  0.00  0.00    -0.141 N 
ATOM      7  C   UNL d   1      53.217  32.812  53.520  0.00  0.00     0.001 A 
ATOM      8  C   UNL d   1      54.138  32.987  54.883  0.00  0.00     0.006 A 
ATOM      9  C   UNL d   1      53.678  32.180  53.813  0.00  0.00     0.000 A 
ATOM     10  C   UNL d   1      54.113  32.281  54.465  0.00  0.00     0.001 A 
ENDROOT
BRANCH   1  11
ATOM     11  C   UNL d   1      52.323  34.408  53.154  0.00  0.00     0.302 C 
ATOM     12  O   UNL d   1      52.619  34.745  52.483  0.00  0.00    -0.259 OA
BRANCH  11  13
ATOM     13  O   UNL d   1      51.549  34.237  53.248  0.00  0.00    -0.271 OA
BRANCH  13  14
ATOM     14  C   UNL d   1      51.037  34.362  52.630  0.00  0.00     0.126 C 
ATOM     15  C   UNL d   1      50.227  34.256  52.748  0.00  0.00     0.029 C 
ENDBRANCH  13  14
ENDBRANCH  11  13
ENDBRANCH   1  11
TORSDOF 3
ENDMDL
MODEL 5
REMARK VINA RESULT:      -7.8      1.518      2.745
REMARK  3 active torsions:
REMARK  status: ('A' for Active; 'I' for Inactive)
REMARK    1  A    between atoms: C_6  and  C_1 
REMARK    2  A    between atoms: O_9  and  C_6 
REMARK    3  A    between atoms: C_12  and  O_9 
ROOT
ATOM      1  C   UNL d   1      53.366  32.871  53.456  0.00  0.00     0.089 A 
ATOM      2  C   UNL d   1      53.053  32.113  53.315  0.00  0.00     0.138 A 
ATOM      3  S   UNL d   1      52.317  32.205  53.005  0.00  0.00    -0.066 SA
ATOM      4  C   UNL d   1      52.806  33.404  53.225  0.00  0.00     0.013 A 
ATOM      5  C   UNL d   1      52.167  33.009  52.951  0.00  0.00     0.031 A 
ATOM      6  N   UNL d   1      53.418  31.381  53.461  0.00  0.00    -0.141 N 
ATOM      7  C   UNL d   1      52.824  34.237  53.242  0.00  0.00     0.001 A 
ATOM      8  C   UNL d   1      51.499  33.425  52.673  0.00  0.00     0.006 A 
ATOM      9  C   UNL d   1      52.152  34.648  52.963  0.00  0.00     0.000 A 
ATOM     10  C   UNL d   1      51.528  34.245  52.694  0.00  0.00     0.001 A 
ENDROOT
BRANCH   1  11
ATOM     11  C   UNL d   1      54.129  33.017  53.780  0.00  0.00     0.302 C 
ATOM     12  O   UNL d   1      54.770  32.987  53.292  0.00  0.00    -0.259 OA
BRANCH  11  13
ATOM     13  O   UNL d   1      54.184  33.180  54.559  0.00  0.00    -0.271 OA
BRANCH  13  14
ATOM     14  C   UNL d   1      54.910  33.357  54.877  0.00  0.00     0.126 C 
ATOM     15  C   UNL d   1      54.956  33.631  55.654  0.00  0.00     0.029 C 
ENDBRANCH  13  14
ENDBRANCH  11  13
ENDBRANCH   1  11
TORSDOF 3
ENDMDL
