MODEL 1
REMARK VINA RESULT:     112.8      0.000      0.000
REMARK  4 active torsions:
REMARK  status: ('A' for Active; 'I' for Inactive)
REMARK    1  A    between atoms: C_4  and  N_1 
REMARK    2  A    between atoms: C_8  and  C_2 
REMARK    3  A    between atoms: C_13  and  C_6 
REMARK    4  A    between atoms: C_7  and  C_8 
ROOT
ATOM      1  N   UNL d   1     -48.500  28.973  36.454  0.00  0.00    -0.255 N 
ATOM      2  C   UNL d   1     -47.713  29.662  35.629  0.00  0.00     0.101 A 
ATOM      3  C   UNL d   1     -48.070  29.523  36.910  0.00  0.00     0.305 A 
ATOM      4  C   UNL d   1     -47.580  29.951  36.396  0.00  0.00     0.256 A 
ATOM      5  C   UNL d   1     -48.273  29.068  35.672  0.00  0.00     0.075 A 
ATOM      6  O   UNL d   1     -48.122  29.624  37.727  0.00  0.00    -0.263 OA
ATOM      7  O   UNL d   1     -47.064  30.548  36.619  0.00  0.00    -0.281 OA
ENDROOT
BRANCH   2   8
ATOM      8  C   UNL d   1     -47.333  29.940  34.949  0.00  0.00     0.223 C 
ATOM      9  O   UNL d   1     -46.805  29.448  34.547  0.00  0.00    -0.284 OA
BRANCH   8  10
ATOM     10  C   UNL d   1     -47.472  30.694  34.669  0.00  0.00     0.139 A 
ATOM     11  O   UNL d   1     -48.210  31.014  34.481  0.00  0.00    -0.304 OA
ATOM     12  C   UNL d   1     -48.094  31.788  34.220  0.00  0.00     0.100 A 
ATOM     13  C   UNL d   1     -48.614  32.368  33.963  0.00  0.00     0.025 A 
ATOM     14  C   UNL d   1     -47.283  31.945  34.247  0.00  0.00     0.025 A 
ATOM     15  C   UNL d   1     -48.336  33.097  33.734  0.00  0.00     0.002 A 
ATOM     16  C   UNL d   1     -47.526  33.259  33.759  0.00  0.00     0.000 A 
ATOM     17  C   UNL d   1     -47.000  32.680  34.016  0.00  0.00     0.002 A 
ATOM     18  C   UNL d   1     -46.902  31.270  34.524  0.00  0.00     0.030 A 
ENDBRANCH   8  10
ENDBRANCH   2   8
BRANCH   5  19
ATOM     19  C   UNL d   1     -48.561  28.635  35.026  0.00  0.00     0.017 A 
ATOM     20  C   UNL d   1     -49.204  28.910  34.610  0.00  0.00     0.013 A 
ATOM     21  C   UNL d   1     -49.496  28.481  33.964  0.00  0.00     0.058 A 
ATOM     22 CL   UNL d   1     -50.148  28.757  33.540  0.00  0.00    -0.082 Cl
ATOM     23  C   UNL d   1     -49.131  27.773  33.746  0.00  0.00     0.011 A 
ATOM     24  C   UNL d   1     -48.479  27.496  34.170  0.00  0.00     0.001 A 
ATOM     25  C   UNL d   1     -48.198  27.933  34.812  0.00  0.00     0.002 A 
ENDBRANCH   5  19
BRANCH   1  26
ATOM     26  C   UNL d   1     -49.049  28.440  36.745  0.00  0.00     0.179 A 
ATOM     27  N   UNL d   1     -49.213  27.695  36.423  0.00  0.00    -0.108 NA
ATOM     28  O   UNL d   1     -49.795  27.343  36.883  0.00  0.00    -0.210 OA
ATOM     29  C   UNL d   1     -49.992  27.871  37.491  0.00  0.00     0.128 A 
ATOM     30  C   UNL d   1     -49.529  28.548  37.402  0.00  0.00     0.067 A 
ATOM     31  C   UNL d   1     -50.554  27.742  38.082  0.00  0.00     0.029 C 
ENDBRANCH   1  26
TORSDOF 4
ENDMDL
