MODEL 1
REMARK VINA RESULT:     107.6      0.000      0.000
REMARK  4 active torsions:
REMARK  status: ('A' for Active; 'I' for Inactive)
REMARK    1  A    between atoms: C_2  and  S_1 
REMARK    2  A    between atoms: N_3  and  S_1 
REMARK    3  A    between atoms: C_4  and  C_6 
REMARK       I    between atoms: N_7  and  C_4 
REMARK    4  A    between atoms: C_14  and  N_7 
ROOT
ATOM      1  C   UNL d   1      61.846  44.143  50.037  0.00  0.00     0.104 A 
ATOM      2  C   UNL d   1      61.871  44.928  50.284  0.00  0.00     0.018 A 
ATOM      3  C   UNL d   1      61.559  45.521  49.801  0.00  0.00     0.059 A 
ATOM      4  C   UNL d   1      61.512  43.946  49.312  0.00  0.00     0.012 A 
ATOM      5  C   UNL d   1      61.223  45.327  49.072  0.00  0.00     0.005 A 
ATOM      6  C   UNL d   1      61.200  44.538  48.828  0.00  0.00     0.001 A 
ATOM      7  C   UNL d   1      61.486  43.161  49.065  0.00  0.00     0.001 C 
ENDROOT
BRANCH   3   8
ATOM      8  C   UNL d   1      61.580  46.309  50.040  0.00  0.00     0.279 C 
ATOM      9  N   UNL d   1      60.962  46.619  50.482  0.00  0.00    -0.208 NA
ATOM     10  O   UNL d   1      62.219  46.782  49.834  0.00  0.00    -0.265 OA
BRANCH   9  11
ATOM     11  C   UNL d   1      60.977  47.408  50.724  0.00  0.00     0.087 A 
ATOM     12  C   UNL d   1      61.003  47.583  51.524  0.00  0.00     0.045 A 
ATOM     13  C   UNL d   1      61.019  48.373  51.774  0.00  0.00     0.121 A 
ATOM     14  O   UNL d   1      61.045  48.723  52.528  0.00  0.00    -0.299 OA
ATOM     15  C   UNL d   1      61.008  48.976  51.211  0.00  0.00     0.119 A 
ATOM     16  C   UNL d   1      61.050  49.538  52.422  0.00  0.00     0.304 A 
ATOM     17  O   UNL d   1      61.027  49.707  51.608  0.00  0.00    -0.300 OA
ATOM     18  C   UNL d   1      60.981  48.797  50.396  0.00  0.00     0.028 A 
ATOM     19  C   UNL d   1      60.966  48.009  50.154  0.00  0.00     0.021 A 
ENDBRANCH   9  11
ENDBRANCH   3   8
BRANCH   1  20
ATOM     20  S   UNL d   1      62.155  43.556  50.517  0.00  0.00     0.271 S 
ATOM     21  O   UNL d   1      62.867  43.587  50.097  0.00  0.00    -0.200 OA
ATOM     22  O   UNL d   1      61.336  43.519  51.000  0.00  0.00    -0.200 OA
BRANCH  20  23
ATOM     23  N   UNL d   1      62.413  42.960  51.032  0.00  0.00    -0.229 N 
ATOM     24  C   UNL d   1      62.977  42.383  50.849  0.00  0.00     0.092 A 
ATOM     25  C   UNL d   1      63.066  41.907  51.518  0.00  0.00     0.021 A 
ATOM     26  C   UNL d   1      62.557  42.196  52.106  0.00  0.00     0.021 A 
ATOM     27  C   UNL d   1      62.160  42.840  51.801  0.00  0.00     0.092 A 
ENDBRANCH  20  23
ENDBRANCH   1  20
TORSDOF 4
ENDMDL
