MODEL 1
REMARK VINA RESULT:      -5.5      0.000      0.000
REMARK  2 active torsions:
REMARK  status: ('A' for Active; 'I' for Inactive)
REMARK    1  A    between atoms: N_2  and  S_1 
REMARK    2  A    between atoms: C_3  and  S_1 
ROOT
ATOM      1  C   UNL d   1      56.244  -0.226  32.768  0.00  0.00     0.104 A 
ATOM      2  O   UNL d   1      57.427  -0.922  30.714  0.00  0.00    -0.273 OA
ATOM      3  C   UNL d   1      57.811  -0.354  30.239  0.00  0.00     0.300 A 
ATOM      4  C   UNL d   1      57.016   0.107  31.619  0.00  0.00     0.024 A 
ATOM      5  C   UNL d   1      57.033  -0.691  31.398  0.00  0.00     0.103 A 
ATOM      6  C   UNL d   1      57.398   0.682  31.149  0.00  0.00     0.007 A 
ATOM      7  C   UNL d   1      56.622   0.338  32.303  0.00  0.00     0.015 A 
ATOM      8  C   UNL d   1      57.794   0.444  30.459  0.00  0.00     0.069 A 
ATOM      9  C   UNL d   1      56.261  -1.024  32.548  0.00  0.00     0.015 A 
ATOM     10  O   UNL d   1      58.206  -0.593  29.552  0.00  0.00    -0.259 OA
ATOM     11  C   UNL d   1      56.656  -1.256  31.863  0.00  0.00     0.025 A 
ENDROOT
BRANCH   1  12
ATOM     12  S   UNL d   1      55.850  -0.000  33.451  0.00  0.00     0.272 S 
ATOM     13  O   UNL d   1      56.527   0.386  33.723  0.00  0.00    -0.200 OA
ATOM     14  O   UNL d   1      55.169  -0.384  33.188  0.00  0.00    -0.200 OA
BRANCH  12  15
ATOM     15  N   UNL d   1      55.451   0.227  34.140  0.00  0.00    -0.225 N 
ATOM     16  C   UNL d   1      55.853   0.244  34.865  0.00  0.00     0.118 A 
ATOM     17  C   UNL d   1      55.458   0.470  35.550  0.00  0.00     0.142 A 
ATOM     18  O   UNL d   1      54.660   0.682  35.525  0.00  0.00    -0.300 OA
ATOM     19  C   UNL d   1      54.256   0.665  34.797  0.00  0.00     0.142 A 
ATOM     20  C   UNL d   1      54.649   0.439  34.107  0.00  0.00     0.118 A 
ENDBRANCH  12  15
ENDBRANCH   1  12
TORSDOF 2
ENDMDL
MODEL 2
REMARK VINA RESULT:      -5.3      1.504      4.448
REMARK  2 active torsions:
REMARK  status: ('A' for Active; 'I' for Inactive)
REMARK    1  A    between atoms: N_2  and  S_1 
REMARK    2  A    between atoms: C_3  and  S_1 
ROOT
ATOM      1  C   UNL d   1      57.334   0.133  31.874  0.00  0.00     0.104 A 
ATOM      2  O   UNL d   1      56.358   0.585  34.098  0.00  0.00    -0.273 OA
ATOM      3  C   UNL d   1      55.581   0.336  34.273  0.00  0.00     0.300 A 
ATOM      4  C   UNL d   1      56.241   0.035  32.782  0.00  0.00     0.024 A 
ATOM      5  C   UNL d   1      56.684   0.434  33.357  0.00  0.00     0.103 A 
ATOM      6  C   UNL d   1      55.463  -0.217  32.949  0.00  0.00     0.007 A 
ATOM      7  C   UNL d   1      56.567  -0.115  32.041  0.00  0.00     0.015 A 
ATOM      8  C   UNL d   1      55.139  -0.063  33.698  0.00  0.00     0.069 A 
ATOM      9  C   UNL d   1      57.777   0.532  32.449  0.00  0.00     0.015 A 
ATOM     10  O   UNL d   1      55.259   0.490  35.019  0.00  0.00    -0.259 OA
ATOM     11  C   UNL d   1      57.451   0.682  33.190  0.00  0.00     0.025 A 
ENDROOT
BRANCH   1  12
ATOM     12  S   UNL d   1      57.663  -0.015  31.137  0.00  0.00     0.272 S 
ATOM     13  O   UNL d   1      57.229  -0.714  31.075  0.00  0.00    -0.200 OA
ATOM     14  O   UNL d   1      58.101   0.682  31.189  0.00  0.00    -0.200 OA
BRANCH  12  15
ATOM     15  N   UNL d   1      57.995  -0.163  30.393  0.00  0.00    -0.225 N 
ATOM     16  C   UNL d   1      58.138   0.466  29.872  0.00  0.00     0.118 A 
ATOM     17  C   UNL d   1      58.468   0.321  29.133  0.00  0.00     0.142 A 
ATOM     18  O   UNL d   1      58.661  -0.448  28.901  0.00  0.00    -0.300 OA
ATOM     19  C   UNL d   1      58.517  -1.080  29.425  0.00  0.00     0.142 A 
ATOM     20  C   UNL d   1      58.186  -0.938  30.167  0.00  0.00     0.118 A 
ENDBRANCH  12  15
ENDBRANCH   1  12
TORSDOF 2
ENDMDL
MODEL 3
REMARK VINA RESULT:      -4.4      1.397      2.331
REMARK  2 active torsions:
REMARK  status: ('A' for Active; 'I' for Inactive)
REMARK    1  A    between atoms: N_2  and  S_1 
REMARK    2  A    between atoms: C_3  and  S_1 
ROOT
ATOM      1  C   UNL d   1      57.590   0.021  31.252  0.00  0.00     0.104 A 
ATOM      2  O   UNL d   1      59.405   0.104  29.577  0.00  0.00    -0.273 OA
ATOM      3  C   UNL d   1      59.484  -0.507  29.014  0.00  0.00     0.300 A 
ATOM      4  C   UNL d   1      58.268  -0.557  30.140  0.00  0.00     0.024 A 
ATOM      5  C   UNL d   1      58.800   0.077  30.135  0.00  0.00     0.103 A 
ATOM      6  C   UNL d   1      58.340  -1.172  29.581  0.00  0.00     0.007 A 
ATOM      7  C   UNL d   1      57.663  -0.584  30.699  0.00  0.00     0.015 A 
ATOM      8  C   UNL d   1      58.951  -1.141  29.019  0.00  0.00     0.069 A 
ATOM      9  C   UNL d   1      58.123   0.655  31.246  0.00  0.00     0.015 A 
ATOM     10  O   UNL d   1      60.093  -0.474  28.455  0.00  0.00    -0.259 OA
ATOM     11  C   UNL d   1      58.727   0.682  30.688  0.00  0.00     0.025 A 
ENDROOT
BRANCH   1  12
ATOM     12  S   UNL d   1      56.989  -0.002  31.810  0.00  0.00     0.272 S 
ATOM     13  O   UNL d   1      57.455  -0.471  32.303  0.00  0.00    -0.200 OA
ATOM     14  O   UNL d   1      56.516   0.467  31.323  0.00  0.00    -0.200 OA
BRANCH  12  15
ATOM     15  N   UNL d   1      56.382  -0.024  32.372  0.00  0.00    -0.225 N 
ATOM     16  C   UNL d   1      56.041   0.682  32.640  0.00  0.00     0.118 A 
ATOM     17  C   UNL d   1      55.437   0.661  33.198  0.00  0.00     0.142 A 
ATOM     18  O   UNL d   1      55.165  -0.058  33.497  0.00  0.00    -0.300 OA
ATOM     19  C   UNL d   1      55.508  -0.768  33.228  0.00  0.00     0.142 A 
ATOM     20  C   UNL d   1      56.114  -0.752  32.668  0.00  0.00     0.118 A 
ENDBRANCH  12  15
ENDBRANCH   1  12
TORSDOF 2
ENDMDL
