MODEL 1
REMARK VINA RESULT:      77.4      0.000      0.000
REMARK  5 active torsions:
REMARK  status: ('A' for Active; 'I' for Inactive)
REMARK    1  A    between atoms: C_3  and  C_1 
REMARK    2  A    between atoms: N_2  and  C_10 
REMARK    3  A    between atoms: N_6  and  C_3 
REMARK    4  A    between atoms: C_11  and  C_5 
REMARK    5  A    between atoms: C_20  and  N_7 
ROOT
ATOM      1  C   UNL d   1      61.265  48.402  50.419  0.00  0.00     0.126 A 
ATOM      2  O   UNL d   1      60.957  47.637  50.414  0.00  0.00    -0.305 OA
ATOM      3  C   UNL d   1      61.533  47.126  50.104  0.00  0.00     0.100 A 
ATOM      4  C   UNL d   1      62.032  48.366  50.113  0.00  0.00     0.029 A 
ATOM      5  C   UNL d   1      62.202  47.586  49.918  0.00  0.00     0.027 A 
ENDROOT
BRANCH   1   6
ATOM      6  C   UNL d   1      60.866  49.117  50.692  0.00  0.00     0.143 C 
ATOM      7  S   UNL d   1      61.291  49.685  51.114  0.00  0.00    -0.057 SA
BRANCH   6   8
ATOM      8  N   UNL d   1      60.045  49.214  50.519  0.00  0.00    -0.291 N 
ATOM      9  C   UNL d   1      59.462  48.993  51.052  0.00  0.00     0.100 A 
ATOM     10  C   UNL d   1      58.676  49.099  50.856  0.00  0.00     0.100 A 
ATOM     11  N   UNL d   1      58.445  49.416  50.150  0.00  0.00    -0.301 N 
ATOM     12  C   UNL d   1      59.029  49.649  49.587  0.00  0.00     0.100 A 
ATOM     13  C   UNL d   1      59.833  49.547  49.776  0.00  0.00     0.100 A 
BRANCH  11  14
ATOM     14  C   UNL d   1      57.641  49.514  49.973  0.00  0.00     0.064 A 
ATOM     15  C   UNL d   1      57.099  49.519  50.582  0.00  0.00     0.018 A 
ATOM     16  C   UNL d   1      56.293  49.615  50.435  0.00  0.00     0.002 A 
ATOM     17  C   UNL d   1      56.035  49.706  49.661  0.00  0.00     0.000 A 
ATOM     18  C   UNL d   1      56.582  49.701  49.035  0.00  0.00     0.002 A 
ATOM     19  C   UNL d   1      57.382  49.604  49.199  0.00  0.00     0.018 A 
ENDBRANCH  11  14
ENDBRANCH   6   8
ENDBRANCH   1   6
BRANCH   3  20
ATOM     20  C   UNL d   1      61.536  46.307  49.969  0.00  0.00     0.024 A 
ATOM     21  C   UNL d   1      61.237  45.788  50.544  0.00  0.00     0.025 A 
ATOM     22  C   UNL d   1      61.239  44.975  50.409  0.00  0.00     0.127 A 
ATOM     23  C   UNL d   1      61.540  44.662  49.696  0.00  0.00     0.024 A 
ATOM     24  C   UNL d   1      61.835  45.188  49.131  0.00  0.00     0.002 A 
ATOM     25  C   UNL d   1      61.833  46.002  49.265  0.00  0.00     0.002 A 
BRANCH  22  26
ATOM     26  N   UNL d   1      60.944  44.476  50.980  0.00  0.00    -0.114 N 
ATOM     27  O   UNL d   1      60.200  44.558  51.369  0.00  0.00    -0.532 OA
ATOM     28  O   UNL d   1      61.350  43.810  51.253  0.00  0.00    -0.532 OA
ENDBRANCH  22  26
ENDBRANCH   3  20
TORSDOF 5
ENDMDL
