MODEL 1
REMARK VINA RESULT:      -5.3      0.000      0.000
REMARK  2 active torsions:
REMARK  status: ('A' for Active; 'I' for Inactive)
REMARK       I    between atoms: N_2  and  C_1 
REMARK       I    between atoms: N_3  and  C_1 
REMARK    1  A    between atoms: C_12  and  N_3 
REMARK    2  A    between atoms: C_5  and  N_4 
ROOT
ATOM      1  C   UNL d   1      57.564  -0.659  30.906  0.00  0.00     0.339 C 
ATOM      2  N   UNL d   1      57.100  -0.435  31.550  0.00  0.00    -0.254 N 
ATOM      3  N   UNL d   1      58.026  -0.100  30.511  0.00  0.00    -0.257 N 
ATOM      4  N   UNL d   1      56.166   0.016  32.850  0.00  0.00    -0.286 N 
ATOM      5  O   UNL d   1      57.559  -1.452  30.660  0.00  0.00    -0.245 OA
ATOM      6  C   UNL d   1      56.636  -0.992  31.948  0.00  0.00     0.104 A 
ATOM      7  C   UNL d   1      57.095   0.358  31.810  0.00  0.00     0.104 A 
ATOM      8  C   UNL d   1      56.172  -0.768  32.593  0.00  0.00     0.101 A 
ATOM      9  C   UNL d   1      56.629   0.583  32.458  0.00  0.00     0.101 A 
ATOM     10  C   UNL d   1      58.027   0.681  30.758  0.00  0.00     0.104 C 
ENDROOT
BRANCH   3  11
ATOM     11  C   UNL d   1      58.493  -0.330  29.860  0.00  0.00     0.068 A 
ATOM     12  C   UNL d   1      58.175  -0.312  29.093  0.00  0.00     0.018 A 
ATOM     13  C   UNL d   1      58.646  -0.541  28.456  0.00  0.00     0.002 A 
ATOM     14  C   UNL d   1      59.427  -0.787  28.579  0.00  0.00     0.000 A 
ATOM     15  C   UNL d   1      59.731  -0.799  29.350  0.00  0.00     0.002 A 
ATOM     16  C   UNL d   1      59.263  -0.570  29.989  0.00  0.00     0.018 A 
ENDBRANCH   3  11
BRANCH   4  17
ATOM     17  C   UNL d   1      55.703   0.239  33.495  0.00  0.00     0.148 A 
ATOM     18  N   UNL d   1      56.045   0.292  34.235  0.00  0.00    -0.227 NA
ATOM     19  C   UNL d   1      55.584   0.514  34.877  0.00  0.00     0.101 A 
ATOM     20  C   UNL d   1      54.795   0.681  34.779  0.00  0.00     0.021 A 
ATOM     21  C   UNL d   1      54.459   0.626  34.029  0.00  0.00     0.005 A 
ATOM     22  C   UNL d   1      54.916   0.405  33.394  0.00  0.00     0.037 A 
ENDBRANCH   4  17
TORSDOF 2
ENDMDL
MODEL 2
REMARK VINA RESULT:      -4.0      1.048      4.998
REMARK  2 active torsions:
REMARK  status: ('A' for Active; 'I' for Inactive)
REMARK       I    between atoms: N_2  and  C_1 
REMARK       I    between atoms: N_3  and  C_1 
REMARK    1  A    between atoms: C_12  and  N_3 
REMARK    2  A    between atoms: C_5  and  N_4 
ROOT
ATOM      1  C   UNL d   1      57.011  -0.511  31.579  0.00  0.00     0.339 C 
ATOM      2  N   UNL d   1      57.648  -0.460  31.058  0.00  0.00    -0.254 N 
ATOM      3  N   UNL d   1      56.906   0.060  32.167  0.00  0.00    -0.257 N 
ATOM      4  N   UNL d   1      58.933  -0.357  30.007  0.00  0.00    -0.286 N 
ATOM      5  O   UNL d   1      56.479  -1.143  31.506  0.00  0.00    -0.245 OA
ATOM      6  C   UNL d   1      57.757  -1.030  30.469  0.00  0.00     0.104 A 
ATOM      7  C   UNL d   1      58.193   0.170  31.119  0.00  0.00     0.104 A 
ATOM      8  C   UNL d   1      58.395  -0.979  29.947  0.00  0.00     0.101 A 
ATOM      9  C   UNL d   1      58.833   0.222  30.595  0.00  0.00     0.101 A 
ATOM     10  C   UNL d   1      57.435   0.682  32.234  0.00  0.00     0.104 C 
ENDROOT
BRANCH   3  11
ATOM     11  C   UNL d   1      56.261   0.005  32.691  0.00  0.00     0.068 A 
ATOM     12  C   UNL d   1      56.148  -0.684  33.140  0.00  0.00     0.018 A 
ATOM     13  C   UNL d   1      55.507  -0.727  33.656  0.00  0.00     0.002 A 
ATOM     14  C   UNL d   1      54.981  -0.092  33.727  0.00  0.00     0.000 A 
ATOM     15  C   UNL d   1      55.106   0.590  33.273  0.00  0.00     0.002 A 
ATOM     16  C   UNL d   1      55.747   0.637  32.755  0.00  0.00     0.018 A 
ENDBRANCH   3  11
BRANCH   4  17
ATOM     17  C   UNL d   1      59.570  -0.305  29.486  0.00  0.00     0.148 A 
ATOM     18  N   UNL d   1      60.005  -0.977  29.318  0.00  0.00    -0.227 NA
ATOM     19  C   UNL d   1      60.639  -0.926  28.799  0.00  0.00     0.101 A 
ATOM     20  C   UNL d   1      60.834  -0.217  28.455  0.00  0.00     0.021 A 
ATOM     21  C   UNL d   1      60.390   0.454  28.630  0.00  0.00     0.005 A 
ATOM     22  C   UNL d   1      59.762   0.404  29.144  0.00  0.00     0.037 A 
ENDBRANCH   4  17
TORSDOF 2
ENDMDL
