MODEL 1
REMARK VINA RESULT:      -6.3      0.000      0.000
REMARK  5 active torsions:
REMARK  status: ('A' for Active; 'I' for Inactive)
REMARK       I    between atoms: C_2  and  N_1 
REMARK    1  A    between atoms: C_3  and  N_1 
REMARK    2  A    between atoms: C_9  and  C_2 
REMARK    3  A    between atoms: N_6  and  C_3 
REMARK    4  A    between atoms: C_4  and  C_13 
REMARK    5  A    between atoms: C_13  and  N_6 
ROOT
ATOM      1  N   UNL d   1     -47.488  13.323  22.946  0.00  0.00    -0.299 N 
ATOM      2  C   UNL d   1     -46.784  13.118  23.321  0.00  0.00     0.259 C 
ATOM      3  O   UNL d   1     -46.281  13.707  23.609  0.00  0.00    -0.267 OA
ATOM      4  H   UNL d   1     -47.991  12.734  22.658  0.00  0.00     0.171 HD
ENDROOT
BRANCH   1   5
ATOM      5  C   UNL d   1     -47.694  14.101  22.855  0.00  0.00     0.179 C 
ATOM      6  S   UNL d   1     -47.174  14.615  22.469  0.00  0.00    -0.040 SA
BRANCH   5   7
ATOM      7  N   UNL d   1     -48.399  14.362  23.138  0.00  0.00    -0.329 N 
ATOM      8  H   UNL d   1     -48.660  14.108  23.862  0.00  0.00     0.168 HD
BRANCH   7   9
ATOM      9  C   UNL d   1     -48.838  14.873  22.699  0.00  0.00     0.099 C 
BRANCH   9  10
ATOM     10  C   UNL d   1     -49.593  15.096  22.962  0.00  0.00     0.117 A 
ATOM     11  O   UNL d   1     -50.242  14.908  22.501  0.00  0.00    -0.304 OA
ATOM     12  C   UNL d   1     -50.903  15.191  22.889  0.00  0.00     0.123 A 
ATOM     13  C   UNL d   1     -50.651  15.550  23.584  0.00  0.00     0.029 A 
ATOM     14  C   UNL d   1     -49.838  15.483  23.613  0.00  0.00     0.028 A 
ENDBRANCH   9  10
ENDBRANCH   7   9
ENDBRANCH   5   7
ENDBRANCH   1   5
BRANCH   2  15
ATOM     15  C   UNL d   1     -46.580  12.320  23.410  0.00  0.00     0.056 A 
ATOM     16  C   UNL d   1     -45.796  12.081  23.301  0.00  0.00     0.005 A 
ATOM     17  C   UNL d   1     -45.594  11.278  23.391  0.00  0.00     0.000 A 
ATOM     18  C   UNL d   1     -46.171  10.725  23.589  0.00  0.00     0.000 A 
ATOM     19  C   UNL d   1     -46.955  10.965  23.698  0.00  0.00     0.000 A 
ATOM     20  C   UNL d   1     -47.161  11.758  23.610  0.00  0.00     0.005 A 
ENDBRANCH   2  15
TORSDOF 5
ENDMDL
MODEL 2
REMARK VINA RESULT:      -6.1      1.856      4.576
REMARK  5 active torsions:
REMARK  status: ('A' for Active; 'I' for Inactive)
REMARK       I    between atoms: C_2  and  N_1 
REMARK    1  A    between atoms: C_3  and  N_1 
REMARK    2  A    between atoms: C_9  and  C_2 
REMARK    3  A    between atoms: N_6  and  C_3 
REMARK    4  A    between atoms: C_4  and  C_13 
REMARK    5  A    between atoms: C_13  and  N_6 
ROOT
ATOM      1  N   UNL d   1     -47.372  12.791  22.463  0.00  0.00    -0.299 N 
ATOM      2  C   UNL d   1     -48.084  13.118  22.714  0.00  0.00     0.259 C 
ATOM      3  O   UNL d   1     -48.101  13.625  23.367  0.00  0.00    -0.267 OA
ATOM      4  H   UNL d   1     -47.355  12.284  21.810  0.00  0.00     0.171 HD
ENDROOT
BRANCH   1   5
ATOM      5  C   UNL d   1     -46.682  12.959  22.852  0.00  0.00     0.179 C 
ATOM      6  S   UNL d   1     -46.402  13.737  22.861  0.00  0.00    -0.040 SA
BRANCH   5   7
ATOM      7  N   UNL d   1     -46.278  12.371  23.221  0.00  0.00    -0.329 N 
ATOM      8  H   UNL d   1     -46.615  11.986  23.850  0.00  0.00     0.168 HD
BRANCH   7   9
ATOM      9  C   UNL d   1     -45.543  12.170  22.963  0.00  0.00     0.099 C 
BRANCH   9  10
ATOM     10  C   UNL d   1     -45.199  11.460  23.217  0.00  0.00     0.117 A 
ATOM     11  O   UNL d   1     -44.396  11.349  23.103  0.00  0.00    -0.304 OA
ATOM     12  C   UNL d   1     -44.210  10.612  23.402  0.00  0.00     0.123 A 
ATOM     13  C   UNL d   1     -44.901  10.280  23.697  0.00  0.00     0.029 A 
ATOM     14  C   UNL d   1     -45.503  10.817  23.575  0.00  0.00     0.028 A 
ENDBRANCH   9  10
ENDBRANCH   7   9
ENDBRANCH   5   7
ENDBRANCH   1   5
BRANCH   2  15
ATOM     15  C   UNL d   1     -48.785  12.941  22.311  0.00  0.00     0.056 A 
ATOM     16  C   UNL d   1     -49.300  12.368  22.611  0.00  0.00     0.005 A 
ATOM     17  C   UNL d   1     -50.005  12.191  22.204  0.00  0.00     0.000 A 
ATOM     18  C   UNL d   1     -50.188  12.585  21.505  0.00  0.00     0.000 A 
ATOM     19  C   UNL d   1     -49.674  13.159  21.205  0.00  0.00     0.000 A 
ATOM     20  C   UNL d   1     -48.976  13.337  21.603  0.00  0.00     0.005 A 
ENDBRANCH   2  15
TORSDOF 5
ENDMDL
MODEL 3
REMARK VINA RESULT:      -6.1      2.069      4.375
REMARK  5 active torsions:
REMARK  status: ('A' for Active; 'I' for Inactive)
REMARK       I    between atoms: C_2  and  N_1 
REMARK    1  A    between atoms: C_3  and  N_1 
REMARK    2  A    between atoms: C_9  and  C_2 
REMARK    3  A    between atoms: N_6  and  C_3 
REMARK    4  A    between atoms: C_4  and  C_13 
REMARK    5  A    between atoms: C_13  and  N_6 
ROOT
ATOM      1  N   UNL d   1     -48.541  12.535  22.875  0.00  0.00    -0.299 N 
ATOM      2  C   UNL d   1     -49.254  12.218  22.613  0.00  0.00     0.259 C 
ATOM      3  O   UNL d   1     -49.369  11.399  22.614  0.00  0.00    -0.267 OA
ATOM      4  H   UNL d   1     -48.426  13.354  22.874  0.00  0.00     0.171 HD
ENDROOT
BRANCH   1   5
ATOM      5  C   UNL d   1     -47.946  12.052  23.136  0.00  0.00     0.179 C 
ATOM      6  S   UNL d   1     -48.116  11.469  23.698  0.00  0.00    -0.040 SA
BRANCH   5   7
ATOM      7  N   UNL d   1     -47.202  12.143  22.847  0.00  0.00    -0.329 N 
ATOM      8  H   UNL d   1     -46.977  11.739  22.182  0.00  0.00     0.168 HD
BRANCH   7   9
ATOM      9  C   UNL d   1     -46.689  12.636  23.222  0.00  0.00     0.099 C 
BRANCH   9  10
ATOM     10  C   UNL d   1     -46.053  12.963  22.802  0.00  0.00     0.117 A 
ATOM     11  O   UNL d   1     -45.412  12.487  22.624  0.00  0.00    -0.304 OA
ATOM     12  C   UNL d   1     -44.876  12.949  22.213  0.00  0.00     0.123 A 
ATOM     13  C   UNL d   1     -45.196  13.702  22.146  0.00  0.00     0.029 A 
ATOM     14  C   UNL d   1     -45.924  13.694  22.515  0.00  0.00     0.028 A 
ENDBRANCH   9  10
ENDBRANCH   7   9
ENDBRANCH   5   7
ENDBRANCH   1   5
BRANCH   2  15
ATOM     15  C   UNL d   1     -49.857  12.719  22.347  0.00  0.00     0.056 A 
ATOM     16  C   UNL d   1     -50.444  12.973  22.872  0.00  0.00     0.005 A 
ATOM     17  C   UNL d   1     -51.049  13.477  22.603  0.00  0.00     0.000 A 
ATOM     18  C   UNL d   1     -51.064  13.722  21.817  0.00  0.00     0.000 A 
ATOM     19  C   UNL d   1     -50.478  13.468  21.292  0.00  0.00     0.000 A 
ATOM     20  C   UNL d   1     -49.877  12.970  21.553  0.00  0.00     0.005 A 
ENDBRANCH   2  15
TORSDOF 5
ENDMDL
MODEL 4
REMARK VINA RESULT:      -5.2      8.774     10.062
REMARK  5 active torsions:
REMARK  status: ('A' for Active; 'I' for Inactive)
REMARK       I    between atoms: C_2  and  N_1 
REMARK    1  A    between atoms: C_3  and  N_1 
REMARK    2  A    between atoms: C_9  and  C_2 
REMARK    3  A    between atoms: N_6  and  C_3 
REMARK    4  A    between atoms: C_4  and  C_13 
REMARK    5  A    between atoms: C_13  and  N_6 
ROOT
ATOM      1  N   UNL d   1     -39.506  14.503  18.743  0.00  0.00    -0.299 N 
ATOM      2  C   UNL d   1     -39.767  14.053  18.105  0.00  0.00     0.259 C 
ATOM      3  O   UNL d   1     -40.538  13.752  18.097  0.00  0.00    -0.267 OA
ATOM      4  H   UNL d   1     -38.736  14.804  18.750  0.00  0.00     0.171 HD
ENDROOT
BRANCH   1   5
ATOM      5  C   UNL d   1     -39.997  14.655  19.368  0.00  0.00     0.179 C 
ATOM      6  S   UNL d   1     -40.631  15.176  19.267  0.00  0.00    -0.040 SA
BRANCH   5   7
ATOM      7  N   UNL d   1     -39.862  14.301  20.076  0.00  0.00    -0.329 N 
ATOM      8  H   UNL d   1     -39.937  13.497  20.144  0.00  0.00     0.168 HD
BRANCH   7   9
ATOM      9  C   UNL d   1     -39.654  14.749  20.711  0.00  0.00     0.099 C 
BRANCH   9  10
ATOM     10  C   UNL d   1     -39.339  14.384  21.385  0.00  0.00     0.117 A 
ATOM     11  O   UNL d   1     -38.608  14.628  21.660  0.00  0.00    -0.304 OA
ATOM     12  C   UNL d   1     -38.437  14.180  22.322  0.00  0.00     0.123 A 
ATOM     13  C   UNL d   1     -39.065  13.665  22.444  0.00  0.00     0.029 A 
ATOM     14  C   UNL d   1     -39.615  13.804  21.856  0.00  0.00     0.028 A 
ENDBRANCH   9  10
ENDBRANCH   7   9
ENDBRANCH   5   7
ENDBRANCH   1   5
BRANCH   2  15
ATOM     15  C   UNL d   1     -39.259  13.901  17.469  0.00  0.00     0.056 A 
ATOM     16  C   UNL d   1     -39.219  14.434  16.837  0.00  0.00     0.005 A 
ATOM     17  C   UNL d   1     -38.706  14.279  16.199  0.00  0.00     0.000 A 
ATOM     18  C   UNL d   1     -38.242  13.600  16.197  0.00  0.00     0.000 A 
ATOM     19  C   UNL d   1     -38.282  13.068  16.828  0.00  0.00     0.000 A 
ATOM     20  C   UNL d   1     -38.787  13.216  17.462  0.00  0.00     0.005 A 
ENDBRANCH   2  15
TORSDOF 5
ENDMDL
MODEL 5
REMARK VINA RESULT:      -5.0      8.466      9.142
REMARK  5 active torsions:
REMARK  status: ('A' for Active; 'I' for Inactive)
REMARK       I    between atoms: C_2  and  N_1 
REMARK    1  A    between atoms: C_3  and  N_1 
REMARK    2  A    between atoms: C_9  and  C_2 
REMARK    3  A    between atoms: N_6  and  C_3 
REMARK    4  A    between atoms: C_4  and  C_13 
REMARK    5  A    between atoms: C_13  and  N_6 
ROOT
ATOM      1  N   UNL d   1     -39.710  14.960  20.635  0.00  0.00    -0.299 N 
ATOM      2  C   UNL d   1     -39.843  14.311  21.124  0.00  0.00     0.259 C 
ATOM      3  O   UNL d   1     -40.608  14.008  21.212  0.00  0.00    -0.267 OA
ATOM      4  H   UNL d   1     -38.946  15.263  20.547  0.00  0.00     0.171 HD
ENDROOT
BRANCH   1   5
ATOM      5  C   UNL d   1     -40.323  15.309  20.238  0.00  0.00     0.179 C 
ATOM      6  S   UNL d   1     -40.831  15.819  20.644  0.00  0.00    -0.040 SA
BRANCH   5   7
ATOM      7  N   UNL d   1     -40.430  15.156  19.456  0.00  0.00    -0.329 N 
ATOM      8  H   UNL d   1     -40.581  14.399  19.212  0.00  0.00     0.168 HD
BRANCH   7   9
ATOM      9  C   UNL d   1     -40.385  15.758  18.925  0.00  0.00     0.099 C 
BRANCH   9  10
ATOM     10  C   UNL d   1     -40.377  15.589  18.113  0.00  0.00     0.117 A 
ATOM     11  O   UNL d   1     -39.783  15.908  17.650  0.00  0.00    -0.304 OA
ATOM     12  C   UNL d   1     -39.911  15.653  16.884  0.00  0.00     0.123 A 
ATOM     13  C   UNL d   1     -40.583  15.180  16.887  0.00  0.00     0.029 A 
ATOM     14  C   UNL d   1     -40.859  15.151  17.655  0.00  0.00     0.028 A 
ENDBRANCH   9  10
ENDBRANCH   7   9
ENDBRANCH   5   7
ENDBRANCH   1   5
BRANCH   2  15
ATOM     15  C   UNL d   1     -39.211  13.960  21.527  0.00  0.00     0.056 A 
ATOM     16  C   UNL d   1     -38.587  13.623  21.102  0.00  0.00     0.005 A 
ATOM     17  C   UNL d   1     -37.952  13.270  21.509  0.00  0.00     0.000 A 
ATOM     18  C   UNL d   1     -37.945  13.258  22.332  0.00  0.00     0.000 A 
ATOM     19  C   UNL d   1     -38.569  13.595  22.758  0.00  0.00     0.000 A 
ATOM     20  C   UNL d   1     -39.199  13.944  22.359  0.00  0.00     0.005 A 
ENDBRANCH   2  15
TORSDOF 5
ENDMDL
MODEL 6
REMARK VINA RESULT:      -4.9      8.765      9.993
REMARK  5 active torsions:
REMARK  status: ('A' for Active; 'I' for Inactive)
REMARK       I    between atoms: C_2  and  N_1 
REMARK    1  A    between atoms: C_3  and  N_1 
REMARK    2  A    between atoms: C_9  and  C_2 
REMARK    3  A    between atoms: N_6  and  C_3 
REMARK    4  A    between atoms: C_4  and  C_13 
REMARK    5  A    between atoms: C_13  and  N_6 
ROOT
ATOM      1  N   UNL d   1     -39.522  14.831  18.159  0.00  0.00    -0.299 N 
ATOM      2  C   UNL d   1     -39.685  14.096  17.826  0.00  0.00     0.259 C 
ATOM      3  O   UNL d   1     -40.428  13.749  17.929  0.00  0.00    -0.267 OA
ATOM      4  H   UNL d   1     -38.779  15.178  18.055  0.00  0.00     0.171 HD
ENDROOT
BRANCH   1   5
ATOM      5  C   UNL d   1     -40.085  15.222  18.590  0.00  0.00     0.179 C 
ATOM      6  S   UNL d   1     -40.692  15.621  18.194  0.00  0.00    -0.040 SA
BRANCH   5   7
ATOM      7  N   UNL d   1     -40.048  15.216  19.392  0.00  0.00    -0.329 N 
ATOM      8  H   UNL d   1     -40.168  14.524  19.795  0.00  0.00     0.168 HD
BRANCH   7   9
ATOM      9  C   UNL d   1     -39.893  15.900  19.786  0.00  0.00     0.099 C 
BRANCH   9  10
ATOM     10  C   UNL d   1     -39.760  15.880  20.605  0.00  0.00     0.117 A 
ATOM     11  O   UNL d   1     -38.991  15.922  20.880  0.00  0.00    -0.304 OA
ATOM     12  C   UNL d   1     -39.025  15.891  21.697  0.00  0.00     0.123 A 
ATOM     13  C   UNL d   1     -39.816  15.831  21.911  0.00  0.00     0.029 A 
ATOM     14  C   UNL d   1     -40.257  15.826  21.225  0.00  0.00     0.028 A 
ENDBRANCH   9  10
ENDBRANCH   7   9
ENDBRANCH   5   7
ENDBRANCH   1   5
BRANCH   2  15
ATOM     15  C   UNL d   1     -39.103  13.703  17.386  0.00  0.00     0.056 A 
ATOM     16  C   UNL d   1     -38.737  13.029  17.696  0.00  0.00     0.005 A 
ATOM     17  C   UNL d   1     -38.153  12.636  17.252  0.00  0.00     0.000 A 
ATOM     18  C   UNL d   1     -37.940  12.916  16.508  0.00  0.00     0.000 A 
ATOM     19  C   UNL d   1     -38.305  13.590  16.199  0.00  0.00     0.000 A 
ATOM     20  C   UNL d   1     -38.884  13.983  16.633  0.00  0.00     0.005 A 
ENDBRANCH   2  15
TORSDOF 5
ENDMDL
