MODEL 1
REMARK VINA RESULT:      -7.5      0.000      0.000
REMARK  8 active torsions:
REMARK  status: ('A' for Active; 'I' for Inactive)
REMARK    1  A    between atoms: S_10  and  C_2 
REMARK    2  A    between atoms: C_7  and  C_4 
REMARK    3  A    between atoms: C_17  and  S_10 
REMARK    4  A    between atoms: C_14  and  C_17 
REMARK    5  A    between atoms: O_18  and  C_14 
REMARK    6  A    between atoms: O_19  and  C_15 
REMARK    7  A    between atoms: C_22  and  O_18 
REMARK    8  A    between atoms: C_24  and  C_22 
ROOT
ATOM      1  C   UNL d   1     -48.370  13.438  22.891  0.00  0.00     0.093 A 
ATOM      2  C   UNL d   1     -47.715  12.924  22.932  0.00  0.00     0.124 A 
ATOM      3  N   UNL d   1     -47.823  12.141  23.165  0.00  0.00    -0.200 NA
ATOM      4  C   UNL d   1     -49.122  13.161  23.084  0.00  0.00     0.028 A 
ATOM      5  C   UNL d   1     -49.227  12.380  23.316  0.00  0.00     0.127 A 
ATOM      6  C   UNL d   1     -48.573  11.866  23.357  0.00  0.00     0.289 A 
ATOM      7  C   UNL d   1     -48.267  14.217  22.660  0.00  0.00     0.103 C 
ATOM      8  C   UNL d   1     -49.980  12.103  23.508  0.00  0.00     0.106 C 
ATOM      9  N   UNL d   1     -48.160  14.987  22.430  0.00  0.00    -0.191 NA
ATOM     10  N   UNL d   1     -50.720  11.829  23.698  0.00  0.00    -0.191 NA
ATOM     11  O   UNL d   1     -48.742  11.024  23.616  0.00  0.00    -0.264 OA
ENDROOT
BRANCH   2  12
ATOM     12  S   UNL d   1     -46.950  13.271  22.718  0.00  0.00    -0.061 SA
BRANCH  12  13
ATOM     13  C   UNL d   1     -46.167  12.889  22.697  0.00  0.00     0.105 C 
BRANCH  13  14
ATOM     14  C   UNL d   1     -45.479  13.343  22.426  0.00  0.00     0.307 C 
ATOM     15  O   UNL d   1     -45.384  13.840  22.578  0.00  0.00    -0.258 OA
BRANCH  14  16
ATOM     16  O   UNL d   1     -44.947  12.904  21.870  0.00  0.00    -0.271 OA
BRANCH  16  17
ATOM     17  C   UNL d   1     -44.109  13.235  21.793  0.00  0.00     0.126 C 
BRANCH  17  18
ATOM     18  C   UNL d   1     -43.562  12.544  21.477  0.00  0.00     0.027 C 
ATOM     19  C   UNL d   1     -42.807  12.919  21.158  0.00  0.00     0.002 C 
ENDBRANCH  17  18
ENDBRANCH  16  17
ENDBRANCH  14  16
ENDBRANCH  13  14
ENDBRANCH  12  13
ENDBRANCH   2  12
BRANCH   4  20
ATOM     20  C   UNL d   1     -49.767  13.668  23.043  0.00  0.00     0.024 A 
ATOM     21  C   UNL d   1     -50.207  13.719  22.350  0.00  0.00     0.094 A 
ATOM     22  C   UNL d   1     -50.855  14.228  22.309  0.00  0.00     0.024 A 
ATOM     23  C   UNL d   1     -51.064  14.686  22.961  0.00  0.00     0.002 A 
ATOM     24  C   UNL d   1     -50.621  14.633  23.657  0.00  0.00     0.000 A 
ATOM     25  C   UNL d   1     -49.973  14.124  23.698  0.00  0.00     0.002 A 
BRANCH  21  26
ATOM     26  O   UNL d   1     -50.096  13.367  21.757  0.00  0.00    -0.328 OA
ATOM     27  C   UNL d   1     -50.588  13.498  21.074  0.00  0.00     0.181 C 
ENDBRANCH  21  26
ENDBRANCH   4  20
TORSDOF 8
ENDMDL
MODEL 2
REMARK VINA RESULT:      -7.3      1.120      1.945
REMARK  8 active torsions:
REMARK  status: ('A' for Active; 'I' for Inactive)
REMARK    1  A    between atoms: S_10  and  C_2 
REMARK    2  A    between atoms: C_7  and  C_4 
REMARK    3  A    between atoms: C_17  and  S_10 
REMARK    4  A    between atoms: C_14  and  C_17 
REMARK    5  A    between atoms: O_18  and  C_14 
REMARK    6  A    between atoms: O_19  and  C_15 
REMARK    7  A    between atoms: C_22  and  O_18 
REMARK    8  A    between atoms: C_24  and  C_22 
ROOT
ATOM      1  C   UNL d   1     -48.196  13.379  22.792  0.00  0.00     0.093 A 
ATOM      2  C   UNL d   1     -47.467  13.772  22.700  0.00  0.00     0.124 A 
ATOM      3  N   UNL d   1     -47.452  14.587  22.580  0.00  0.00    -0.200 NA
ATOM      4  C   UNL d   1     -48.900  13.808  22.763  0.00  0.00     0.028 A 
ATOM      5  C   UNL d   1     -48.883  14.621  22.643  0.00  0.00     0.127 A 
ATOM      6  C   UNL d   1     -48.154  15.014  22.551  0.00  0.00     0.289 A 
ATOM      7  C   UNL d   1     -48.215  12.570  22.911  0.00  0.00     0.103 C 
ATOM      8  C   UNL d   1     -49.587  15.050  22.614  0.00  0.00     0.106 C 
ATOM      9  N   UNL d   1     -48.229  11.767  23.029  0.00  0.00    -0.191 NA
ATOM     10  N   UNL d   1     -50.278  15.473  22.585  0.00  0.00    -0.191 NA
ATOM     11  O   UNL d   1     -48.191  15.900  22.424  0.00  0.00    -0.264 OA
ENDROOT
BRANCH   2  12
ATOM     12  S   UNL d   1     -46.761  13.269  22.740  0.00  0.00    -0.061 SA
BRANCH  12  13
ATOM     13  C   UNL d   1     -45.925  13.501  22.667  0.00  0.00     0.105 C 
BRANCH  13  14
ATOM     14  C   UNL d   1     -45.316  12.885  22.613  0.00  0.00     0.307 C 
ATOM     15  O   UNL d   1     -45.237  12.524  22.991  0.00  0.00    -0.258 OA
BRANCH  14  16
ATOM     16  O   UNL d   1     -44.835  12.910  21.869  0.00  0.00    -0.271 OA
BRANCH  16  17
ATOM     17  C   UNL d   1     -43.962  12.697  21.965  0.00  0.00     0.126 C 
BRANCH  17  18
ATOM     18  C   UNL d   1     -43.527  12.931  21.169  0.00  0.00     0.027 C 
ATOM     19  C   UNL d   1     -42.640  12.850  21.309  0.00  0.00     0.002 C 
ENDBRANCH  17  18
ENDBRANCH  16  17
ENDBRANCH  14  16
ENDBRANCH  13  14
ENDBRANCH  12  13
ENDBRANCH   2  12
BRANCH   4  20
ATOM     20  C   UNL d   1     -49.619  13.422  22.853  0.00  0.00     0.024 A 
ATOM     21  C   UNL d   1     -50.015  13.130  22.194  0.00  0.00     0.094 A 
ATOM     22  C   UNL d   1     -50.737  12.742  22.285  0.00  0.00     0.024 A 
ATOM     23  C   UNL d   1     -51.064  12.644  23.035  0.00  0.00     0.002 A 
ATOM     24  C   UNL d   1     -50.664  12.938  23.697  0.00  0.00     0.000 A 
ATOM     25  C   UNL d   1     -49.942  13.326  23.606  0.00  0.00     0.002 A 
BRANCH  21  26
ATOM     26  O   UNL d   1     -49.806  13.172  21.529  0.00  0.00    -0.328 OA
ATOM     27  C   UNL d   1     -50.280  12.839  20.903  0.00  0.00     0.181 C 
ENDBRANCH  21  26
ENDBRANCH   4  20
TORSDOF 8
ENDMDL
MODEL 3
REMARK VINA RESULT:      -6.7      1.176      1.294
REMARK  8 active torsions:
REMARK  status: ('A' for Active; 'I' for Inactive)
REMARK    1  A    between atoms: S_10  and  C_2 
REMARK    2  A    between atoms: C_7  and  C_4 
REMARK    3  A    between atoms: C_17  and  S_10 
REMARK    4  A    between atoms: C_14  and  C_17 
REMARK    5  A    between atoms: O_18  and  C_14 
REMARK    6  A    between atoms: O_19  and  C_15 
REMARK    7  A    between atoms: C_22  and  O_18 
REMARK    8  A    between atoms: C_24  and  C_22 
ROOT
ATOM      1  C   UNL d   1     -48.284  13.178  23.102  0.00  0.00     0.093 A 
ATOM      2  C   UNL d   1     -47.800  12.509  23.219  0.00  0.00     0.124 A 
ATOM      3  N   UNL d   1     -48.143  11.785  23.412  0.00  0.00    -0.200 NA
ATOM      4  C   UNL d   1     -49.102  13.112  23.180  0.00  0.00     0.028 A 
ATOM      5  C   UNL d   1     -49.441  12.389  23.373  0.00  0.00     0.127 A 
ATOM      6  C   UNL d   1     -48.958  11.720  23.490  0.00  0.00     0.289 A 
ATOM      7  C   UNL d   1     -47.948  13.899  22.910  0.00  0.00     0.103 C 
ATOM      8  C   UNL d   1     -50.260  12.323  23.451  0.00  0.00     0.106 C 
ATOM      9  N   UNL d   1     -47.610  14.612  22.720  0.00  0.00    -0.191 NA
ATOM     10  N   UNL d   1     -51.064  12.257  23.527  0.00  0.00    -0.191 NA
ATOM     11  O   UNL d   1     -49.378  10.956  23.698  0.00  0.00    -0.264 OA
ENDROOT
BRANCH   2  12
ATOM     12  S   UNL d   1     -46.948  12.639  23.124  0.00  0.00    -0.061 SA
BRANCH  12  13
ATOM     13  C   UNL d   1     -46.289  12.211  23.499  0.00  0.00     0.105 C 
BRANCH  13  14
ATOM     14  C   UNL d   1     -45.543  12.116  23.066  0.00  0.00     0.307 C 
ATOM     15  O   UNL d   1     -45.454  12.335  22.593  0.00  0.00    -0.258 OA
BRANCH  14  16
ATOM     16  O   UNL d   1     -44.938  11.619  23.482  0.00  0.00    -0.271 OA
BRANCH  16  17
ATOM     17  C   UNL d   1     -44.457  11.068  22.951  0.00  0.00     0.126 C 
BRANCH  17  18
ATOM     18  C   UNL d   1     -43.833  10.629  23.494  0.00  0.00     0.027 C 
ATOM     19  C   UNL d   1     -44.031   9.750  23.480  0.00  0.00     0.002 C 
ENDBRANCH  17  18
ENDBRANCH  16  17
ENDBRANCH  14  16
ENDBRANCH  13  14
ENDBRANCH  12  13
ENDBRANCH   2  12
BRANCH   4  20
ATOM     20  C   UNL d   1     -49.578  13.771  23.064  0.00  0.00     0.024 A 
ATOM     21  C   UNL d   1     -49.907  13.916  22.325  0.00  0.00     0.094 A 
ATOM     22  C   UNL d   1     -50.385  14.578  22.209  0.00  0.00     0.024 A 
ATOM     23  C   UNL d   1     -50.535  15.096  22.833  0.00  0.00     0.002 A 
ATOM     24  C   UNL d   1     -50.204  14.948  23.575  0.00  0.00     0.000 A 
ATOM     25  C   UNL d   1     -49.726  14.286  23.691  0.00  0.00     0.002 A 
BRANCH  21  26
ATOM     26  O   UNL d   1     -49.829  13.529  21.749  0.00  0.00    -0.328 OA
ATOM     27  C   UNL d   1     -50.280  13.699  21.046  0.00  0.00     0.181 C 
ENDBRANCH  21  26
ENDBRANCH   4  20
TORSDOF 8
ENDMDL
