MODEL 1
REMARK VINA RESULT:      -3.9      0.000      0.000
REMARK  6 active torsions:
REMARK  status: ('A' for Active; 'I' for Inactive)
REMARK    1  A    between atoms: C_2  and  S_1 
REMARK    2  A    between atoms: N_5  and  S_1 
REMARK    3  A    between atoms: C_9  and  N_5 
REMARK    4  A    between atoms: C_11  and  C_9 
REMARK       I    between atoms: N_17  and  C_11 
REMARK    5  A    between atoms: C_16  and  C_21 
REMARK    6  A    between atoms: C_21  and  N_17 
ROOT
ATOM      1  C   UNL d   1     -41.214-121.939 -51.385  0.00  0.00     0.299 C 
ATOM      2  N   UNL d   1     -41.359-122.426 -50.742  0.00  0.00    -0.203 NA
ATOM      3  O   UNL d   1     -41.123-121.108 -51.271  0.00  0.00    -0.263 OA
ENDROOT
BRANCH   1   4
ATOM      4  C   UNL d   1     -41.158-122.258 -52.141  0.00  0.00     0.174 C 
BRANCH   4   5
ATOM      5  N   UNL d   1     -41.852-122.457 -52.562  0.00  0.00    -0.151 NA
BRANCH   5   6
ATOM      6  S   UNL d   1     -41.838-122.490 -53.393  0.00  0.00     0.291 S 
ATOM      7  O   UNL d   1     -42.108-121.700 -53.433  0.00  0.00    -0.198 OA
ATOM      8  O   UNL d   1     -41.572-123.266 -53.361  0.00  0.00    -0.198 OA
BRANCH   6   9
ATOM      9  C   UNL d   1     -41.827-122.513 -54.222  0.00  0.00     0.135 A 
ATOM     10  S   UNL d   1     -42.152-121.950 -54.696  0.00  0.00    -0.067 SA
ATOM     11  C   UNL d   1     -42.022-122.181 -55.494  0.00  0.00     0.065 A 
ATOM     12 BR   UNL d   1     -42.267-121.758 -56.177  0.00  0.00    -0.042 Br
ATOM     13  C   UNL d   1     -41.618-122.881 -55.489  0.00  0.00     0.015 A 
ATOM     14  C   UNL d   1     -41.492-123.096 -54.699  0.00  0.00     0.021 A 
ENDBRANCH   6   9
ENDBRANCH   5   6
ENDBRANCH   4   5
ENDBRANCH   1   4
BRANCH   2  15
ATOM     15  C   UNL d   1     -41.416-122.102 -49.973  0.00  0.00     0.129 C 
BRANCH  15  16
ATOM     16  C   UNL d   1     -41.829-122.521 -49.381  0.00  0.00     0.144 A 
ATOM     17  O   UNL d   1     -41.546-122.566 -48.621  0.00  0.00    -0.301 OA
ATOM     18  C   UNL d   1     -41.961-122.979 -48.055  0.00  0.00     0.123 A 
ATOM     19  C   UNL d   1     -41.674-123.025 -47.283  0.00  0.00     0.027 A 
ATOM     20  C   UNL d   1     -42.668-123.355 -48.245  0.00  0.00     0.123 A 
ATOM     21  C   UNL d   1     -42.090-123.443 -46.704  0.00  0.00     0.002 A 
ATOM     22  C   UNL d   1     -42.797-123.817 -46.898  0.00  0.00     0.002 A 
ATOM     23  C   UNL d   1     -43.085-123.770 -47.677  0.00  0.00     0.027 A 
ATOM     24  O   UNL d   1     -42.957-123.313 -49.010  0.00  0.00    -0.301 OA
ATOM     25  C   UNL d   1     -42.535-122.896 -49.575  0.00  0.00     0.149 A 
ENDBRANCH  15  16
ENDBRANCH   2  15
TORSDOF 6
ENDMDL
