MODEL 1
REMARK VINA RESULT:      67.7      0.000      0.000
REMARK  5 active torsions:
REMARK  status: ('A' for Active; 'I' for Inactive)
REMARK    1  A    between atoms: C_3  and  C_1 
REMARK    2  A    between atoms: N_8  and  C_3 
REMARK    3  A    between atoms: C_9  and  C_3 
REMARK    4  A    between atoms: C_17  and  C_7 
REMARK    5  A    between atoms: C_10  and  N_8 
ROOT
ATOM      1  C   UNL d   1     -57.598 -99.224 -44.322  0.00  0.00     0.109 C 
ENDROOT
BRANCH   1   2
ATOM      2  C   UNL d   1     -56.909 -99.680 -44.342  0.00  0.00     0.160 A 
ATOM      3  C   UNL d   1     -56.248 -99.449 -44.790  0.00  0.00     0.258 A 
ATOM      4  C   UNL d   1     -55.562 -99.935 -44.790  0.00  0.00     0.238 A 
ATOM      5  O   UNL d   1     -56.267 -98.757 -45.222  0.00  0.00    -0.281 OA
ATOM      6  O   UNL d   1     -54.899 -99.703 -45.238  0.00  0.00    -0.283 OA
ATOM      7  C   UNL d   1     -55.543-100.626 -44.357  0.00  0.00     0.073 A 
ATOM      8  C   UNL d   1     -56.204-100.858 -43.909  0.00  0.00     0.146 A 
ATOM      9  O   UNL d   1     -56.877-100.396 -43.900  0.00  0.00    -0.299 OA
BRANCH   8  10
ATOM     10  C   UNL d   1     -56.176-101.566 -43.470  0.00  0.00     0.259 C 
ATOM     11  O   UNL d   1     -55.894-102.281 -43.813  0.00  0.00    -0.281 OA
ENDBRANCH   8  10
ENDBRANCH   1   2
BRANCH   1  12
ATOM     12  N   UNL d   1     -57.787 -98.756 -43.665  0.00  0.00    -0.225 NA
BRANCH  12  13
ATOM     13  C   UNL d   1     -58.474 -98.887 -43.248  0.00  0.00     0.163 A 
ATOM     14  N   UNL d   1     -58.446 -99.141 -42.464  0.00  0.00    -0.225 NA
ATOM     15  C   UNL d   1     -59.146 -99.271 -42.050  0.00  0.00     0.101 A 
ATOM     16  C   UNL d   1     -59.872 -99.147 -42.415  0.00  0.00     0.021 A 
ATOM     17  C   UNL d   1     -59.921 -98.892 -43.199  0.00  0.00     0.005 A 
ATOM     18  C   UNL d   1     -59.226 -98.762 -43.616  0.00  0.00     0.039 A 
ENDBRANCH  12  13
ENDBRANCH   1  12
BRANCH   1  19
ATOM     19  C   UNL d   1     -58.111 -99.238 -44.981  0.00  0.00     0.022 A 
ATOM     20  C   UNL d   1     -57.841 -98.994 -45.722  0.00  0.00     0.031 A 
ATOM     21  C   UNL d   1     -58.351 -99.011 -46.366  0.00  0.00     0.140 A 
ATOM     22  F   UNL d   1     -58.083 -98.765 -47.118  0.00  0.00    -0.204 F 
ATOM     23  C   UNL d   1     -59.128 -99.269 -46.273  0.00  0.00     0.030 A 
ATOM     24  C   UNL d   1     -59.403 -99.514 -45.537  0.00  0.00     0.002 A 
ATOM     25  C   UNL d   1     -58.888 -99.496 -44.889  0.00  0.00     0.002 A 
ENDBRANCH   1  19
TORSDOF 5
ENDMDL
