MODEL 1
REMARK VINA RESULT:      -3.0      0.000      0.000
REMARK  5 active torsions:
REMARK  status: ('A' for Active; 'I' for Inactive)
REMARK    1  A    between atoms: N_11  and  C_4 
REMARK    2  A    between atoms: C_18  and  N_15 
REMARK    3  A    between atoms: C_21  and  C_18 
REMARK    4  A    between atoms: O_28  and  C_23 
REMARK    5  A    between atoms: C_31  and  O_28 
ROOT
ATOM      1  N   UNL d   1      56.820   0.679  32.669  0.00  0.00    -0.195 N 
ATOM      2  C   UNL d   1      56.654   0.679  33.460  0.00  0.00     0.168 A 
ATOM      3  C   UNL d   1      55.899   0.679  33.717  0.00  0.00     0.073 A 
ATOM      4  C   UNL d   1      57.579   0.679  32.430  0.00  0.00     0.153 A 
ATOM      5  N   UNL d   1      55.477   0.678  32.387  0.00  0.00    -0.143 NA
ATOM      6  C   UNL d   1      55.311   0.679  33.178  0.00  0.00     0.185 A 
ATOM      7  N   UNL d   1      57.251   0.680  33.992  0.00  0.00    -0.227 NA
ATOM      8  C   UNL d   1      55.734   0.679  34.500  0.00  0.00     0.007 A 
ATOM      9  N   UNL d   1      54.542   0.678  33.423  0.00  0.00    -0.225 NA
ATOM     10  C   UNL d   1      58.174   0.680  32.953  0.00  0.00     0.057 A 
ATOM     11  C   UNL d   1      54.980   0.679  34.756  0.00  0.00     0.019 A 
ATOM     12  C   UNL d   1      58.008   0.680  33.744  0.00  0.00     0.086 A 
ATOM     13  C   UNL d   1      54.376   0.679  34.215  0.00  0.00     0.083 A 
ATOM     14  C   UNL d   1      56.336   0.680  35.033  0.00  0.00     0.000 C 
ATOM     15  C   UNL d   1      58.632   0.681  34.295  0.00  0.00     0.021 C 
ATOM     16  C   UNL d   1      53.623   0.679  34.464  0.00  0.00     0.021 C 
ENDROOT
BRANCH   4  17
ATOM     17  N   UNL d   1      57.742   0.679  31.612  0.00  0.00    -0.286 N 
ATOM     18  C   UNL d   1      58.562   0.677  31.725  0.00  0.00     0.101 A 
ATOM     19  C   UNL d   1      59.061   0.676  31.069  0.00  0.00     0.100 A 
ATOM     20  N   UNL d   1      58.742   0.677  30.298  0.00  0.00    -0.300 N 
ATOM     21  C   UNL d   1      57.912   0.678  30.197  0.00  0.00     0.100 A 
ATOM     22  C   UNL d   1      57.412   0.679  30.860  0.00  0.00     0.101 A 
BRANCH  20  23
ATOM     23  C   UNL d   1      59.243   0.676  29.631  0.00  0.00     0.080 C 
BRANCH  23  24
ATOM     24  C   UNL d   1      59.590  -0.034  29.379  0.00  0.00     0.018 A 
ATOM     25  C   UNL d   1      59.189  -0.537  28.852  0.00  0.00     0.004 A 
ATOM     26  C   UNL d   1      59.540  -1.254  28.597  0.00  0.00     0.025 A 
ATOM     27  C   UNL d   1      60.299  -1.466  28.874  0.00  0.00     0.100 A 
ATOM     28  C   UNL d   1      60.709  -0.957  29.409  0.00  0.00     0.025 A 
ATOM     29  C   UNL d   1      60.346  -0.247  29.653  0.00  0.00     0.004 A 
BRANCH  27  30
ATOM     30  O   UNL d   1      60.652  -2.173  28.627  0.00  0.00    -0.305 OA
BRANCH  30  31
ATOM     31  C   UNL d   1      60.392  -2.902  28.942  0.00  0.00     0.123 C 
ATOM     32  C   UNL d   1      60.762  -3.614  28.703  0.00  0.00     0.029 C 
ENDBRANCH  30  31
ENDBRANCH  27  30
ENDBRANCH  23  24
ENDBRANCH  20  23
ENDBRANCH   4  17
TORSDOF 5
ENDMDL
MODEL 2
REMARK VINA RESULT:      -2.3      8.968     10.834
REMARK  5 active torsions:
REMARK  status: ('A' for Active; 'I' for Inactive)
REMARK    1  A    between atoms: N_11  and  C_4 
REMARK    2  A    between atoms: C_18  and  N_15 
REMARK    3  A    between atoms: C_21  and  C_18 
REMARK    4  A    between atoms: O_28  and  C_23 
REMARK    5  A    between atoms: C_31  and  O_28 
ROOT
ATOM      1  N   UNL d   1      58.175  -9.811  31.370  0.00  0.00    -0.195 N 
ATOM      2  C   UNL d   1      58.332  -9.814  30.577  0.00  0.00     0.168 A 
ATOM      3  C   UNL d   1      57.737  -9.815  30.045  0.00  0.00     0.073 A 
ATOM      4  C   UNL d   1      58.781  -9.810  31.887  0.00  0.00     0.153 A 
ATOM      5  N   UNL d   1      56.829  -9.811  31.104  0.00  0.00    -0.143 NA
ATOM      6  C   UNL d   1      56.986  -9.814  30.312  0.00  0.00     0.185 A 
ATOM      7  N   UNL d   1      59.090  -9.815  30.321  0.00  0.00    -0.227 NA
ATOM      8  C   UNL d   1      57.892  -9.817  29.260  0.00  0.00     0.007 A 
ATOM      9  N   UNL d   1      56.374  -9.815  29.785  0.00  0.00    -0.225 NA
ATOM     10  C   UNL d   1      59.533  -9.811  31.638  0.00  0.00     0.057 A 
ATOM     11  C   UNL d   1      57.298  -9.818  28.729  0.00  0.00     0.019 A 
ATOM     12  C   UNL d   1      59.689  -9.814  30.845  0.00  0.00     0.086 A 
ATOM     13  C   UNL d   1      56.530  -9.817  28.992  0.00  0.00     0.083 A 
ATOM     14  C   UNL d   1      58.654  -9.818  29.005  0.00  0.00     0.000 C 
ATOM     15  C   UNL d   1      60.479  -9.815  30.582  0.00  0.00     0.021 C 
ATOM     16  C   UNL d   1      55.934  -9.818  28.469  0.00  0.00     0.021 C 
ENDROOT
BRANCH   4  17
ATOM     17  N   UNL d   1      58.612  -9.808  32.704  0.00  0.00    -0.286 N 
ATOM     18  C   UNL d   1      59.410  -9.788  32.920  0.00  0.00     0.101 A 
ATOM     19  C   UNL d   1      59.613  -9.777  33.718  0.00  0.00     0.100 A 
ATOM     20  N   UNL d   1      59.018  -9.786  34.303  0.00  0.00    -0.300 N 
ATOM     21  C   UNL d   1      58.215  -9.807  34.073  0.00  0.00     0.100 A 
ATOM     22  C   UNL d   1      58.014  -9.818  33.266  0.00  0.00     0.101 A 
BRANCH  20  23
ATOM     23  C   UNL d   1      59.219  -9.775  35.113  0.00  0.00     0.080 C 
BRANCH  23  24
ATOM     24  C   UNL d   1      59.681  -9.156  35.414  0.00  0.00     0.018 A 
ATOM     25  C   UNL d   1      60.490  -9.269  35.568  0.00  0.00     0.004 A 
ATOM     26  C   UNL d   1      60.957  -8.643  35.872  0.00  0.00     0.025 A 
ATOM     27  C   UNL d   1      60.607  -7.899  36.021  0.00  0.00     0.100 A 
ATOM     28  C   UNL d   1      59.785  -7.782  35.864  0.00  0.00     0.025 A 
ATOM     29  C   UNL d   1      59.335  -8.414  35.563  0.00  0.00     0.004 A 
BRANCH  27  30
ATOM     30  O   UNL d   1      61.061  -7.275  36.321  0.00  0.00    -0.305 OA
BRANCH  30  31
ATOM     31  C   UNL d   1      60.756  -6.497  36.320  0.00  0.00     0.123 C 
ATOM     32  C   UNL d   1      61.128  -5.904  35.861  0.00  0.00     0.029 C 
ENDBRANCH  30  31
ENDBRANCH  27  30
ENDBRANCH  23  24
ENDBRANCH  20  23
ENDBRANCH   4  17
TORSDOF 5
ENDMDL
MODEL 3
REMARK VINA RESULT:      -0.2      2.227      6.186
REMARK  5 active torsions:
REMARK  status: ('A' for Active; 'I' for Inactive)
REMARK    1  A    between atoms: N_11  and  C_4 
REMARK    2  A    between atoms: C_18  and  N_15 
REMARK    3  A    between atoms: C_21  and  C_18 
REMARK    4  A    between atoms: O_28  and  C_23 
REMARK    5  A    between atoms: C_31  and  O_28 
ROOT
ATOM      1  N   UNL d   1      58.929  -2.079  29.188  0.00  0.00    -0.195 N 
ATOM      2  C   UNL d   1      59.543  -2.545  28.947  0.00  0.00     0.168 A 
ATOM      3  C   UNL d   1      59.437  -3.326  28.823  0.00  0.00     0.073 A 
ATOM      4  C   UNL d   1      59.053  -1.301  29.308  0.00  0.00     0.153 A 
ATOM      5  N   UNL d   1      58.097  -3.170  29.181  0.00  0.00    -0.143 NA
ATOM      6  C   UNL d   1      58.711  -3.636  28.941  0.00  0.00     0.185 A 
ATOM      7  N   UNL d   1      60.266  -2.223  28.832  0.00  0.00    -0.227 NA
ATOM      8  C   UNL d   1      60.045  -3.788  28.584  0.00  0.00     0.007 A 
ATOM      9  N   UNL d   1      58.588  -4.424  28.818  0.00  0.00    -0.225 NA
ATOM     10  C   UNL d   1      59.768  -0.978  29.195  0.00  0.00     0.057 A 
ATOM     11  C   UNL d   1      59.937  -4.568  28.460  0.00  0.00     0.019 A 
ATOM     12  C   UNL d   1      60.382  -1.444  28.954  0.00  0.00     0.086 A 
ATOM     13  C   UNL d   1      59.203  -4.892  28.577  0.00  0.00     0.083 A 
ATOM     14  C   UNL d   1      60.770  -3.462  28.469  0.00  0.00     0.000 C 
ATOM     15  C   UNL d   1      61.133  -1.106  28.835  0.00  0.00     0.021 C 
ATOM     16  C   UNL d   1      59.090  -5.667  28.455  0.00  0.00     0.021 C 
ENDROOT
BRANCH   4  17
ATOM     17  N   UNL d   1      58.414  -0.826  29.556  0.00  0.00    -0.286 N 
ATOM     18  C   UNL d   1      58.780  -0.620  30.269  0.00  0.00     0.101 A 
ATOM     19  C   UNL d   1      58.390  -0.120  30.794  0.00  0.00     0.100 A 
ATOM     20  N   UNL d   1      57.631   0.175  30.609  0.00  0.00    -0.300 N 
ATOM     21  C   UNL d   1      57.272  -0.040  29.886  0.00  0.00     0.100 A 
ATOM     22  C   UNL d   1      57.669  -0.545  29.358  0.00  0.00     0.101 A 
BRANCH  20  23
ATOM     23  C   UNL d   1      57.232   0.682  31.139  0.00  0.00     0.080 C 
BRANCH  23  24
ATOM     24  C   UNL d   1      56.949   0.383  31.858  0.00  0.00     0.018 A 
ATOM     25  C   UNL d   1      57.241   0.673  32.581  0.00  0.00     0.004 A 
ATOM     26  C   UNL d   1      56.954   0.371  33.308  0.00  0.00     0.025 A 
ATOM     27  C   UNL d   1      56.370  -0.226  33.308  0.00  0.00     0.100 A 
ATOM     28  C   UNL d   1      56.071  -0.522  32.575  0.00  0.00     0.025 A 
ATOM     29  C   UNL d   1      56.366  -0.212  31.861  0.00  0.00     0.004 A 
BRANCH  27  30
ATOM     30  O   UNL d   1      56.082  -0.530  34.022  0.00  0.00    -0.305 OA
BRANCH  30  31
ATOM     31  C   UNL d   1      55.438  -0.159  34.404  0.00  0.00     0.123 C 
ATOM     32  C   UNL d   1      55.557   0.235  35.133  0.00  0.00     0.029 C 
ENDBRANCH  30  31
ENDBRANCH  27  30
ENDBRANCH  23  24
ENDBRANCH  20  23
ENDBRANCH   4  17
TORSDOF 5
ENDMDL
