MODEL 1
REMARK VINA RESULT:      -5.5      0.000      0.000
REMARK  2 active torsions:
REMARK  status: ('A' for Active; 'I' for Inactive)
REMARK    1  A    between atoms: N_2  and  S_1 
REMARK    2  A    between atoms: C_3  and  S_1 
ROOT
ATOM      1  S   UNL d   1      57.501   0.123  31.329  0.00  0.00     0.272 S 
ATOM      2  O   UNL d   1      58.005   0.376  31.931  0.00  0.00    -0.200 OA
ATOM      3  O   UNL d   1      57.002  -0.128  30.723  0.00  0.00    -0.200 OA
ENDROOT
BRANCH   1   4
ATOM      4  N   UNL d   1      58.109   0.222  30.779  0.00  0.00    -0.225 N 
ATOM      5  C   UNL d   1      58.901   0.572  31.038  0.00  0.00     0.118 A 
ATOM      6  C   UNL d   1      59.569   0.681  30.434  0.00  0.00     0.142 A 
ATOM      7  O   UNL d   1      59.445   0.439  29.571  0.00  0.00    -0.300 OA
ATOM      8  C   UNL d   1      58.651   0.088  29.312  0.00  0.00     0.142 A 
ATOM      9  C   UNL d   1      57.983  -0.020  29.916  0.00  0.00     0.118 A 
ENDBRANCH   1   4
BRANCH   1  10
ATOM     10  C   UNL d   1      56.892   0.024  31.874  0.00  0.00     0.104 A 
ATOM     11  C   UNL d   1      56.695  -0.731  32.138  0.00  0.00     0.015 A 
ATOM     12  C   UNL d   1      56.083  -0.836  32.687  0.00  0.00     0.028 A 
ATOM     13  C   UNL d   1      55.883  -1.591  32.953  0.00  0.00     0.002 C 
ATOM     14  C   UNL d   1      55.673  -0.177  32.966  0.00  0.00     0.140 A 
ATOM     15  C   UNL d   1      55.873   0.577  32.700  0.00  0.00     0.030 A 
ATOM     16  F   UNL d   1      55.062  -0.273  33.513  0.00  0.00    -0.204 F 
ATOM     17  C   UNL d   1      56.481   0.682  32.155  0.00  0.00     0.015 A 
ENDBRANCH   1  10
TORSDOF 2
ENDMDL
MODEL 2
REMARK VINA RESULT:      -4.3      1.379      1.955
REMARK  2 active torsions:
REMARK  status: ('A' for Active; 'I' for Inactive)
REMARK    1  A    between atoms: N_2  and  S_1 
REMARK    2  A    between atoms: C_3  and  S_1 
ROOT
ATOM      1  S   UNL d   1      56.678   0.069  32.411  0.00  0.00     0.272 S 
ATOM      2  O   UNL d   1      56.133  -0.533  32.264  0.00  0.00    -0.200 OA
ATOM      3  O   UNL d   1      57.225   0.668  32.553  0.00  0.00    -0.200 OA
ENDROOT
BRANCH   1   4
ATOM      4  N   UNL d   1      57.040  -0.082  31.685  0.00  0.00    -0.225 N 
ATOM      5  C   UNL d   1      57.197  -0.934  31.425  0.00  0.00     0.118 A 
ATOM      6  C   UNL d   1      57.595  -1.099  30.627  0.00  0.00     0.142 A 
ATOM      7  O   UNL d   1      57.835  -0.413  30.089  0.00  0.00    -0.300 OA
ATOM      8  C   UNL d   1      57.678   0.441  30.349  0.00  0.00     0.142 A 
ATOM      9  C   UNL d   1      57.280   0.606  31.147  0.00  0.00     0.118 A 
ENDBRANCH   1   4
BRANCH   1  10
ATOM     10  C   UNL d   1      56.319   0.222  33.137  0.00  0.00     0.104 A 
ATOM     11  C   UNL d   1      55.504   0.331  33.178  0.00  0.00     0.015 A 
ATOM     12  C   UNL d   1      55.138   0.485  33.906  0.00  0.00     0.028 A 
ATOM     13  C   UNL d   1      54.322   0.595  33.951  0.00  0.00     0.002 C 
ATOM     14  C   UNL d   1      55.600   0.528  34.589  0.00  0.00     0.140 A 
ATOM     15  C   UNL d   1      56.416   0.419  34.543  0.00  0.00     0.030 A 
ATOM     16  F   UNL d   1      55.244   0.682  35.317  0.00  0.00    -0.204 F 
ATOM     17  C   UNL d   1      56.779   0.265  33.820  0.00  0.00     0.015 A 
ENDBRANCH   1  10
TORSDOF 2
ENDMDL
MODEL 3
REMARK VINA RESULT:      -4.1      1.913      3.679
REMARK  2 active torsions:
REMARK  status: ('A' for Active; 'I' for Inactive)
REMARK    1  A    between atoms: N_2  and  S_1 
REMARK    2  A    between atoms: C_3  and  S_1 
ROOT
ATOM      1  S   UNL d   1      57.366  -0.164  31.348  0.00  0.00     0.272 S 
ATOM      2  O   UNL d   1      57.022  -0.872  31.099  0.00  0.00    -0.200 OA
ATOM      3  O   UNL d   1      57.707   0.542  31.601  0.00  0.00    -0.200 OA
ENDROOT
BRANCH   1   4
ATOM      4  N   UNL d   1      56.977  -0.230  32.073  0.00  0.00    -0.225 N 
ATOM      5  C   UNL d   1      56.368  -0.887  32.202  0.00  0.00     0.118 A 
ATOM      6  C   UNL d   1      55.941  -0.960  32.998  0.00  0.00     0.142 A 
ATOM      7  O   UNL d   1      56.122  -0.376  33.666  0.00  0.00    -0.300 OA
ATOM      8  C   UNL d   1      56.732   0.281  33.536  0.00  0.00     0.142 A 
ATOM      9  C   UNL d   1      57.160   0.354  32.740  0.00  0.00     0.118 A 
ENDBRANCH   1   4
BRANCH   1  10
ATOM     10  C   UNL d   1      57.756  -0.094  30.626  0.00  0.00     0.104 A 
ATOM     11  C   UNL d   1      58.178  -0.733  30.322  0.00  0.00     0.015 A 
ATOM     12  C   UNL d   1      58.572  -0.668  29.596  0.00  0.00     0.028 A 
ATOM     13  C   UNL d   1      58.995  -1.306  29.289  0.00  0.00     0.002 C 
ATOM     14  C   UNL d   1      58.537   0.044  29.180  0.00  0.00     0.140 A 
ATOM     15  C   UNL d   1      58.114   0.681  29.487  0.00  0.00     0.030 A 
ATOM     16  F   UNL d   1      58.926   0.117  28.456  0.00  0.00    -0.204 F 
ATOM     17  C   UNL d   1      57.722   0.617  30.209  0.00  0.00     0.015 A 
ENDBRANCH   1  10
TORSDOF 2
ENDMDL
