MODEL 1
REMARK VINA RESULT:      64.3      0.000      0.000
REMARK  4 active torsions:
REMARK  status: ('A' for Active; 'I' for Inactive)
REMARK    1  A    between atoms: C_6  and  N_1 
REMARK    2  A    between atoms: C_8  and  C_2 
REMARK    3  A    between atoms: C_16  and  C_5 
REMARK    4  A    between atoms: C_7  and  C_8 
ROOT
ATOM      1  N   UNL d   1      13.640  14.404  -4.119  0.00  0.00    -0.251 N 
ATOM      2  C   UNL d   1      13.616  13.449  -3.191  0.00  0.00     0.101 A 
ATOM      3  C   UNL d   1      13.762  14.758  -3.385  0.00  0.00     0.305 A 
ATOM      4  C   UNL d   1      13.747  14.164  -2.807  0.00  0.00     0.256 A 
ATOM      5  C   UNL d   1      13.550  13.596  -3.994  0.00  0.00     0.075 A 
ATOM      6  O   UNL d   1      13.879  15.567  -3.245  0.00  0.00    -0.263 OA
ATOM      7  O   UNL d   1      13.847  14.286  -1.998  0.00  0.00    -0.281 OA
ENDROOT
BRANCH   2   8
ATOM      8  C   UNL d   1      13.562  12.712  -2.818  0.00  0.00     0.223 C 
ATOM      9  O   UNL d   1      12.974  12.179  -3.047  0.00  0.00    -0.284 OA
BRANCH   8  10
ATOM     10  C   UNL d   1      14.087  12.507  -2.225  0.00  0.00     0.139 A 
ATOM     11  O   UNL d   1      14.908  12.474  -2.292  0.00  0.00    -0.304 OA
ATOM     12  C   UNL d   1      15.221  12.244  -1.564  0.00  0.00     0.100 A 
ATOM     13  C   UNL d   1      15.991  12.122  -1.315  0.00  0.00     0.025 A 
ATOM     14  C   UNL d   1      14.592  12.137  -1.052  0.00  0.00     0.025 A 
ATOM     15  C   UNL d   1      16.135  11.890  -0.541  0.00  0.00     0.002 A 
ATOM     16  C   UNL d   1      15.503  11.780  -0.017  0.00  0.00     0.000 A 
ATOM     17  C   UNL d   1      14.735  11.905  -0.278  0.00  0.00     0.002 A 
ATOM     18  C   UNL d   1      13.893  12.297  -1.452  0.00  0.00     0.030 A 
ENDBRANCH   8  10
ENDBRANCH   2   8
BRANCH   5  19
ATOM     19  C   UNL d   1      13.416  13.021  -4.581  0.00  0.00     0.017 A 
ATOM     20  C   UNL d   1      12.910  12.379  -4.422  0.00  0.00     0.002 A 
ATOM     21  C   UNL d   1      12.771  11.803  -5.001  0.00  0.00     0.000 A 
ATOM     22  C   UNL d   1      13.140  11.863  -5.750  0.00  0.00     0.000 A 
ATOM     23  C   UNL d   1      13.648  12.511  -5.903  0.00  0.00     0.000 A 
ATOM     24  C   UNL d   1      13.785  13.088  -5.317  0.00  0.00     0.002 A 
ENDBRANCH   5  19
BRANCH   1  25
ATOM     25  C   UNL d   1      13.613  14.790  -4.841  0.00  0.00     0.182 A 
ATOM     26  N   UNL d   1      12.934  14.952  -5.287  0.00  0.00    -0.220 NA
ATOM     27  C   UNL d   1      13.164  15.346  -5.969  0.00  0.00     0.108 A 
ATOM     28  C   UNL d   1      13.984  15.432  -5.951  0.00  0.00     0.059 A 
ATOM     29  S   UNL d   1      14.261  15.088  -5.254  0.00  0.00    -0.048 SA
ENDBRANCH   1  25
TORSDOF 4
ENDMDL
