MODEL 1
REMARK VINA RESULT:      20.8      0.000      0.000
REMARK  5 active torsions:
REMARK  status: ('A' for Active; 'I' for Inactive)
REMARK    1  A    between atoms: C_6  and  N_1 
REMARK    2  A    between atoms: C_13  and  C_6 
REMARK    3  A    between atoms: O_11  and  C_7 
REMARK    4  A    between atoms: O_19  and  C_8 
REMARK    5  A    between atoms: C_20  and  O_11 
ROOT
ATOM      1  C   UNL d   1      45.304 -14.449  44.683  0.00  0.00     0.122 A 
ATOM      2  C   UNL d   1      44.735 -15.024  44.835  0.00  0.00     0.117 A 
ATOM      3  C   UNL d   1      44.949 -15.821  44.868  0.00  0.00     0.028 A 
ATOM      4  C   UNL d   1      45.735 -16.032  44.747  0.00  0.00     0.020 A 
ATOM      5  C   UNL d   1      46.089 -14.671  44.564  0.00  0.00     0.027 A 
ATOM      6  C   UNL d   1      46.299 -15.460  44.597  0.00  0.00     0.004 A 
ENDROOT
BRANCH   4   7
ATOM      7  C   UNL d   1      45.945 -16.828  44.781  0.00  0.00     0.085 C 
BRANCH   7   8
ATOM      8  N   UNL d   1      46.149 -17.228  44.089  0.00  0.00    -0.251 N 
ATOM      9  C   UNL d   1      46.330 -16.913  43.337  0.00  0.00     0.378 A 
ATOM     10  O   UNL d   1      46.499 -17.544  42.828  0.00  0.00    -0.258 OA
ATOM     11  O   UNL d   1      46.338 -16.113  43.143  0.00  0.00    -0.237 OA
ATOM     12  C   UNL d   1      46.424 -18.246  43.261  0.00  0.00     0.121 A 
ATOM     13  C   UNL d   1      46.208 -18.052  44.039  0.00  0.00     0.092 A 
ATOM     14  C   UNL d   1      46.522 -19.043  43.056  0.00  0.00     0.026 A 
ATOM     15  C   UNL d   1      46.092 -18.640  44.600  0.00  0.00     0.020 A 
ATOM     16  C   UNL d   1      46.192 -19.430  44.386  0.00  0.00     0.002 A 
ATOM     17  C   UNL d   1      46.406 -19.630  43.617  0.00  0.00     0.002 A 
ATOM     18  C   UNL d   1      46.074 -20.019  44.955  0.00  0.00     0.000 C 
ENDBRANCH   7   8
ENDBRANCH   4   7
BRANCH   2  19
ATOM     19  O   UNL d   1      43.954 -14.814  44.954  0.00  0.00    -0.326 OA
ATOM     20  C   UNL d   1      43.364 -15.386  44.871  0.00  0.00     0.181 C 
ENDBRANCH   2  19
BRANCH   1  21
ATOM     21  O   UNL d   1      45.094 -13.655  44.650  0.00  0.00    -0.305 OA
BRANCH  21  22
ATOM     22  C   UNL d   1      45.653 -13.094  44.439  0.00  0.00     0.100 C 
ATOM     23  C   UNL d   1      45.555 -12.652  43.758  0.00  0.00     0.027 C 
ATOM     24  C   UNL d   1      46.316 -12.975  44.916  0.00  0.00     0.027 C 
ENDBRANCH  21  22
ENDBRANCH   1  21
TORSDOF 5
ENDMDL
MODEL 2
REMARK VINA RESULT:      21.2      1.068      4.496
REMARK  5 active torsions:
REMARK  status: ('A' for Active; 'I' for Inactive)
REMARK    1  A    between atoms: C_6  and  N_1 
REMARK    2  A    between atoms: C_13  and  C_6 
REMARK    3  A    between atoms: O_11  and  C_7 
REMARK    4  A    between atoms: O_19  and  C_8 
REMARK    5  A    between atoms: C_20  and  O_11 
ROOT
ATOM      1  C   UNL d   1      46.414 -18.214  43.179  0.00  0.00     0.122 A 
ATOM      2  C   UNL d   1      46.490 -18.389  43.980  0.00  0.00     0.117 A 
ATOM      3  C   UNL d   1      46.411 -17.792  44.545  0.00  0.00     0.028 A 
ATOM      4  C   UNL d   1      46.254 -17.023  44.298  0.00  0.00     0.020 A 
ATOM      5  C   UNL d   1      46.257 -17.440  42.943  0.00  0.00     0.027 A 
ATOM      6  C   UNL d   1      46.178 -16.851  43.504  0.00  0.00     0.004 A 
ENDROOT
BRANCH   4   7
ATOM      7  C   UNL d   1      46.175 -16.430  44.866  0.00  0.00     0.085 C 
BRANCH   7   8
ATOM      8  N   UNL d   1      45.500 -15.956  44.871  0.00  0.00    -0.251 N 
ATOM      9  C   UNL d   1      44.699 -16.186  44.911  0.00  0.00     0.378 A 
ATOM     10  O   UNL d   1      44.234 -15.501  44.900  0.00  0.00    -0.258 OA
ATOM     11  O   UNL d   1      44.427 -16.961  44.955  0.00  0.00    -0.237 OA
ATOM     12  C   UNL d   1      44.743 -14.849  44.852  0.00  0.00     0.121 A 
ATOM     13  C   UNL d   1      45.525 -15.129  44.834  0.00  0.00     0.092 A 
ATOM     14  C   UNL d   1      44.605 -14.033  44.822  0.00  0.00     0.026 A 
ATOM     15  C   UNL d   1      46.155 -14.605  44.788  0.00  0.00     0.020 A 
ATOM     16  C   UNL d   1      46.007 -13.795  44.759  0.00  0.00     0.002 A 
ATOM     17  C   UNL d   1      45.235 -13.510  44.776  0.00  0.00     0.002 A 
ATOM     18  C   UNL d   1      46.646 -13.270  44.712  0.00  0.00     0.000 C 
ENDBRANCH   7   8
ENDBRANCH   4   7
BRANCH   2  19
ATOM     19  O   UNL d   1      46.646 -19.154  44.225  0.00  0.00    -0.326 OA
ATOM     20  C   UNL d   1      46.219 -19.471  44.857  0.00  0.00     0.181 C 
ENDBRANCH   2  19
BRANCH   1  21
ATOM     21  O   UNL d   1      46.493 -18.806  42.615  0.00  0.00    -0.305 OA
BRANCH  21  22
ATOM     22  C   UNL d   1      46.167 -18.705  41.870  0.00  0.00     0.100 C 
ATOM     23  C   UNL d   1      45.382 -18.891  41.737  0.00  0.00     0.027 C 
ATOM     24  C   UNL d   1      46.632 -18.415  41.253  0.00  0.00     0.027 C 
ENDBRANCH  21  22
ENDBRANCH   1  21
TORSDOF 5
ENDMDL
