MODEL 1
REMARK VINA RESULT:      -9.0      0.000      0.000
REMARK  3 active torsions:
REMARK  status: ('A' for Active; 'I' for Inactive)
REMARK    1  A    between atoms: S_11  and  C_4 
REMARK    2  A    between atoms: C_14  and  S_11 
REMARK    3  A    between atoms: O_15  and  C_12 
ROOT
ATOM      1  N   UNL d   1      53.319  28.807  54.324  0.00  0.00    -0.195 NA
ATOM      2  C   UNL d   1      53.171  29.561  54.010  0.00  0.00     0.086 C 
ATOM      3  C   UNL d   1      53.011  30.315  53.695  0.00  0.00     0.168 C 
ENDROOT
BRANCH   3   4
ATOM      4  S   UNL d   1      53.639  30.865  53.563  0.00  0.00    -0.078 SA
BRANCH   4   5
ATOM      5  C   UNL d   1      53.482  31.702  53.604  0.00  0.00     0.108 A 
ATOM      6  N   UNL d   1      52.859  32.023  53.169  0.00  0.00    -0.239 NA
ATOM      7  C   UNL d   1      52.723  32.828  53.221  0.00  0.00     0.084 A 
ATOM      8  C   UNL d   1      53.189  33.301  53.689  0.00  0.00     0.018 A 
ATOM      9  C   UNL d   1      52.100  33.148  52.786  0.00  0.00     0.043 A 
ATOM     10  C   UNL d   1      53.813  32.993  54.127  0.00  0.00     0.004 A 
ATOM     11  C   UNL d   1      53.055  34.118  53.744  0.00  0.00     0.004 A 
ATOM     12  C   UNL d   1      53.949  32.176  54.072  0.00  0.00     0.025 A 
ATOM     13  C   UNL d   1      54.280  33.467  54.595  0.00  0.00     0.000 C 
ATOM     14  C   UNL d   1      52.421  34.441  53.301  0.00  0.00     0.024 A 
ATOM     15  C   UNL d   1      51.955  33.967  52.833  0.00  0.00     0.096 A 
BRANCH  15  16
ATOM     16  O   UNL d   1      51.329  34.291  52.397  0.00  0.00    -0.328 OA
ATOM     17  C   UNL d   1      50.573  34.338  52.745  0.00  0.00     0.181 C 
ENDBRANCH  15  16
ENDBRANCH   4   5
ENDBRANCH   3   4
TORSDOF 3
ENDMDL
MODEL 2
REMARK VINA RESULT:      -8.7      2.152      3.700
REMARK  3 active torsions:
REMARK  status: ('A' for Active; 'I' for Inactive)
REMARK    1  A    between atoms: S_11  and  C_4 
REMARK    2  A    between atoms: C_14  and  S_11 
REMARK    3  A    between atoms: O_15  and  C_12 
ROOT
ATOM      1  N   UNL d   1      49.343  34.799  52.178  0.00  0.00    -0.195 NA
ATOM      2  C   UNL d   1      49.979  34.427  52.559  0.00  0.00     0.086 C 
ATOM      3  C   UNL d   1      50.611  34.050  52.950  0.00  0.00     0.168 C 
ENDROOT
BRANCH   3   4
ATOM      4  S   UNL d   1      51.371  34.002  52.585  0.00  0.00    -0.078 SA
BRANCH   4   5
ATOM      5  C   UNL d   1      52.001  33.583  52.978  0.00  0.00     0.108 A 
ATOM      6  N   UNL d   1      52.474  33.977  53.528  0.00  0.00    -0.239 NA
ATOM      7  C   UNL d   1      53.074  33.559  53.894  0.00  0.00     0.084 A 
ATOM      8  C   UNL d   1      53.203  32.775  53.723  0.00  0.00     0.018 A 
ATOM      9  C   UNL d   1      53.546  33.953  54.444  0.00  0.00     0.043 A 
ATOM     10  C   UNL d   1      52.738  32.372  53.177  0.00  0.00     0.004 A 
ATOM     11  C   UNL d   1      53.809  32.348  54.093  0.00  0.00     0.004 A 
ATOM     12  C   UNL d   1      52.130  32.799  52.807  0.00  0.00     0.025 A 
ATOM     13  C   UNL d   1      52.867  31.587  53.006  0.00  0.00     0.000 C 
ATOM     14  C   UNL d   1      54.288  32.750  54.651  0.00  0.00     0.024 A 
ATOM     15  C   UNL d   1      54.159  33.535  54.822  0.00  0.00     0.096 A 
BRANCH  15  16
ATOM     16  O   UNL d   1      54.635  33.928  55.375  0.00  0.00    -0.328 OA
ATOM     17  C   UNL d   1      55.461  33.936  55.266  0.00  0.00     0.181 C 
ENDBRANCH  15  16
ENDBRANCH   4   5
ENDBRANCH   3   4
TORSDOF 3
ENDMDL
MODEL 3
REMARK VINA RESULT:      -8.7      1.913      3.609
REMARK  3 active torsions:
REMARK  status: ('A' for Active; 'I' for Inactive)
REMARK    1  A    between atoms: S_11  and  C_4 
REMARK    2  A    between atoms: C_14  and  S_11 
REMARK    3  A    between atoms: O_15  and  C_12 
ROOT
ATOM      1  N   UNL d   1      49.454  34.798  52.192  0.00  0.00    -0.195 NA
ATOM      2  C   UNL d   1      50.084  34.438  52.594  0.00  0.00     0.086 C 
ATOM      3  C   UNL d   1      50.710  34.074  53.006  0.00  0.00     0.168 C 
ENDROOT
BRANCH   3   4
ATOM      4  S   UNL d   1      51.493  34.084  52.689  0.00  0.00    -0.078 SA
BRANCH   4   5
ATOM      5  C   UNL d   1      52.094  33.591  53.036  0.00  0.00     0.108 A 
ATOM      6  N   UNL d   1      52.126  32.788  52.845  0.00  0.00    -0.239 NA
ATOM      7  C   UNL d   1      52.710  32.330  53.188  0.00  0.00     0.084 A 
ATOM      8  C   UNL d   1      53.247  32.655  53.705  0.00  0.00     0.018 A 
ATOM      9  C   UNL d   1      52.742  31.529  52.996  0.00  0.00     0.043 A 
ATOM     10  C   UNL d   1      53.225  33.453  53.903  0.00  0.00     0.004 A 
ATOM     11  C   UNL d   1      53.841  32.193  54.054  0.00  0.00     0.004 A 
ATOM     12  C   UNL d   1      52.631  33.915  53.553  0.00  0.00     0.025 A 
ATOM     13  C   UNL d   1      53.763  33.778  54.420  0.00  0.00     0.000 C 
ATOM     14  C   UNL d   1      53.871  31.379  53.858  0.00  0.00     0.024 A 
ATOM     15  C   UNL d   1      53.334  31.055  53.341  0.00  0.00     0.096 A 
BRANCH  15  16
ATOM     16  O   UNL d   1      53.367  30.249  53.150  0.00  0.00    -0.328 OA
ATOM     17  C   UNL d   1      53.342  29.685  53.764  0.00  0.00     0.181 C 
ENDBRANCH  15  16
ENDBRANCH   4   5
ENDBRANCH   3   4
TORSDOF 3
ENDMDL
MODEL 4
REMARK VINA RESULT:      -8.3      2.068      3.821
REMARK  3 active torsions:
REMARK  status: ('A' for Active; 'I' for Inactive)
REMARK    1  A    between atoms: S_11  and  C_4 
REMARK    2  A    between atoms: C_14  and  S_11 
REMARK    3  A    between atoms: O_15  and  C_12 
ROOT
ATOM      1  N   UNL d   1      55.593  34.297  55.428  0.00  0.00    -0.195 NA
ATOM      2  C   UNL d   1      55.062  33.726  55.146  0.00  0.00     0.086 C 
ATOM      3  C   UNL d   1      54.525  33.150  54.872  0.00  0.00     0.168 C 
ENDROOT
BRANCH   3   4
ATOM      4  S   UNL d   1      54.443  33.001  54.045  0.00  0.00    -0.078 SA
BRANCH   4   5
ATOM      5  C   UNL d   1      53.914  32.389  53.777  0.00  0.00     0.108 A 
ATOM      6  N   UNL d   1      54.041  31.608  54.011  0.00  0.00    -0.239 NA
ATOM      7  C   UNL d   1      53.523  31.034  53.744  0.00  0.00     0.084 A 
ATOM      8  C   UNL d   1      52.898  31.226  53.261  0.00  0.00     0.018 A 
ATOM      9  C   UNL d   1      53.650  30.253  53.978  0.00  0.00     0.043 A 
ATOM     10  C   UNL d   1      52.762  32.001  53.022  0.00  0.00     0.004 A 
ATOM     11  C   UNL d   1      52.371  30.647  52.989  0.00  0.00     0.004 A 
ATOM     12  C   UNL d   1      53.289  32.582  53.294  0.00  0.00     0.025 A 
ATOM     13  C   UNL d   1      52.136  32.194  52.539  0.00  0.00     0.000 C 
ATOM     14  C   UNL d   1      52.502  29.855  53.228  0.00  0.00     0.024 A 
ATOM     15  C   UNL d   1      53.127  29.662  53.711  0.00  0.00     0.096 A 
BRANCH  15  16
ATOM     16  O   UNL d   1      53.253  28.877  53.944  0.00  0.00    -0.328 OA
ATOM     17  C   UNL d   1      53.297  28.697  54.756  0.00  0.00     0.181 C 
ENDBRANCH  15  16
ENDBRANCH   4   5
ENDBRANCH   3   4
TORSDOF 3
ENDMDL
MODEL 5
REMARK VINA RESULT:      -8.3      1.322      2.301
REMARK  3 active torsions:
REMARK  status: ('A' for Active; 'I' for Inactive)
REMARK    1  A    between atoms: S_11  and  C_4 
REMARK    2  A    between atoms: C_14  and  S_11 
REMARK    3  A    between atoms: O_15  and  C_12 
ROOT
ATOM      1  N   UNL d   1      52.569  29.126  53.298  0.00  0.00    -0.195 NA
ATOM      2  C   UNL d   1      52.816  29.918  53.287  0.00  0.00     0.086 C 
ATOM      3  C   UNL d   1      53.074  30.711  53.281  0.00  0.00     0.168 C 
ENDROOT
BRANCH   3   4
ATOM      4  S   UNL d   1      52.603  31.310  52.917  0.00  0.00    -0.078 SA
BRANCH   4   5
ATOM      5  C   UNL d   1      52.680  32.120  53.172  0.00  0.00     0.108 A 
ATOM      6  N   UNL d   1      53.248  32.318  53.737  0.00  0.00    -0.239 NA
ATOM      7  C   UNL d   1      53.308  33.100  53.969  0.00  0.00     0.084 A 
ATOM      8  C   UNL d   1      52.821  33.669  53.653  0.00  0.00     0.018 A 
ATOM      9  C   UNL d   1      53.876  33.298  54.534  0.00  0.00     0.043 A 
ATOM     10  C   UNL d   1      52.252  33.483  53.090  0.00  0.00     0.004 A 
ATOM     11  C   UNL d   1      52.879  34.462  53.887  0.00  0.00     0.004 A 
ATOM     12  C   UNL d   1      52.193  32.689  52.856  0.00  0.00     0.025 A 
ATOM     13  C   UNL d   1      51.764  34.053  52.774  0.00  0.00     0.000 C 
ATOM     14  C   UNL d   1      53.456  34.661  54.460  0.00  0.00     0.024 A 
ATOM     15  C   UNL d   1      53.944  34.092  54.776  0.00  0.00     0.096 A 
BRANCH  15  16
ATOM     16  O   UNL d   1      54.514  34.293  55.344  0.00  0.00    -0.328 OA
ATOM     17  C   UNL d   1      55.288  33.997  55.263  0.00  0.00     0.181 C 
ENDBRANCH  15  16
ENDBRANCH   4   5
ENDBRANCH   3   4
TORSDOF 3
ENDMDL
MODEL 6
REMARK VINA RESULT:      -7.7      2.078      3.913
REMARK  3 active torsions:
REMARK  status: ('A' for Active; 'I' for Inactive)
REMARK    1  A    between atoms: S_11  and  C_4 
REMARK    2  A    between atoms: C_14  and  S_11 
REMARK    3  A    between atoms: O_15  and  C_12 
ROOT
ATOM      1  N   UNL d   1      53.236  36.607  54.796  0.00  0.00    -0.195 NA
ATOM      2  C   UNL d   1      53.156  35.798  54.629  0.00  0.00     0.086 C 
ATOM      3  C   UNL d   1      53.073  34.984  54.472  0.00  0.00     0.168 C 
ENDROOT
BRANCH   3   4
ATOM      4  S   UNL d   1      53.255  34.676  53.706  0.00  0.00    -0.078 SA
BRANCH   4   5
ATOM      5  C   UNL d   1      52.988  33.896  53.491  0.00  0.00     0.108 A 
ATOM      6  N   UNL d   1      53.454  33.239  53.672  0.00  0.00    -0.239 NA
ATOM      7  C   UNL d   1      53.180  32.499  53.459  0.00  0.00     0.084 A 
ATOM      8  C   UNL d   1      52.468  32.410  53.077  0.00  0.00     0.018 A 
ATOM      9  C   UNL d   1      53.646  31.843  53.640  0.00  0.00     0.043 A 
ATOM     10  C   UNL d   1      51.995  33.057  52.892  0.00  0.00     0.004 A 
ATOM     11  C   UNL d   1      52.188  31.660  52.859  0.00  0.00     0.004 A 
ATOM     12  C   UNL d   1      52.275  33.807  53.110  0.00  0.00     0.025 A 
ATOM     13  C   UNL d   1      51.282  32.967  52.510  0.00  0.00     0.000 C 
ATOM     14  C   UNL d   1      52.663  30.995  53.044  0.00  0.00     0.024 A 
ATOM     15  C   UNL d   1      53.375  31.085  53.426  0.00  0.00     0.096 A 
BRANCH  15  16
ATOM     16  O   UNL d   1      53.842  30.424  53.607  0.00  0.00    -0.328 OA
ATOM     17  C   UNL d   1      53.470  29.719  53.850  0.00  0.00     0.181 C 
ENDBRANCH  15  16
ENDBRANCH   4   5
ENDBRANCH   3   4
TORSDOF 3
ENDMDL
MODEL 7
REMARK VINA RESULT:      -7.0      1.570      2.607
REMARK  3 active torsions:
REMARK  status: ('A' for Active; 'I' for Inactive)
REMARK    1  A    between atoms: S_11  and  C_4 
REMARK    2  A    between atoms: C_14  and  S_11 
REMARK    3  A    between atoms: O_15  and  C_12 
ROOT
ATOM      1  N   UNL d   1      55.721  34.211  55.427  0.00  0.00    -0.195 NA
ATOM      2  C   UNL d   1      55.113  33.726  55.140  0.00  0.00     0.086 C 
ATOM      3  C   UNL d   1      54.498  33.237  54.862  0.00  0.00     0.168 C 
ENDROOT
BRANCH   3   4
ATOM      4  S   UNL d   1      54.403  33.099  54.034  0.00  0.00    -0.078 SA
BRANCH   4   5
ATOM      5  C   UNL d   1      53.650  32.835  53.735  0.00  0.00     0.108 A 
ATOM      6  N   UNL d   1      53.005  33.350  53.736  0.00  0.00    -0.239 NA
ATOM      7  C   UNL d   1      52.290  33.078  53.445  0.00  0.00     0.084 A 
ATOM      8  C   UNL d   1      52.215  32.320  53.162  0.00  0.00     0.018 A 
ATOM      9  C   UNL d   1      51.647  33.593  53.446  0.00  0.00     0.043 A 
ATOM     10  C   UNL d   1      52.850  31.798  53.156  0.00  0.00     0.004 A 
ATOM     11  C   UNL d   1      51.492  32.041  52.866  0.00  0.00     0.004 A 
ATOM     12  C   UNL d   1      53.574  32.076  53.452  0.00  0.00     0.025 A 
ATOM     13  C   UNL d   1      52.775  31.039  52.872  0.00  0.00     0.000 C 
ATOM     14  C   UNL d   1      50.839  32.566  52.869  0.00  0.00     0.024 A 
ATOM     15  C   UNL d   1      50.915  33.325  53.152  0.00  0.00     0.096 A 
BRANCH  15  16
ATOM     16  O   UNL d   1      50.266  33.840  53.152  0.00  0.00    -0.328 OA
ATOM     17  C   UNL d   1      50.331  34.573  52.761  0.00  0.00     0.181 C 
ENDBRANCH  15  16
ENDBRANCH   4   5
ENDBRANCH   3   4
TORSDOF 3
ENDMDL
MODEL 8
REMARK VINA RESULT:      -6.1      9.528     10.327
REMARK  3 active torsions:
REMARK  status: ('A' for Active; 'I' for Inactive)
REMARK    1  A    between atoms: S_11  and  C_4 
REMARK    2  A    between atoms: C_14  and  S_11 
REMARK    3  A    between atoms: O_15  and  C_12 
ROOT
ATOM      1  N   UNL d   1      44.603  31.370  61.521  0.00  0.00    -0.195 NA
ATOM      2  C   UNL d   1      44.550  30.969  60.797  0.00  0.00     0.086 C 
ATOM      3  C   UNL d   1      44.486  30.563  60.072  0.00  0.00     0.168 C 
ENDROOT
BRANCH   3   4
ATOM      4  S   UNL d   1      45.119  30.587  59.512  0.00  0.00    -0.078 SA
BRANCH   4   5
ATOM      5  C   UNL d   1      45.052  30.153  58.782  0.00  0.00     0.108 A 
ATOM      6  N   UNL d   1      45.219  29.344  58.770  0.00  0.00    -0.239 NA
ATOM      7  C   UNL d   1      45.149  28.944  58.060  0.00  0.00     0.084 A 
ATOM      8  C   UNL d   1      44.921  29.331  57.382  0.00  0.00     0.018 A 
ATOM      9  C   UNL d   1      45.316  28.137  58.048  0.00  0.00     0.043 A 
ATOM     10  C   UNL d   1      44.752  30.136  57.383  0.00  0.00     0.004 A 
ATOM     11  C   UNL d   1      44.849  28.928  56.661  0.00  0.00     0.004 A 
ATOM     12  C   UNL d   1      44.824  30.539  58.105  0.00  0.00     0.025 A 
ATOM     13  C   UNL d   1      44.523  30.523  56.704  0.00  0.00     0.000 C 
ATOM     14  C   UNL d   1      45.019  28.108  56.651  0.00  0.00     0.024 A 
ATOM     15  C   UNL d   1      45.248  27.721  57.329  0.00  0.00     0.096 A 
BRANCH  15  16
ATOM     16  O   UNL d   1      45.415  26.910  57.315  0.00  0.00    -0.328 OA
ATOM     17  C   UNL d   1      45.138  26.450  56.677  0.00  0.00     0.181 C 
ENDBRANCH  15  16
ENDBRANCH   4   5
ENDBRANCH   3   4
TORSDOF 3
ENDMDL
