MODEL 1
REMARK VINA RESULT:      -3.7      0.000      0.000
REMARK  5 active torsions:
REMARK  status: ('A' for Active; 'I' for Inactive)
REMARK    1  A    between atoms: C_6  and  C_1 
REMARK    2  A    between atoms: C_7  and  C_6 
REMARK    3  A    between atoms: C_9  and  C_19 
REMARK       I    between atoms: N_17  and  C_9 
REMARK    4  A    between atoms: O_20  and  C_18 
REMARK    5  A    between atoms: C_19  and  O_20 
ROOT
ATOM      1  C   UNL d   1     -41.335-122.213 -52.812  0.00  0.00     0.141 A 
ATOM      2  C   UNL d   1     -41.630-121.920 -51.545  0.00  0.00     0.064 A 
ATOM      3  C   UNL d   1     -41.410-121.594 -52.274  0.00  0.00     0.220 A 
ATOM      4  C   UNL d   1     -41.690-122.742 -51.641  0.00  0.00     0.105 A 
ATOM      5  O   UNL d   1     -41.506-122.923 -52.429  0.00  0.00    -0.304 OA
ATOM      6  C   UNL d   1     -41.903-123.211 -50.997  0.00  0.00     0.050 A 
ATOM      7  C   UNL d   1     -41.784-121.576 -50.807  0.00  0.00     0.007 A 
ATOM      8  O   UNL d   1     -41.288-120.795 -52.430  0.00  0.00    -0.284 OA
ATOM      9  C   UNL d   1     -42.055-122.866 -50.263  0.00  0.00     0.102 A 
ATOM     10  C   UNL d   1     -41.996-122.053 -50.169  0.00  0.00     0.025 A 
ENDROOT
BRANCH   1  11
ATOM     11  C   UNL d   1     -41.123-122.136 -53.611  0.00  0.00     0.053 C 
BRANCH  11  12
ATOM     12  C   UNL d   1     -41.654-122.364 -54.206  0.00  0.00     0.102 A 
ATOM     13  O   UNL d   1     -42.250-121.892 -54.523  0.00  0.00    -0.307 OA
ATOM     14  C   UNL d   1     -42.640-122.337 -55.093  0.00  0.00     0.100 A 
ATOM     15  C   UNL d   1     -43.280-122.084 -55.556  0.00  0.00     0.027 C 
ATOM     16  C   UNL d   1     -42.289-123.083 -55.132  0.00  0.00     0.027 A 
ATOM     17  C   UNL d   1     -41.672-123.095 -54.573  0.00  0.00     0.027 A 
ENDBRANCH  11  12
ENDBRANCH   1  11
BRANCH   9  18
ATOM     18  O   UNL d   1     -42.269-123.344 -49.620  0.00  0.00    -0.300 OA
BRANCH  18  19
ATOM     19  C   UNL d   1     -42.096-123.108 -48.858  0.00  0.00     0.187 C 
BRANCH  19  20
ATOM     20  C   UNL d   1     -42.480-123.463 -48.220  0.00  0.00     0.323 C 
ATOM     21  O   UNL d   1     -43.212-123.816 -48.323  0.00  0.00    -0.261 OA
ATOM     22  N   UNL d   1     -42.122-123.460 -47.471  0.00  0.00    -0.083 NA
ATOM     23  N   UNL d   1     -42.506-123.815 -46.827  0.00  0.00    -0.019 N 
ENDBRANCH  19  20
ENDBRANCH  18  19
ENDBRANCH   9  18
TORSDOF 5
ENDMDL
MODEL 2
REMARK VINA RESULT:      -3.0      2.660      5.197
REMARK  5 active torsions:
REMARK  status: ('A' for Active; 'I' for Inactive)
REMARK    1  A    between atoms: C_6  and  C_1 
REMARK    2  A    between atoms: C_7  and  C_6 
REMARK    3  A    between atoms: C_9  and  C_19 
REMARK       I    between atoms: N_17  and  C_9 
REMARK    4  A    between atoms: O_20  and  C_18 
REMARK    5  A    between atoms: C_19  and  O_20 
ROOT
ATOM      1  C   UNL d   1     -41.172-123.201 -50.289  0.00  0.00     0.141 A 
ATOM      2  C   UNL d   1     -41.156-122.229 -51.201  0.00  0.00     0.064 A 
ATOM      3  C   UNL d   1     -41.149-122.384 -50.388  0.00  0.00     0.220 A 
ATOM      4  C   UNL d   1     -41.184-122.956 -51.600  0.00  0.00     0.105 A 
ATOM      5  O   UNL d   1     -41.194-123.559 -51.032  0.00  0.00    -0.304 OA
ATOM      6  C   UNL d   1     -41.197-122.966 -52.424  0.00  0.00     0.050 A 
ATOM      7  C   UNL d   1     -41.141-121.520 -51.632  0.00  0.00     0.007 A 
ATOM      8  O   UNL d   1     -41.123-121.820 -49.788  0.00  0.00    -0.284 OA
ATOM      9  C   UNL d   1     -41.182-122.260 -52.850  0.00  0.00     0.102 A 
ATOM     10  C   UNL d   1     -41.154-121.541 -52.456  0.00  0.00     0.025 A 
ENDROOT
BRANCH   1  11
ATOM     11  C   UNL d   1     -41.173-123.600 -49.561  0.00  0.00     0.053 C 
BRANCH  11  12
ATOM     12  C   UNL d   1     -41.873-123.657 -49.121  0.00  0.00     0.102 A 
ATOM     13  O   UNL d   1     -41.933-123.575 -48.302  0.00  0.00    -0.307 OA
ATOM     14  C   UNL d   1     -42.724-123.674 -48.102  0.00  0.00     0.100 A 
ATOM     15  C   UNL d   1     -43.041-123.637 -47.337  0.00  0.00     0.027 C 
ATOM     16  C   UNL d   1     -43.156-123.816 -48.791  0.00  0.00     0.027 A 
ATOM     17  C   UNL d   1     -42.617-123.805 -49.426  0.00  0.00     0.027 A 
ENDBRANCH  11  12
ENDBRANCH   1  11
BRANCH   9  18
ATOM     18  O   UNL d   1     -41.195-122.279 -53.679  0.00  0.00    -0.300 OA
BRANCH  18  19
ATOM     19  C   UNL d   1     -41.901-122.206 -54.080  0.00  0.00     0.187 C 
BRANCH  19  20
ATOM     20  C   UNL d   1     -41.906-122.164 -54.904  0.00  0.00     0.323 C 
ATOM     21  O   UNL d   1     -41.216-122.296 -55.328  0.00  0.00    -0.261 OA
ATOM     22  N   UNL d   1     -42.611-121.987 -55.303  0.00  0.00    -0.083 NA
ATOM     23  N   UNL d   1     -42.618-121.943 -56.132  0.00  0.00    -0.019 N 
ENDBRANCH  19  20
ENDBRANCH  18  19
ENDBRANCH   9  18
TORSDOF 5
ENDMDL
