MODEL 1
REMARK VINA RESULT:      54.3      0.000      0.000
REMARK  6 active torsions:
REMARK  status: ('A' for Active; 'I' for Inactive)
REMARK    1  A    between atoms: C_7  and  S_1 
REMARK    2  A    between atoms: N_18  and  S_1 
REMARK    3  A    between atoms: C_6  and  C_4 
REMARK    4  A    between atoms: C_9  and  C_24 
REMARK    5  A    between atoms: C_26  and  N_18 
REMARK    6  A    between atoms: C_24  and  C_26 
ROOT
ATOM      1  S   UNL d   1     -58.834 -98.956 -45.126  0.00  0.00     0.285 S 
ATOM      2  O   UNL d   1     -58.670 -98.986 -45.932  0.00  0.00    -0.198 OA
ATOM      3  O   UNL d   1     -59.636 -99.005 -45.295  0.00  0.00    -0.198 OA
ENDROOT
BRANCH   1   4
ATOM      4  C   UNL d   1     -59.006 -98.926 -44.323  0.00  0.00     0.105 A 
ATOM      5  C   UNL d   1     -58.394 -98.881 -43.771  0.00  0.00     0.019 A 
ATOM      6  C   UNL d   1     -58.562 -98.852 -42.972  0.00  0.00     0.100 A 
ATOM      7  C   UNL d   1     -59.348 -98.867 -42.715  0.00  0.00     0.144 A 
ATOM      8  C   UNL d   1     -59.957 -98.912 -43.262  0.00  0.00     0.030 A 
ATOM      9  F   UNL d   1     -59.525 -98.838 -41.913  0.00  0.00    -0.204 F 
ATOM     10  C   UNL d   1     -59.791 -98.942 -44.066  0.00  0.00     0.015 A 
BRANCH   6  11
ATOM     11  C   UNL d   1     -57.954 -98.807 -42.428  0.00  0.00     0.421 C 
ATOM     12  F   UNL d   1     -57.399 -98.765 -41.920  0.00  0.00    -0.166 F 
ATOM     13  F   UNL d   1     -57.104 -98.794 -42.558  0.00  0.00    -0.166 F 
ATOM     14  F   UNL d   1     -58.001 -98.760 -41.568  0.00  0.00    -0.166 F 
ENDBRANCH   6  11
ENDBRANCH   1   4
BRANCH   1  15
ATOM     15  N   UNL d   1     -58.024 -98.906 -44.966  0.00  0.00    -0.157 NA
BRANCH  15  16
ATOM     16  C   UNL d   1     -57.489 -98.863 -45.570  0.00  0.00     0.114 C 
BRANCH  16  17
ATOM     17  C   UNL d   1     -56.679 -98.772 -45.408  0.00  0.00     0.042 C 
BRANCH  17  18
ATOM     18  C   UNL d   1     -56.244 -99.425 -45.109  0.00  0.00     0.102 A 
ATOM     19  N   UNL d   1     -56.179 -99.638 -44.328  0.00  0.00    -0.227 NA
ATOM     20  C   UNL d   1     -55.702-100.311 -44.273  0.00  0.00     0.148 A 
ATOM     21  C   UNL d   1     -55.453-100.759 -43.630  0.00  0.00     0.037 A 
ATOM     22  N   UNL d   1     -55.470-100.516 -45.032  0.00  0.00    -0.288 N 
ATOM     23  C   UNL d   1     -54.971-101.412 -43.751  0.00  0.00     0.004 A 
ATOM     24  C   UNL d   1     -54.722-101.859 -43.104  0.00  0.00     0.000 C 
ATOM     25  C   UNL d   1     -54.731-101.627 -44.504  0.00  0.00     0.019 A 
ATOM     26  C   UNL d   1     -54.985-101.172 -45.152  0.00  0.00     0.082 A 
ATOM     27  C   UNL d   1     -55.802 -99.970 -45.563  0.00  0.00     0.101 A 
ENDBRANCH  17  18
ENDBRANCH  16  17
ENDBRANCH  15  16
ENDBRANCH   1  15
TORSDOF 6
ENDMDL
