MODEL 1
REMARK VINA RESULT:      58.8      0.000      0.000
REMARK  5 active torsions:
REMARK  status: ('A' for Active; 'I' for Inactive)
REMARK    1  A    between atoms: N_3  and  S_1 
REMARK    2  A    between atoms: C_4  and  S_1 
REMARK    3  A    between atoms: S_2  and  N_5 
REMARK    4  A    between atoms: C_8  and  N_3 
REMARK    5  A    between atoms: N_5  and  C_15 
ROOT
ATOM      1  N   UNL d   1      60.278  49.112  51.155  0.00  0.00    -0.229 N 
ATOM      2  C   UNL d   1      60.655  49.624  51.678  0.00  0.00     0.111 C 
ENDROOT
BRANCH   1   3
ATOM      3  S   UNL d   1      60.679  48.448  50.867  0.00  0.00     0.271 S 
ATOM      4  O   UNL d   1      60.029  48.354  51.364  0.00  0.00    -0.200 OA
ATOM      5  O   UNL d   1      60.936  49.212  50.652  0.00  0.00    -0.200 OA
BRANCH   3   6
ATOM      6  C   UNL d   1      61.081  47.783  50.578  0.00  0.00     0.104 A 
ATOM      7  C   UNL d   1      61.105  47.087  51.021  0.00  0.00     0.013 A 
ATOM      8  C   UNL d   1      61.499  46.435  50.738  0.00  0.00     0.001 A 
ATOM      9  C   UNL d   1      61.877  46.464  50.007  0.00  0.00     0.000 A 
ATOM     10  C   UNL d   1      61.856  47.156  49.561  0.00  0.00     0.001 A 
ATOM     11  C   UNL d   1      62.276  45.794  49.726  0.00  0.00     0.000 C 
ATOM     12  C   UNL d   1      61.460  47.812  49.846  0.00  0.00     0.013 A 
ENDBRANCH   3   6
ENDBRANCH   1   3
BRANCH   1  13
ATOM     13  C   UNL d   1      59.499  49.259  50.918  0.00  0.00     0.075 A 
ATOM     14  C   UNL d   1      59.351  49.559  50.160  0.00  0.00     0.020 A 
ATOM     15  C   UNL d   1      58.573  49.705  49.926  0.00  0.00     0.021 A 
ATOM     16  C   UNL d   1      57.944  49.552  50.449  0.00  0.00     0.094 A 
ATOM     17  C   UNL d   1      58.101  49.254  51.203  0.00  0.00     0.021 A 
ATOM     18  C   UNL d   1      58.876  49.109  51.435  0.00  0.00     0.020 A 
BRANCH  16  19
ATOM     19  N   UNL d   1      57.164  49.700  50.212  0.00  0.00    -0.162 NA
BRANCH  19  20
ATOM     20  S   UNL d   1      56.673  49.071  49.970  0.00  0.00     0.266 S 
ATOM     21  O   UNL d   1      56.417  48.515  50.519  0.00  0.00    -0.203 OA
ATOM     22  O   UNL d   1      56.935  49.638  49.417  0.00  0.00    -0.203 OA
ATOM     23  C   UNL d   1      56.444  49.009  49.176  0.00  0.00     0.165 C 
ENDBRANCH  19  20
ENDBRANCH  16  19
ENDBRANCH   1  13
TORSDOF 5
ENDMDL
