MODEL 1
REMARK VINA RESULT:       9.6      0.000      0.000
REMARK  4 active torsions:
REMARK  status: ('A' for Active; 'I' for Inactive)
REMARK    1  A    between atoms: C_5  and  C_2 
REMARK    2  A    between atoms: C_7  and  C_5 
REMARK       I    between atoms: N_9  and  C_7 
REMARK    3  A    between atoms: C_8  and  C_10 
REMARK    4  A    between atoms: C_17  and  N_9 
ROOT
ATOM      1  C   UNL d   1      45.983 -16.729  44.398  0.00  0.00     0.280 C 
ATOM      2  N   UNL d   1      45.514 -16.348  44.955  0.00  0.00    -0.208 NA
ATOM      3  O   UNL d   1      46.349 -16.295  43.802  0.00  0.00    -0.265 OA
ENDROOT
BRANCH   1   4
ATOM      4  C   UNL d   1      46.090 -17.549  44.434  0.00  0.00     0.074 C 
BRANCH   4   5
ATOM      5  C   UNL d   1      46.260 -18.105  43.857  0.00  0.00     0.097 A 
ATOM      6  C   UNL d   1      46.424 -18.903  43.986  0.00  0.00     0.288 A 
ATOM      7  N   UNL d   1      46.564 -19.259  43.259  0.00  0.00    -0.163 NA
ATOM      8  O   UNL d   1      46.442 -19.270  44.722  0.00  0.00    -0.265 OA
ATOM      9  C   UNL d   1      46.488 -18.682  42.673  0.00  0.00     0.313 A 
ATOM     10  S   UNL d   1      46.300 -17.971  43.041  0.00  0.00    -0.021 SA
ATOM     11  O   UNL d   1      46.580 -18.793  41.867  0.00  0.00    -0.258 OA
ENDBRANCH   4   5
ENDBRANCH   1   4
BRANCH   2  12
ATOM     12  C   UNL d   1      45.537 -15.549  44.747  0.00  0.00     0.085 A 
ATOM     13  C   UNL d   1      46.217 -15.114  44.870  0.00  0.00     0.019 A 
ATOM     14  C   UNL d   1      46.245 -14.315  44.664  0.00  0.00     0.008 A 
ATOM     15  C   UNL d   1      45.577 -13.951  44.329  0.00  0.00     0.065 A 
ATOM     16  C   UNL d   1      44.885 -14.399  44.205  0.00  0.00     0.008 A 
ATOM     17  C   UNL d   1      44.868 -15.193  44.413  0.00  0.00     0.019 A 
BRANCH  15  18
ATOM     18  C   UNL d   1      45.599 -13.158  44.122  0.00  0.00     0.211 C 
ATOM     19  O   UNL d   1      45.265 -12.908  43.410  0.00  0.00    -0.644 OA
ATOM     20  O   UNL d   1      45.955 -12.606  44.624  0.00  0.00    -0.644 OA
ENDBRANCH  15  18
ENDBRANCH   2  12
TORSDOF 4
ENDMDL
