MODEL 1
REMARK VINA RESULT:      -6.2      0.000      0.000
REMARK  7 active torsions:
REMARK  status: ('A' for Active; 'I' for Inactive)
REMARK    1  A    between atoms: C_5  and  N_1 
REMARK    2  A    between atoms: C_2  and  N_6 
REMARK    3  A    between atoms: N_16  and  C_2 
REMARK    4  A    between atoms: C_3  and  C_9 
REMARK       I    between atoms: N_4  and  C_3 
REMARK    5  A    between atoms: N_6  and  N_4 
REMARK    6  A    between atoms: C_19  and  N_16 
REMARK    7  A    between atoms: C_17  and  C_19 
ROOT
ATOM      1  C   UNL d   1     -47.028  13.622  22.893  0.00  0.00     0.297 C 
ATOM      2  N   UNL d   1     -46.935  12.878  23.238  0.00  0.00    -0.103 NA
ATOM      3  O   UNL d   1     -46.365  14.076  22.699  0.00  0.00    -0.264 OA
ENDROOT
BRANCH   1   4
ATOM      4  C   UNL d   1     -47.808  13.909  22.742  0.00  0.00     0.059 A 
ATOM      5  C   UNL d   1     -48.230  13.659  22.080  0.00  0.00     0.006 A 
ATOM      6  C   UNL d   1     -48.989  13.947  21.946  0.00  0.00     0.024 A 
ATOM      7  C   UNL d   1     -49.329  14.484  22.469  0.00  0.00     0.127 A 
ATOM      8  C   UNL d   1     -48.907  14.734  23.131  0.00  0.00     0.024 A 
ATOM      9  C   UNL d   1     -48.144  14.448  23.272  0.00  0.00     0.006 A 
BRANCH   7  10
ATOM     10  N   UNL d   1     -50.092  14.761  22.317  0.00  0.00    -0.114 N 
ATOM     11  O   UNL d   1     -50.738  14.252  22.431  0.00  0.00    -0.532 OA
ATOM     12  O   UNL d   1     -50.223  15.530  22.055  0.00  0.00    -0.532 OA
ENDBRANCH   7  10
ENDBRANCH   1   4
BRANCH   2  13
ATOM     13  N   UNL d   1     -46.177  12.588  23.389  0.00  0.00    -0.114 NA
BRANCH  13  14
ATOM     14  C   UNL d   1     -46.076  11.797  23.587  0.00  0.00     0.241 C 
ATOM     15  S   UNL d   1     -46.746  11.293  23.677  0.00  0.00    -0.035 SA
BRANCH  14  16
ATOM     16  N   UNL d   1     -45.315  11.497  23.697  0.00  0.00    -0.215 NA
BRANCH  16  17
ATOM     17  C   UNL d   1     -45.192  10.689  23.668  0.00  0.00     0.102 C 
BRANCH  17  18
ATOM     18  C   UNL d   1     -44.423  10.397  23.599  0.00  0.00     0.021 C 
ATOM     19  C   UNL d   1     -44.287   9.585  23.653  0.00  0.00     0.002 C 
ENDBRANCH  17  18
ENDBRANCH  16  17
ENDBRANCH  14  16
ENDBRANCH  13  14
ENDBRANCH   2  13
TORSDOF 7
ENDMDL
MODEL 2
REMARK VINA RESULT:      -6.1      2.145      4.756
REMARK  7 active torsions:
REMARK  status: ('A' for Active; 'I' for Inactive)
REMARK    1  A    between atoms: C_5  and  N_1 
REMARK    2  A    between atoms: C_2  and  N_6 
REMARK    3  A    between atoms: N_16  and  C_2 
REMARK    4  A    between atoms: C_3  and  C_9 
REMARK       I    between atoms: N_4  and  C_3 
REMARK    5  A    between atoms: N_6  and  N_4 
REMARK    6  A    between atoms: C_19  and  N_16 
REMARK    7  A    between atoms: C_17  and  C_19 
ROOT
ATOM      1  C   UNL d   1     -47.427  14.401  22.814  0.00  0.00     0.297 C 
ATOM      2  N   UNL d   1     -48.247  14.428  22.902  0.00  0.00    -0.103 NA
ATOM      3  O   UNL d   1     -47.012  15.075  22.574  0.00  0.00    -0.264 OA
ENDROOT
BRANCH   1   4
ATOM      4  C   UNL d   1     -47.022  13.677  22.971  0.00  0.00     0.059 A 
ATOM      5  C   UNL d   1     -47.290  13.161  23.555  0.00  0.00     0.006 A 
ATOM      6  C   UNL d   1     -46.885  12.459  23.698  0.00  0.00     0.024 A 
ATOM      7  C   UNL d   1     -46.214  12.269  23.262  0.00  0.00     0.127 A 
ATOM      8  C   UNL d   1     -45.946  12.785  22.678  0.00  0.00     0.024 A 
ATOM      9  C   UNL d   1     -46.348  13.492  22.529  0.00  0.00     0.006 A 
BRANCH   7  10
ATOM     10  N   UNL d   1     -45.822  11.559  23.420  0.00  0.00    -0.114 N 
ATOM     11  O   UNL d   1     -46.259  10.909  23.694  0.00  0.00    -0.532 OA
ATOM     12  O   UNL d   1     -45.009  11.487  23.312  0.00  0.00    -0.532 OA
ENDBRANCH   7  10
ENDBRANCH   1   4
BRANCH   2  13
ATOM     13  N   UNL d   1     -48.652  15.131  22.750  0.00  0.00    -0.114 NA
BRANCH  13  14
ATOM     14  C   UNL d   1     -49.474  15.135  22.754  0.00  0.00     0.241 C 
ATOM     15  S   UNL d   1     -49.894  15.510  23.382  0.00  0.00    -0.035 SA
BRANCH  14  16
ATOM     16  N   UNL d   1     -49.887  14.770  22.140  0.00  0.00    -0.215 NA
BRANCH  16  17
ATOM     17  C   UNL d   1     -50.610  14.418  22.294  0.00  0.00     0.102 C 
BRANCH  17  18
ATOM     18  C   UNL d   1     -51.064  14.132  21.667  0.00  0.00     0.021 C 
ATOM     19  C   UNL d   1     -51.006  13.339  21.446  0.00  0.00     0.002 C 
ENDBRANCH  17  18
ENDBRANCH  16  17
ENDBRANCH  14  16
ENDBRANCH  13  14
ENDBRANCH   2  13
TORSDOF 7
ENDMDL
MODEL 3
REMARK VINA RESULT:      -6.0      1.453      1.626
REMARK  7 active torsions:
REMARK  status: ('A' for Active; 'I' for Inactive)
REMARK    1  A    between atoms: C_5  and  N_1 
REMARK    2  A    between atoms: C_2  and  N_6 
REMARK    3  A    between atoms: N_16  and  C_2 
REMARK    4  A    between atoms: C_3  and  C_9 
REMARK       I    between atoms: N_4  and  C_3 
REMARK    5  A    between atoms: N_6  and  N_4 
REMARK    6  A    between atoms: C_19  and  N_16 
REMARK    7  A    between atoms: C_17  and  C_19 
ROOT
ATOM      1  C   UNL d   1     -48.718  12.095  22.954  0.00  0.00     0.297 C 
ATOM      2  N   UNL d   1     -47.915  12.186  23.120  0.00  0.00    -0.103 NA
ATOM      3  O   UNL d   1     -49.069  11.348  23.003  0.00  0.00    -0.264 OA
ENDROOT
BRANCH   1   4
ATOM      4  C   UNL d   1     -49.171  12.772  22.734  0.00  0.00     0.059 A 
ATOM      5  C   UNL d   1     -49.552  13.229  23.305  0.00  0.00     0.006 A 
ATOM      6  C   UNL d   1     -49.990  13.887  23.076  0.00  0.00     0.024 A 
ATOM      7  C   UNL d   1     -50.050  14.092  22.282  0.00  0.00     0.127 A 
ATOM      8  C   UNL d   1     -49.670  13.635  21.711  0.00  0.00     0.024 A 
ATOM      9  C   UNL d   1     -49.228  12.973  21.934  0.00  0.00     0.006 A 
BRANCH   7  10
ATOM     10  N   UNL d   1     -50.495  14.756  22.073  0.00  0.00    -0.114 N 
ATOM     11  O   UNL d   1     -50.364  15.472  22.473  0.00  0.00    -0.532 OA
ATOM     12  O   UNL d   1     -51.063  14.721  21.478  0.00  0.00    -0.532 OA
ENDBRANCH   7  10
ENDBRANCH   1   4
BRANCH   2  13
ATOM     13  N   UNL d   1     -47.463  11.530  23.335  0.00  0.00    -0.114 NA
BRANCH  13  14
ATOM     14  C   UNL d   1     -46.651  11.609  23.432  0.00  0.00     0.241 C 
ATOM     15  S   UNL d   1     -46.273  12.345  23.267  0.00  0.00    -0.035 SA
BRANCH  14  16
ATOM     16  N   UNL d   1     -46.206  10.964  23.691  0.00  0.00    -0.215 NA
BRANCH  16  17
ATOM     17  C   UNL d   1     -45.429  10.885  23.445  0.00  0.00     0.102 C 
BRANCH  17  18
ATOM     18  C   UNL d   1     -45.008  10.203  23.640  0.00  0.00     0.021 C 
ATOM     19  C   UNL d   1     -44.185  10.230  23.695  0.00  0.00     0.002 C 
ENDBRANCH  17  18
ENDBRANCH  16  17
ENDBRANCH  14  16
ENDBRANCH  13  14
ENDBRANCH   2  13
TORSDOF 7
ENDMDL
MODEL 4
REMARK VINA RESULT:      -6.0      2.404      5.102
REMARK  7 active torsions:
REMARK  status: ('A' for Active; 'I' for Inactive)
REMARK    1  A    between atoms: C_5  and  N_1 
REMARK    2  A    between atoms: C_2  and  N_6 
REMARK    3  A    between atoms: N_16  and  C_2 
REMARK    4  A    between atoms: C_3  and  C_9 
REMARK       I    between atoms: N_4  and  C_3 
REMARK    5  A    between atoms: N_6  and  N_4 
REMARK    6  A    between atoms: C_19  and  N_16 
REMARK    7  A    between atoms: C_17  and  C_19 
ROOT
ATOM      1  C   UNL d   1     -49.255  11.944  23.239  0.00  0.00     0.297 C 
ATOM      2  N   UNL d   1     -49.573  12.628  22.906  0.00  0.00    -0.103 NA
ATOM      3  O   UNL d   1     -49.755  11.343  23.509  0.00  0.00    -0.264 OA
ENDROOT
BRANCH   1   4
ATOM      4  C   UNL d   1     -48.416  11.868  23.299  0.00  0.00     0.059 A 
ATOM      5  C   UNL d   1     -48.035  11.179  23.056  0.00  0.00     0.006 A 
ATOM      6  C   UNL d   1     -47.217  11.119  23.120  0.00  0.00     0.024 A 
ATOM      7  C   UNL d   1     -46.777  11.743  23.426  0.00  0.00     0.127 A 
ATOM      8  C   UNL d   1     -47.157  12.433  23.669  0.00  0.00     0.024 A 
ATOM      9  C   UNL d   1     -47.979  12.499  23.607  0.00  0.00     0.006 A 
BRANCH   7  10
ATOM     10  N   UNL d   1     -45.956  11.664  23.482  0.00  0.00    -0.114 N 
ATOM     11  O   UNL d   1     -45.475  12.322  23.326  0.00  0.00    -0.532 OA
ATOM     12  O   UNL d   1     -45.610  10.947  23.689  0.00  0.00    -0.532 OA
ENDBRANCH   7  10
ENDBRANCH   1   4
BRANCH   2  13
ATOM     13  N   UNL d   1     -50.391  12.712  22.842  0.00  0.00    -0.114 NA
BRANCH  13  14
ATOM     14  C   UNL d   1     -50.706  13.396  22.512  0.00  0.00     0.241 C 
ATOM     15  S   UNL d   1     -50.681  13.515  21.678  0.00  0.00    -0.035 SA
BRANCH  14  16
ATOM     16  N   UNL d   1     -51.047  13.966  23.002  0.00  0.00    -0.215 NA
BRANCH  16  17
ATOM     17  C   UNL d   1     -50.817  14.748  22.931  0.00  0.00     0.102 C 
BRANCH  17  18
ATOM     18  C   UNL d   1     -51.037  15.291  23.513  0.00  0.00     0.021 C 
ATOM     19  C   UNL d   1     -50.535  15.920  23.696  0.00  0.00     0.002 C 
ENDBRANCH  17  18
ENDBRANCH  16  17
ENDBRANCH  14  16
ENDBRANCH  13  14
ENDBRANCH   2  13
TORSDOF 7
ENDMDL
MODEL 5
REMARK VINA RESULT:      -6.0      2.070      4.632
REMARK  7 active torsions:
REMARK  status: ('A' for Active; 'I' for Inactive)
REMARK    1  A    between atoms: C_5  and  N_1 
REMARK    2  A    between atoms: C_2  and  N_6 
REMARK    3  A    between atoms: N_16  and  C_2 
REMARK    4  A    between atoms: C_3  and  C_9 
REMARK       I    between atoms: N_4  and  C_3 
REMARK    5  A    between atoms: N_6  and  N_4 
REMARK    6  A    between atoms: C_19  and  N_16 
REMARK    7  A    between atoms: C_17  and  C_19 
ROOT
ATOM      1  C   UNL d   1     -47.186  13.864  22.669  0.00  0.00     0.297 C 
ATOM      2  N   UNL d   1     -47.929  13.544  22.506  0.00  0.00    -0.103 NA
ATOM      3  O   UNL d   1     -47.103  14.676  22.801  0.00  0.00    -0.264 OA
ENDROOT
BRANCH   1   4
ATOM      4  C   UNL d   1     -46.516  13.350  22.699  0.00  0.00     0.059 A 
ATOM      5  C   UNL d   1     -45.866  13.474  22.209  0.00  0.00     0.006 A 
ATOM      6  C   UNL d   1     -45.220  12.965  22.249  0.00  0.00     0.024 A 
ATOM      7  C   UNL d   1     -45.221  12.333  22.776  0.00  0.00     0.127 A 
ATOM      8  C   UNL d   1     -45.871  12.208  23.266  0.00  0.00     0.024 A 
ATOM      9  C   UNL d   1     -46.523  12.716  23.231  0.00  0.00     0.006 A 
BRANCH   7  10
ATOM     10  N   UNL d   1     -44.563  11.833  22.801  0.00  0.00    -0.114 N 
ATOM     11  O   UNL d   1     -44.578  11.170  23.300  0.00  0.00    -0.532 OA
ATOM     12  O   UNL d   1     -43.897  11.981  22.341  0.00  0.00    -0.532 OA
ENDBRANCH   7  10
ENDBRANCH   1   4
BRANCH   2  13
ATOM     13  N   UNL d   1     -48.590  14.038  22.475  0.00  0.00    -0.114 NA
BRANCH  13  14
ATOM     14  C   UNL d   1     -49.336  13.712  22.366  0.00  0.00     0.241 C 
ATOM     15  S   UNL d   1     -49.662  13.646  21.592  0.00  0.00    -0.035 SA
BRANCH  14  16
ATOM     16  N   UNL d   1     -49.766  13.450  23.021  0.00  0.00    -0.215 NA
BRANCH  16  17
ATOM     17  C   UNL d   1     -50.405  12.952  22.909  0.00  0.00     0.102 C 
BRANCH  17  18
ATOM     18  C   UNL d   1     -50.880  12.750  23.553  0.00  0.00     0.021 C 
ATOM     19  C   UNL d   1     -51.062  11.958  23.697  0.00  0.00     0.002 C 
ENDBRANCH  17  18
ENDBRANCH  16  17
ENDBRANCH  14  16
ENDBRANCH  13  14
ENDBRANCH   2  13
TORSDOF 7
ENDMDL
MODEL 6
REMARK VINA RESULT:      -5.8      1.633      1.705
REMARK  7 active torsions:
REMARK  status: ('A' for Active; 'I' for Inactive)
REMARK    1  A    between atoms: C_5  and  N_1 
REMARK    2  A    between atoms: C_2  and  N_6 
REMARK    3  A    between atoms: N_16  and  C_2 
REMARK    4  A    between atoms: C_3  and  C_9 
REMARK       I    between atoms: N_4  and  C_3 
REMARK    5  A    between atoms: N_6  and  N_4 
REMARK    6  A    between atoms: C_19  and  N_16 
REMARK    7  A    between atoms: C_17  and  C_19 
ROOT
ATOM      1  C   UNL d   1     -47.346  14.664  22.642  0.00  0.00     0.297 C 
ATOM      2  N   UNL d   1     -46.968  13.931  22.666  0.00  0.00    -0.103 NA
ATOM      3  O   UNL d   1     -46.906  15.360  22.715  0.00  0.00    -0.264 OA
ENDROOT
BRANCH   1   4
ATOM      4  C   UNL d   1     -48.184  14.690  22.542  0.00  0.00     0.059 A 
ATOM      5  C   UNL d   1     -48.562  14.189  22.008  0.00  0.00     0.006 A 
ATOM      6  C   UNL d   1     -49.379  14.226  21.922  0.00  0.00     0.024 A 
ATOM      7  C   UNL d   1     -49.822  14.759  22.365  0.00  0.00     0.127 A 
ATOM      8  C   UNL d   1     -49.444  15.260  22.899  0.00  0.00     0.024 A 
ATOM      9  C   UNL d   1     -48.623  15.229  22.991  0.00  0.00     0.006 A 
BRANCH   7  10
ATOM     10  N   UNL d   1     -50.641  14.780  22.263  0.00  0.00    -0.114 N 
ATOM     11  O   UNL d   1     -51.046  14.075  22.095  0.00  0.00    -0.532 OA
ATOM     12  O   UNL d   1     -51.062  15.485  22.325  0.00  0.00    -0.532 OA
ENDBRANCH   7  10
ENDBRANCH   1   4
BRANCH   2  13
ATOM     13  N   UNL d   1     -46.149  13.894  22.763  0.00  0.00    -0.114 NA
BRANCH  13  14
ATOM     14  C   UNL d   1     -45.750  13.197  22.591  0.00  0.00     0.241 C 
ATOM     15  S   UNL d   1     -45.885  12.505  23.054  0.00  0.00    -0.035 SA
BRANCH  14  16
ATOM     16  N   UNL d   1     -45.215  13.177  21.963  0.00  0.00    -0.215 NA
BRANCH  16  17
ATOM     17  C   UNL d   1     -44.501  12.786  22.053  0.00  0.00     0.102 C 
BRANCH  17  18
ATOM     18  C   UNL d   1     -43.927  12.849  21.464  0.00  0.00     0.021 C 
ATOM     19  C   UNL d   1     -43.179  12.520  21.584  0.00  0.00     0.002 C 
ENDBRANCH  17  18
ENDBRANCH  16  17
ENDBRANCH  14  16
ENDBRANCH  13  14
ENDBRANCH   2  13
TORSDOF 7
ENDMDL
MODEL 7
REMARK VINA RESULT:      -5.5      8.513      9.845
REMARK  7 active torsions:
REMARK  status: ('A' for Active; 'I' for Inactive)
REMARK    1  A    between atoms: C_5  and  N_1 
REMARK    2  A    between atoms: C_2  and  N_6 
REMARK    3  A    between atoms: N_16  and  C_2 
REMARK    4  A    between atoms: C_3  and  C_9 
REMARK       I    between atoms: N_4  and  C_3 
REMARK    5  A    between atoms: N_6  and  N_4 
REMARK    6  A    between atoms: C_19  and  N_16 
REMARK    7  A    between atoms: C_17  and  C_19 
ROOT
ATOM      1  C   UNL d   1     -40.230  14.110  18.367  0.00  0.00     0.297 C 
ATOM      2  N   UNL d   1     -39.955  14.411  19.085  0.00  0.00    -0.103 NA
ATOM      3  O   UNL d   1     -40.973  13.749  18.327  0.00  0.00    -0.264 OA
ENDROOT
BRANCH   1   4
ATOM      4  C   UNL d   1     -39.744  14.177  17.681  0.00  0.00     0.059 A 
ATOM      5  C   UNL d   1     -39.840  14.804  17.154  0.00  0.00     0.006 A 
ATOM      6  C   UNL d   1     -39.358  14.856  16.489  0.00  0.00     0.024 A 
ATOM      7  C   UNL d   1     -38.782  14.287  16.346  0.00  0.00     0.127 A 
ATOM      8  C   UNL d   1     -38.686  13.660  16.873  0.00  0.00     0.024 A 
ATOM      9  C   UNL d   1     -39.166  13.602  17.543  0.00  0.00     0.006 A 
BRANCH   7  10
ATOM     10  N   UNL d   1     -38.308  14.358  15.673  0.00  0.00    -0.114 N 
ATOM     11  O   UNL d   1     -37.941  15.085  15.512  0.00  0.00    -0.532 OA
ATOM     12  O   UNL d   1     -38.196  13.723  15.161  0.00  0.00    -0.532 OA
ENDBRANCH   7  10
ENDBRANCH   1   4
BRANCH   2  13
ATOM     13  N   UNL d   1     -40.423  14.350  19.762  0.00  0.00    -0.114 NA
BRANCH  13  14
ATOM     14  C   UNL d   1     -40.146  14.649  20.476  0.00  0.00     0.241 C 
ATOM     15  S   UNL d   1     -40.500  15.335  20.815  0.00  0.00    -0.035 SA
BRANCH  14  16
ATOM     16  N   UNL d   1     -39.519  14.274  20.860  0.00  0.00    -0.215 NA
BRANCH  16  17
ATOM     17  C   UNL d   1     -39.578  14.104  21.658  0.00  0.00     0.102 C 
BRANCH  17  18
ATOM     18  C   UNL d   1     -39.000  13.639  22.019  0.00  0.00     0.021 C 
ATOM     19  C   UNL d   1     -38.991  13.560  22.840  0.00  0.00     0.002 C 
ENDBRANCH  17  18
ENDBRANCH  16  17
ENDBRANCH  14  16
ENDBRANCH  13  14
ENDBRANCH   2  13
TORSDOF 7
ENDMDL
MODEL 8
REMARK VINA RESULT:      -5.3      2.421      2.787
REMARK  7 active torsions:
REMARK  status: ('A' for Active; 'I' for Inactive)
REMARK    1  A    between atoms: C_5  and  N_1 
REMARK    2  A    between atoms: C_2  and  N_6 
REMARK    3  A    between atoms: N_16  and  C_2 
REMARK    4  A    between atoms: C_3  and  C_9 
REMARK       I    between atoms: N_4  and  C_3 
REMARK    5  A    between atoms: N_6  and  N_4 
REMARK    6  A    between atoms: C_19  and  N_16 
REMARK    7  A    between atoms: C_17  and  C_19 
ROOT
ATOM      1  C   UNL d   1     -46.410  13.074  22.958  0.00  0.00     0.297 C 
ATOM      2  N   UNL d   1     -45.803  12.620  22.633  0.00  0.00    -0.103 NA
ATOM      3  O   UNL d   1     -46.256  13.841  23.228  0.00  0.00    -0.264 OA
ENDROOT
BRANCH   1   4
ATOM      4  C   UNL d   1     -47.186  12.745  23.010  0.00  0.00     0.059 A 
ATOM      5  C   UNL d   1     -47.409  12.291  23.660  0.00  0.00     0.006 A 
ATOM      6  C   UNL d   1     -48.169  11.976  23.698  0.00  0.00     0.024 A 
ATOM      7  C   UNL d   1     -48.706  12.111  23.089  0.00  0.00     0.127 A 
ATOM      8  C   UNL d   1     -48.482  12.565  22.439  0.00  0.00     0.024 A 
ATOM      9  C   UNL d   1     -47.721  12.885  22.395  0.00  0.00     0.006 A 
BRANCH   7  10
ATOM     10  N   UNL d   1     -49.463  11.786  23.146  0.00  0.00    -0.114 N 
ATOM     11  O   UNL d   1     -50.117  12.240  22.907  0.00  0.00    -0.532 OA
ATOM     12  O   UNL d   1     -49.581  11.024  23.433  0.00  0.00    -0.532 OA
ENDBRANCH   7  10
ENDBRANCH   1   4
BRANCH   2  13
ATOM     13  N   UNL d   1     -45.041  12.933  22.577  0.00  0.00    -0.114 NA
BRANCH  13  14
ATOM     14  C   UNL d   1     -44.436  12.477  22.258  0.00  0.00     0.241 C 
ATOM     15  S   UNL d   1     -44.231  11.738  22.608  0.00  0.00    -0.035 SA
BRANCH  14  16
ATOM     16  N   UNL d   1     -44.030  12.747  21.591  0.00  0.00    -0.215 NA
BRANCH  16  17
ATOM     17  C   UNL d   1     -43.212  12.770  21.600  0.00  0.00     0.102 C 
BRANCH  17  18
ATOM     18  C   UNL d   1     -42.809  13.103  20.961  0.00  0.00     0.021 C 
ATOM     19  C   UNL d   1     -42.048  13.404  21.070  0.00  0.00     0.002 C 
ENDBRANCH  17  18
ENDBRANCH  16  17
ENDBRANCH  14  16
ENDBRANCH  13  14
ENDBRANCH   2  13
TORSDOF 7
ENDMDL
MODEL 9
REMARK VINA RESULT:      -5.1      8.923      9.952
REMARK  7 active torsions:
REMARK  status: ('A' for Active; 'I' for Inactive)
REMARK    1  A    between atoms: C_5  and  N_1 
REMARK    2  A    between atoms: C_2  and  N_6 
REMARK    3  A    between atoms: N_16  and  C_2 
REMARK    4  A    between atoms: C_3  and  C_9 
REMARK       I    between atoms: N_4  and  C_3 
REMARK    5  A    between atoms: N_6  and  N_4 
REMARK    6  A    between atoms: C_19  and  N_16 
REMARK    7  A    between atoms: C_17  and  C_19 
ROOT
ATOM      1  C   UNL d   1     -40.234  14.643  17.972  0.00  0.00     0.297 C 
ATOM      2  N   UNL d   1     -39.572  14.825  17.513  0.00  0.00    -0.103 NA
ATOM      3  O   UNL d   1     -40.869  14.232  17.639  0.00  0.00    -0.264 OA
ENDROOT
BRANCH   1   4
ATOM      4  C   UNL d   1     -40.250  14.883  18.781  0.00  0.00     0.059 A 
ATOM      5  C   UNL d   1     -40.580  15.605  19.002  0.00  0.00     0.006 A 
ATOM      6  C   UNL d   1     -40.589  15.825  19.794  0.00  0.00     0.024 A 
ATOM      7  C   UNL d   1     -40.270  15.329  20.368  0.00  0.00     0.127 A 
ATOM      8  C   UNL d   1     -39.940  14.607  20.148  0.00  0.00     0.024 A 
ATOM      9  C   UNL d   1     -39.928  14.380  19.353  0.00  0.00     0.006 A 
BRANCH   7  10
ATOM     10  N   UNL d   1     -40.289  15.569  21.159  0.00  0.00    -0.114 N 
ATOM     11  O   UNL d   1     -39.614  15.921  21.490  0.00  0.00    -0.532 OA
ATOM     12  O   UNL d   1     -40.962  15.466  21.621  0.00  0.00    -0.532 OA
ENDBRANCH   7  10
ENDBRANCH   1   4
BRANCH   2  13
ATOM     13  N   UNL d   1     -39.547  14.595  16.721  0.00  0.00    -0.114 NA
BRANCH  13  14
ATOM     14  C   UNL d   1     -38.877  14.756  16.272  0.00  0.00     0.241 C 
ATOM     15  S   UNL d   1     -38.637  15.553  16.139  0.00  0.00    -0.035 SA
BRANCH  14  16
ATOM     16  N   UNL d   1     -38.440  14.133  15.952  0.00  0.00    -0.215 NA
BRANCH  16  17
ATOM     17  C   UNL d   1     -38.320  14.098  15.144  0.00  0.00     0.102 C 
BRANCH  17  18
ATOM     18  C   UNL d   1     -37.940  13.443  14.817  0.00  0.00     0.021 C 
ATOM     19  C   UNL d   1     -37.956  13.324  14.000  0.00  0.00     0.002 C 
ENDBRANCH  17  18
ENDBRANCH  16  17
ENDBRANCH  14  16
ENDBRANCH  13  14
ENDBRANCH   2  13
TORSDOF 7
ENDMDL
