MODEL 1
REMARK VINA RESULT:      -2.3      0.000      0.000
REMARK  2 active torsions:
REMARK  status: ('A' for Active; 'I' for Inactive)
REMARK    1  A    between atoms: N_9  and  C_3 
REMARK    2  A    between atoms: C_11  and  C_4 
ROOT
ATOM      1  N   UNL d   1     -41.831-122.460 -52.153  0.00  0.00    -0.196 N 
ATOM      2  C   UNL d   1     -41.771-122.390 -51.307  0.00  0.00     0.167 A 
ATOM      3  C   UNL d   1     -41.658-121.817 -52.609  0.00  0.00     0.152 A 
ATOM      4  C   UNL d   1     -41.941-123.027 -50.833  0.00  0.00     0.057 A 
ATOM      5  N   UNL d   1     -42.231-123.817 -52.000  0.00  0.00    -0.161 NA
ATOM      6  N   UNL d   1     -41.543-121.681 -50.972  0.00  0.00    -0.227 NA
ATOM      7  C   UNL d   1     -41.427-121.097 -52.281  0.00  0.00     0.057 A 
ATOM      8  C   UNL d   1     -42.174-123.749 -51.179  0.00  0.00     0.124 A 
ATOM      9  C   UNL d   1     -41.368-121.028 -51.448  0.00  0.00     0.086 A 
ATOM     10  C   UNL d   1     -41.128-120.281 -51.096  0.00  0.00     0.021 C 
ENDROOT
BRANCH   4  11
ATOM     11  C   UNL d   1     -41.883-122.959 -50.013  0.00  0.00     0.005 A 
ATOM     12  C   UNL d   1     -42.530-122.718 -49.580  0.00  0.00     0.001 A 
ATOM     13  C   UNL d   1     -42.474-122.651 -48.773  0.00  0.00     0.011 A 
ATOM     14  C   UNL d   1     -41.769-122.824 -48.386  0.00  0.00     0.058 A 
ATOM     15  C   UNL d   1     -41.123-123.065 -48.820  0.00  0.00     0.011 A 
ATOM     16 CL   UNL d   1     -41.709-122.753 -47.526  0.00  0.00    -0.082 Cl
ATOM     17  C   UNL d   1     -41.180-123.133 -49.640  0.00  0.00     0.001 A 
ENDBRANCH   4  11
BRANCH   3  18
ATOM     18  N   UNL d   1     -41.717-121.884 -53.464  0.00  0.00    -0.289 N 
ATOM     19  C   UNL d   1     -41.127-122.323 -53.906  0.00  0.00     0.082 A 
ATOM     20  C   UNL d   1     -41.182-122.391 -54.753  0.00  0.00     0.019 A 
ATOM     21  C   UNL d   1     -41.835-122.017 -55.175  0.00  0.00     0.003 A 
ATOM     22  C   UNL d   1     -42.423-121.577 -54.725  0.00  0.00     0.019 A 
ATOM     23  C   UNL d   1     -42.368-121.509 -53.878  0.00  0.00     0.082 A 
ENDBRANCH   3  18
TORSDOF 2
ENDMDL
MODEL 2
REMARK VINA RESULT:      -1.7      1.921      4.337
REMARK  2 active torsions:
REMARK  status: ('A' for Active; 'I' for Inactive)
REMARK    1  A    between atoms: N_9  and  C_3 
REMARK    2  A    between atoms: C_11  and  C_4 
ROOT
ATOM      1  N   UNL d   1     -41.885-122.578 -51.583  0.00  0.00    -0.196 N 
ATOM      2  C   UNL d   1     -41.797-122.258 -52.366  0.00  0.00     0.167 A 
ATOM      3  C   UNL d   1     -41.720-122.106 -50.949  0.00  0.00     0.152 A 
ATOM      4  C   UNL d   1     -41.959-122.719 -53.014  0.00  0.00     0.057 A 
ATOM      5  N   UNL d   1     -42.296-123.817 -52.149  0.00  0.00    -0.161 NA
ATOM      6  N   UNL d   1     -41.550-121.486 -52.465  0.00  0.00    -0.227 NA
ATOM      7  C   UNL d   1     -41.470-121.325 -51.038  0.00  0.00     0.057 A 
ATOM      8  C   UNL d   1     -42.211-123.507 -52.909  0.00  0.00     0.124 A 
ATOM      9  C   UNL d   1     -41.383-121.010 -51.809  0.00  0.00     0.086 A 
ATOM     10  C   UNL d   1     -41.123-120.197 -51.913  0.00  0.00     0.021 C 
ENDROOT
BRANCH   4  11
ATOM     11  C   UNL d   1     -41.873-122.408 -53.774  0.00  0.00     0.005 A 
ATOM     12  C   UNL d   1     -42.432-121.891 -54.065  0.00  0.00     0.001 A 
ATOM     13  C   UNL d   1     -42.348-121.586 -54.813  0.00  0.00     0.011 A 
ATOM     14  C   UNL d   1     -41.704-121.793 -55.280  0.00  0.00     0.058 A 
ATOM     15  C   UNL d   1     -41.146-122.310 -54.988  0.00  0.00     0.011 A 
ATOM     16 CL   UNL d   1     -41.615-121.467 -56.077  0.00  0.00    -0.082 Cl
ATOM     17  C   UNL d   1     -41.231-122.620 -54.229  0.00  0.00     0.001 A 
ENDBRANCH   4  11
BRANCH   3  18
ATOM     18  N   UNL d   1     -41.808-122.426 -50.156  0.00  0.00    -0.289 N 
ATOM     19  C   UNL d   1     -41.149-122.819 -49.772  0.00  0.00     0.082 A 
ATOM     20  C   UNL d   1     -41.232-123.137 -48.987  0.00  0.00     0.019 A 
ATOM     21  C   UNL d   1     -41.984-123.066 -48.569  0.00  0.00     0.003 A 
ATOM     22  C   UNL d   1     -42.641-122.670 -48.961  0.00  0.00     0.019 A 
ATOM     23  C   UNL d   1     -42.558-122.352 -49.746  0.00  0.00     0.082 A 
ENDBRANCH   3  18
TORSDOF 2
ENDMDL
