MODEL 1
REMARK VINA RESULT:       2.1      0.000      0.000
REMARK  5 active torsions:
REMARK  status: ('A' for Active; 'I' for Inactive)
REMARK    1  A    between atoms: C_9  and  C_3 
REMARK    2  A    between atoms: N_11  and  C_4 
REMARK    3  A    between atoms: C_17  and  N_11 
REMARK    4  A    between atoms: O_19  and  C_13 
REMARK    5  A    between atoms: O_20  and  C_15 
ROOT
ATOM      1  N   UNL d   1      57.279   0.283  32.055  0.00  0.00    -0.184 N 
ATOM      2  C   UNL d   1      57.971   0.234  31.587  0.00  0.00     0.168 A 
ATOM      3  C   UNL d   1      57.924   0.057  30.786  0.00  0.00     0.055 A 
ATOM      4  C   UNL d   1      57.348   0.461  32.856  0.00  0.00     0.218 A 
ATOM      5  N   UNL d   1      56.484  -0.026  30.912  0.00  0.00    -0.162 NA
ATOM      6  C   UNL d   1      57.176  -0.074  30.444  0.00  0.00     0.104 A 
ATOM      7  N   UNL d   1      58.718   0.366  31.929  0.00  0.00    -0.227 NA
ATOM      8  C   UNL d   1      58.081   0.594  33.208  0.00  0.00     0.071 A 
ATOM      9  C   UNL d   1      58.773   0.546  32.740  0.00  0.00     0.087 A 
ATOM     10  C   UNL d   1      57.115  -0.251  29.647  0.00  0.00     0.023 C 
ATOM     11  C   UNL d   1      59.546   0.682  33.096  0.00  0.00     0.021 C 
ENDROOT
BRANCH   3  12
ATOM     12  C   UNL d   1      58.605   0.010  30.325  0.00  0.00     0.007 A 
ATOM     13  C   UNL d   1      58.975  -0.721  30.223  0.00  0.00     0.026 A 
ATOM     14  C   UNL d   1      59.667  -0.769  29.755  0.00  0.00     0.116 A 
ATOM     15  C   UNL d   1      59.975  -0.086  29.398  0.00  0.00     0.116 A 
ATOM     16  C   UNL d   1      59.594   0.634  29.509  0.00  0.00     0.026 A 
ATOM     17  C   UNL d   1      58.905   0.682  29.975  0.00  0.00     0.002 A 
BRANCH  14  18
ATOM     18  O   UNL d   1      60.056  -1.510  29.642  0.00  0.00    -0.326 OA
ATOM     19  C   UNL d   1      59.620  -2.251  29.770  0.00  0.00     0.181 C 
ENDBRANCH  14  18
BRANCH  15  20
ATOM     20  O   UNL d   1      60.689  -0.136  28.915  0.00  0.00    -0.326 OA
ATOM     21  C   UNL d   1      61.044   0.592  28.609  0.00  0.00     0.181 C 
ENDBRANCH  15  20
ENDBRANCH   3  12
BRANCH   4  22
ATOM     22  N   UNL d   1      56.638   0.511  33.336  0.00  0.00    -0.383 NA
BRANCH  22  23
ATOM     23  C   UNL d   1      56.006   0.555  33.763  0.00  0.00     0.134 A 
ATOM     24  C   UNL d   1      55.321   0.528  33.424  0.00  0.00     0.032 A 
ATOM     25  C   UNL d   1      54.690   0.572  33.851  0.00  0.00     0.003 A 
ATOM     26  C   UNL d   1      55.426   0.669  34.943  0.00  0.00     0.003 A 
ATOM     27  C   UNL d   1      56.061   0.625  34.514  0.00  0.00     0.032 A 
ENDBRANCH  22  23
ENDBRANCH   4  22
TORSDOF 5
ENDMDL
MODEL 2
REMARK VINA RESULT:       4.4      1.335      2.289
REMARK  5 active torsions:
REMARK  status: ('A' for Active; 'I' for Inactive)
REMARK    1  A    between atoms: C_9  and  C_3 
REMARK    2  A    between atoms: N_11  and  C_4 
REMARK    3  A    between atoms: C_17  and  N_11 
REMARK    4  A    between atoms: O_19  and  C_13 
REMARK    5  A    between atoms: O_20  and  C_15 
ROOT
ATOM      1  N   UNL d   1      56.961  -0.142  32.770  0.00  0.00    -0.184 N 
ATOM      2  C   UNL d   1      57.178  -0.462  32.028  0.00  0.00     0.168 A 
ATOM      3  C   UNL d   1      57.864  -0.214  31.649  0.00  0.00     0.055 A 
ATOM      4  C   UNL d   1      56.271  -0.403  33.134  0.00  0.00     0.218 A 
ATOM      5  N   UNL d   1      58.126   0.682  32.755  0.00  0.00    -0.162 NA
ATOM      6  C   UNL d   1      58.342   0.361  32.013  0.00  0.00     0.104 A 
ATOM      7  N   UNL d   1      56.700  -1.038  31.664  0.00  0.00    -0.227 NA
ATOM      8  C   UNL d   1      55.787  -0.973  32.786  0.00  0.00     0.071 A 
ATOM      9  C   UNL d   1      56.003  -1.293  32.044  0.00  0.00     0.087 A 
ATOM     10  C   UNL d   1      59.028   0.617  31.646  0.00  0.00     0.023 C 
ATOM     11  C   UNL d   1      55.507  -1.888  31.668  0.00  0.00     0.021 C 
ENDROOT
BRANCH   3  12
ATOM     12  C   UNL d   1      58.077  -0.529  30.918  0.00  0.00     0.007 A 
ATOM     13  C   UNL d   1      57.886  -0.119  30.228  0.00  0.00     0.026 A 
ATOM     14  C   UNL d   1      58.103  -0.439  29.486  0.00  0.00     0.116 A 
ATOM     15  C   UNL d   1      58.506  -1.164  29.449  0.00  0.00     0.116 A 
ATOM     16  C   UNL d   1      58.689  -1.560  30.145  0.00  0.00     0.026 A 
ATOM     17  C   UNL d   1      58.473  -1.241  30.884  0.00  0.00     0.002 A 
BRANCH  14  18
ATOM     18  O   UNL d   1      57.914  -0.030  28.772  0.00  0.00    -0.326 OA
ATOM     19  C   UNL d   1      57.415   0.682  28.801  0.00  0.00     0.181 C 
ENDBRANCH  14  18
BRANCH  15  20
ATOM     20  O   UNL d   1      58.730  -1.494  28.683  0.00  0.00    -0.326 OA
ATOM     21  C   UNL d   1      59.022  -2.308  28.643  0.00  0.00     0.181 C 
ENDBRANCH  15  20
ENDBRANCH   3  12
BRANCH   4  22
ATOM     22  N   UNL d   1      56.048  -0.075  33.895  0.00  0.00    -0.383 NA
BRANCH  22  23
ATOM     23  C   UNL d   1      55.850   0.218  34.573  0.00  0.00     0.134 A 
ATOM     24  C   UNL d   1      55.117   0.389  34.708  0.00  0.00     0.032 A 
ATOM     25  C   UNL d   1      54.919   0.681  35.384  0.00  0.00     0.003 A 
ATOM     26  C   UNL d   1      56.177   0.629  35.783  0.00  0.00     0.003 A 
ATOM     27  C   UNL d   1      56.376   0.336  35.103  0.00  0.00     0.032 A 
ENDBRANCH  22  23
ENDBRANCH   4  22
TORSDOF 5
ENDMDL
