MODEL 1
REMARK VINA RESULT:      45.9      0.000      0.000
REMARK  5 active torsions:
REMARK  status: ('A' for Active; 'I' for Inactive)
REMARK    1  A    between atoms: N_10  and  C_3 
REMARK    2  A    between atoms: C_11  and  C_5 
REMARK    3  A    between atoms: C_16  and  C_7 
REMARK    4  A    between atoms: C_15  and  N_10 
REMARK       I    between atoms: C_12  and  N_13 
REMARK    5  A    between atoms: N_13  and  C_17 
ROOT
ATOM      1  N   UNL d   1      46.111 -17.412  42.402  0.00  0.00    -0.184 N 
ATOM      2  C   UNL d   1      46.253 -18.140  42.041  0.00  0.00     0.168 A 
ATOM      3  C   UNL d   1      46.132 -17.352  43.200  0.00  0.00     0.217 A 
ATOM      4  N   UNL d   1      45.931 -16.831  41.160  0.00  0.00    -0.162 NA
ATOM      5  C   UNL d   1      46.231 -18.199  41.254  0.00  0.00     0.055 A 
ATOM      6  N   UNL d   1      46.410 -18.778  42.492  0.00  0.00    -0.227 NA
ATOM      7  C   UNL d   1      46.291 -17.997  43.652  0.00  0.00     0.066 A 
ATOM      8  C   UNL d   1      46.071 -17.547  40.805  0.00  0.00     0.104 A 
ATOM      9  C   UNL d   1      46.433 -18.725  43.291  0.00  0.00     0.087 A 
ATOM     10  C   UNL d   1      46.051 -17.616  40.007  0.00  0.00     0.023 C 
ATOM     11  C   UNL d   1      46.600 -19.400  43.762  0.00  0.00     0.021 C 
ENDROOT
BRANCH   3  12
ATOM     12  N   UNL d   1      45.989 -16.617  43.555  0.00  0.00    -0.383 NA
BRANCH  12  13
ATOM     13  C   UNL d   1      45.936 -15.864  43.895  0.00  0.00     0.134 A 
ATOM     14  C   UNL d   1      46.575 -15.343  43.843  0.00  0.00     0.034 A 
ATOM     15  C   UNL d   1      46.513 -14.590  44.186  0.00  0.00     0.022 A 
ATOM     16  C   UNL d   1      45.822 -14.363  44.576  0.00  0.00     0.085 A 
ATOM     17  C   UNL d   1      45.179 -14.882  44.631  0.00  0.00     0.022 A 
ATOM     18  C   UNL d   1      45.233 -15.642  44.288  0.00  0.00     0.034 A 
BRANCH  16  19
ATOM     19  N   UNL d   1      45.777 -13.604  44.915  0.00  0.00    -0.208 NA
ATOM     20  C   UNL d   1      45.601 -12.955  44.425  0.00  0.00     0.279 C 
ATOM     21  O   UNL d   1      45.554 -12.204  44.747  0.00  0.00    -0.265 OA
ATOM     22  C   UNL d   1      45.472 -13.058  43.616  0.00  0.00     0.068 C 
ENDBRANCH  16  19
ENDBRANCH  12  13
ENDBRANCH   3  12
BRANCH   7  23
ATOM     23  C   UNL d   1      46.317 -17.951  44.480  0.00  0.00     0.006 C 
ATOM     24  C   UNL d   1      46.148 -18.621  44.955  0.00  0.00     0.000 C 
ENDBRANCH   7  23
BRANCH   5  25
ATOM     25  C   UNL d   1      46.369 -18.905  40.904  0.00  0.00     0.004 A 
ATOM     26  C   UNL d   1      46.397 -19.574  41.336  0.00  0.00     0.000 A 
ATOM     27  C   UNL d   1      46.537 -20.290  40.981  0.00  0.00     0.000 A 
ATOM     28  C   UNL d   1      46.646 -20.327  40.198  0.00  0.00     0.000 A 
ATOM     29  C   UNL d   1      46.619 -19.653  39.755  0.00  0.00     0.000 A 
ATOM     30  C   UNL d   1      46.481 -18.947  40.105  0.00  0.00     0.000 A 
ENDBRANCH   5  25
TORSDOF 5
ENDMDL
