MODEL 1
REMARK VINA RESULT:      80.1      0.000      0.000
REMARK  9 active torsions:
REMARK  status: ('A' for Active; 'I' for Inactive)
REMARK    1  A    between atoms: S_10  and  C_2 
REMARK    2  A    between atoms: C_7  and  C_5 
REMARK    3  A    between atoms: C_9  and  C_6 
REMARK    4  A    between atoms: O_19  and  C_9 
REMARK    5  A    between atoms: C_17  and  S_10 
REMARK    6  A    between atoms: C_13  and  C_17 
REMARK    7  A    between atoms: O_20  and  C_14 
REMARK    8  A    between atoms: C_23  and  O_19 
REMARK    9  A    between atoms: C_24  and  O_20 
ROOT
ATOM      1  C   UNL d   1     -57.043 -99.058 -44.215  0.00  0.00     0.092 A 
ATOM      2  C   UNL d   1     -57.556 -98.868 -43.581  0.00  0.00     0.124 A 
ATOM      3  C   UNL d   1     -56.458 -98.917 -42.678  0.00  0.00     0.285 A 
ATOM      4  N   UNL d   1     -57.258 -98.800 -42.822  0.00  0.00    -0.201 NA
ATOM      5  C   UNL d   1     -56.246 -99.175 -44.074  0.00  0.00     0.023 A 
ATOM      6  C   UNL d   1     -55.945 -99.107 -43.312  0.00  0.00     0.122 A 
ATOM      7  C   UNL d   1     -57.338 -99.127 -44.971  0.00  0.00     0.103 C 
ATOM      8  N   UNL d   1     -57.636 -99.193 -45.721  0.00  0.00    -0.191 NA
ATOM      9  O   UNL d   1     -56.082 -98.853 -41.867  0.00  0.00    -0.265 OA
ENDROOT
BRANCH   2  10
ATOM     10  S   UNL d   1     -58.387 -98.756 -43.791  0.00  0.00    -0.062 SA
BRANCH  10  11
ATOM     11  C   UNL d   1     -59.089 -98.782 -43.275  0.00  0.00     0.101 C 
BRANCH  11  12
ATOM     12  C   UNL d   1     -59.446 -99.546 -43.079  0.00  0.00     0.303 C 
ATOM     13  O   UNL d   1     -59.471 -99.950 -43.419  0.00  0.00    -0.263 OA
ATOM     14  N   UNL d   1     -59.768 -99.593 -42.252  0.00  0.00    -0.102 N 
ENDBRANCH  11  12
ENDBRANCH  10  11
ENDBRANCH   2  10
BRANCH   5  15
ATOM     15  C   UNL d   1     -55.746 -99.360 -44.692  0.00  0.00     0.024 A 
ATOM     16  C   UNL d   1     -55.639-100.145 -44.908  0.00  0.00     0.100 A 
ATOM     17  C   UNL d   1     -55.132-100.333 -45.535  0.00  0.00     0.025 A 
ATOM     18  C   UNL d   1     -54.737 -99.734 -45.940  0.00  0.00     0.002 A 
ATOM     19  C   UNL d   1     -54.848 -98.952 -45.720  0.00  0.00     0.000 A 
ATOM     20  C   UNL d   1     -55.355 -98.764 -45.093  0.00  0.00     0.002 A 
BRANCH  16  21
ATOM     21  O   UNL d   1     -55.934-100.707 -44.619  0.00  0.00    -0.305 OA
BRANCH  21  22
ATOM     22  C   UNL d   1     -55.480-101.426 -44.967  0.00  0.00     0.123 C 
ATOM     23  C   UNL d   1     -55.382-102.233 -44.256  0.00  0.00     0.029 C 
ENDBRANCH  21  22
ENDBRANCH  16  21
ENDBRANCH   5  15
BRANCH   6  24
ATOM     24  C   UNL d   1     -55.142 -99.224 -43.166  0.00  0.00     0.305 C 
ATOM     25  O   UNL d   1     -54.868 -99.058 -43.406  0.00  0.00    -0.259 OA
BRANCH  24  26
ATOM     26  O   UNL d   1     -54.840 -99.681 -42.529  0.00  0.00    -0.271 OA
BRANCH  26  27
ATOM     27  C   UNL d   1     -55.343-100.006 -41.886  0.00  0.00     0.126 C 
ATOM     28  C   UNL d   1     -54.900-100.746 -41.770  0.00  0.00     0.029 C 
ENDBRANCH  26  27
ENDBRANCH  24  26
ENDBRANCH   6  24
TORSDOF 9
ENDMDL
MODEL 2
REMARK VINA RESULT:      80.2      1.908      3.480
REMARK  9 active torsions:
REMARK  status: ('A' for Active; 'I' for Inactive)
REMARK    1  A    between atoms: S_10  and  C_2 
REMARK    2  A    between atoms: C_7  and  C_5 
REMARK    3  A    between atoms: C_9  and  C_6 
REMARK    4  A    between atoms: O_19  and  C_9 
REMARK    5  A    between atoms: C_17  and  S_10 
REMARK    6  A    between atoms: C_13  and  C_17 
REMARK    7  A    between atoms: O_20  and  C_14 
REMARK    8  A    between atoms: C_23  and  O_19 
REMARK    9  A    between atoms: C_24  and  O_20 
ROOT
ATOM      1  C   UNL d   1     -54.991-100.350 -42.983  0.00  0.00     0.092 A 
ATOM      2  C   UNL d   1     -54.815-100.899 -42.377  0.00  0.00     0.124 A 
ATOM      3  C   UNL d   1     -54.850-101.957 -43.327  0.00  0.00     0.285 A 
ATOM      4  N   UNL d   1     -54.747-101.695 -42.555  0.00  0.00    -0.201 NA
ATOM      5  C   UNL d   1     -55.095-100.609 -43.752  0.00  0.00     0.023 A 
ATOM      6  C   UNL d   1     -55.026-101.407 -43.932  0.00  0.00     0.122 A 
ATOM      7  C   UNL d   1     -55.060 -99.557 -42.807  0.00  0.00     0.103 C 
ATOM      8  N   UNL d   1     -55.127 -98.771 -42.627  0.00  0.00    -0.191 NA
ATOM      9  O   UNL d   1     -54.785-102.817 -43.574  0.00  0.00    -0.265 OA
ENDROOT
BRANCH   2  10
ATOM     10  S   UNL d   1     -54.717-100.566 -41.585  0.00  0.00    -0.062 SA
BRANCH  10  11
ATOM     11  C   UNL d   1     -55.293-100.122 -41.104  0.00  0.00     0.101 C 
BRANCH  11  12
ATOM     12  C   UNL d   1     -55.010 -99.617 -40.459  0.00  0.00     0.303 C 
ATOM     13  O   UNL d   1     -54.982 -99.777 -39.957  0.00  0.00    -0.263 OA
ATOM     14  N   UNL d   1     -54.768 -98.803 -40.719  0.00  0.00    -0.102 N 
ENDBRANCH  11  12
ENDBRANCH  10  11
ENDBRANCH   2  10
BRANCH   5  15
ATOM     15  C   UNL d   1     -55.266-100.073 -44.342  0.00  0.00     0.024 A 
ATOM     16  C   UNL d   1     -55.995 -99.694 -44.350  0.00  0.00     0.100 A 
ATOM     17  C   UNL d   1     -56.169 -99.150 -44.950  0.00  0.00     0.025 A 
ATOM     18  C   UNL d   1     -55.613 -98.990 -45.536  0.00  0.00     0.002 A 
ATOM     19  C   UNL d   1     -54.887 -99.371 -45.523  0.00  0.00     0.000 A 
ATOM     20  C   UNL d   1     -54.713 -99.915 -44.924  0.00  0.00     0.002 A 
BRANCH  16  21
ATOM     21  O   UNL d   1     -56.517 -99.773 -43.895  0.00  0.00    -0.305 OA
BRANCH  21  22
ATOM     22  C   UNL d   1     -57.250 -99.392 -44.296  0.00  0.00     0.123 C 
ATOM     23  C   UNL d   1     -58.157 -99.554 -43.733  0.00  0.00     0.029 C 
ENDBRANCH  21  22
ENDBRANCH  16  21
ENDBRANCH   5  15
BRANCH   6  24
ATOM     24  C   UNL d   1     -55.129-101.673 -44.707  0.00  0.00     0.305 C 
ATOM     25  O   UNL d   1     -55.131-101.412 -45.010  0.00  0.00    -0.259 OA
BRANCH  24  26
ATOM     26  O   UNL d   1     -55.236-102.479 -44.919  0.00  0.00    -0.271 OA
BRANCH  26  27
ATOM     27  C   UNL d   1     -55.338-102.751 -45.749  0.00  0.00     0.126 C 
ATOM     28  C   UNL d   1     -55.966-102.190 -45.967  0.00  0.00     0.029 C 
ENDBRANCH  26  27
ENDBRANCH  24  26
ENDBRANCH   6  24
TORSDOF 9
ENDMDL
