MODEL 1
REMARK VINA RESULT:      -4.9      0.000      0.000
REMARK  4 active torsions:
REMARK  status: ('A' for Active; 'I' for Inactive)
REMARK    1  A    between atoms: C_7  and  N_1 
REMARK    2  A    between atoms: N_6  and  C_2 
REMARK    3  A    between atoms: C_10  and  N_6 
REMARK    4  A    between atoms: C_12  and  C_7 
ROOT
ATOM      1  N   UNL d   1      57.688   0.557  31.646  0.00  0.00    -0.239 N 
ATOM      2  C   UNL d   1      58.159   0.324  30.402  0.00  0.00     0.151 A 
ATOM      3  C   UNL d   1      57.442   0.410  30.855  0.00  0.00     0.285 A 
ATOM      4  C   UNL d   1      58.556   0.559  31.662  0.00  0.00     0.269 A 
ATOM      5  C   UNL d   1      58.807   0.415  30.898  0.00  0.00     0.086 A 
ATOM      6  O   UNL d   1      56.816   0.360  30.582  0.00  0.00    -0.265 OA
ATOM      7  O   UNL d   1      58.822   0.671  32.264  0.00  0.00    -0.267 OA
ENDROOT
BRANCH   2   8
ATOM      8  N   UNL d   1      58.219   0.171  29.588  0.00  0.00    -0.181 N 
ATOM      9  O   UNL d   1      57.772   0.663  29.232  0.00  0.00    -0.080 OA
BRANCH   8  10
ATOM     10  C   UNL d   1      58.710  -0.436  29.315  0.00  0.00     0.090 A 
ATOM     11  C   UNL d   1      58.447  -1.222  29.293  0.00  0.00     0.020 A 
ATOM     12  C   UNL d   1      58.949  -1.829  29.016  0.00  0.00     0.002 A 
ATOM     13  C   UNL d   1      59.721  -1.661  28.757  0.00  0.00     0.000 A 
ATOM     14  C   UNL d   1      59.982  -0.874  28.780  0.00  0.00     0.002 A 
ATOM     15  C   UNL d   1      59.487  -0.266  29.054  0.00  0.00     0.020 A 
ENDBRANCH   8  10
ENDBRANCH   2   8
BRANCH   1  16
ATOM     16  C   UNL d   1      57.294   0.681  32.306  0.00  0.00     0.086 C 
BRANCH  16  17
ATOM     17  C   UNL d   1      56.714   0.164  32.545  0.00  0.00     0.018 A 
ATOM     18  C   UNL d   1      56.883  -0.629  32.610  0.00  0.00     0.002 A 
ATOM     19  C   UNL d   1      56.303  -1.146  32.849  0.00  0.00     0.000 A 
ATOM     20  C   UNL d   1      55.561  -0.879  33.021  0.00  0.00     0.000 A 
ATOM     21  C   UNL d   1      55.390  -0.074  32.954  0.00  0.00     0.000 A 
ATOM     22  C   UNL d   1      55.975   0.455  32.713  0.00  0.00     0.002 A 
ENDBRANCH  16  17
ENDBRANCH   1  16
TORSDOF 4
ENDMDL
MODEL 2
REMARK VINA RESULT:      -4.8      0.560      4.093
REMARK  4 active torsions:
REMARK  status: ('A' for Active; 'I' for Inactive)
REMARK    1  A    between atoms: C_7  and  N_1 
REMARK    2  A    between atoms: N_6  and  C_2 
REMARK    3  A    between atoms: C_10  and  N_6 
REMARK    4  A    between atoms: C_12  and  C_7 
ROOT
ATOM      1  N   UNL d   1      58.421   0.470  30.227  0.00  0.00    -0.239 N 
ATOM      2  C   UNL d   1      57.786   0.427  31.417  0.00  0.00     0.151 A 
ATOM      3  C   UNL d   1      58.553   0.367  31.051  0.00  0.00     0.285 A 
ATOM      4  C   UNL d   1      57.570   0.592  30.104  0.00  0.00     0.269 A 
ATOM      5  C   UNL d   1      57.217   0.560  30.840  0.00  0.00     0.086 A 
ATOM      6  O   UNL d   1      59.130   0.256  31.402  0.00  0.00    -0.265 OA
ATOM      7  O   UNL d   1      57.392   0.682  29.466  0.00  0.00    -0.267 OA
ENDROOT
BRANCH   2   8
ATOM      8  N   UNL d   1      57.614   0.364  32.227  0.00  0.00    -0.181 N 
ATOM      9  O   UNL d   1      58.183   0.682  32.605  0.00  0.00    -0.080 OA
BRANCH   8  10
ATOM     10  C   UNL d   1      56.915  -0.002  32.475  0.00  0.00     0.090 A 
ATOM     11  C   UNL d   1      56.278   0.445  32.766  0.00  0.00     0.020 A 
ATOM     12  C   UNL d   1      55.576   0.067  33.014  0.00  0.00     0.002 A 
ATOM     13  C   UNL d   1      55.497  -0.760  32.977  0.00  0.00     0.000 A 
ATOM     14  C   UNL d   1      56.136  -1.203  32.687  0.00  0.00     0.002 A 
ATOM     15  C   UNL d   1      56.837  -0.835  32.438  0.00  0.00     0.020 A 
ENDBRANCH   8  10
ENDBRANCH   2   8
BRANCH   1  16
ATOM     16  C   UNL d   1      58.899   0.473  29.612  0.00  0.00     0.086 C 
BRANCH  16  17
ATOM     17  C   UNL d   1      59.281  -0.207  29.382  0.00  0.00     0.018 A 
ATOM     18  C   UNL d   1      58.849  -0.837  29.102  0.00  0.00     0.002 A 
ATOM     19  C   UNL d   1      59.231  -1.517  28.873  0.00  0.00     0.000 A 
ATOM     20  C   UNL d   1      60.035  -1.572  28.920  0.00  0.00     0.000 A 
ATOM     21  C   UNL d   1      60.473  -0.932  29.204  0.00  0.00     0.000 A 
ATOM     22  C   UNL d   1      60.091  -0.240  29.439  0.00  0.00     0.002 A 
ENDBRANCH  16  17
ENDBRANCH   1  16
TORSDOF 4
ENDMDL
MODEL 3
REMARK VINA RESULT:      -4.4      1.155      4.023
REMARK  4 active torsions:
REMARK  status: ('A' for Active; 'I' for Inactive)
REMARK    1  A    between atoms: C_7  and  N_1 
REMARK    2  A    between atoms: N_6  and  C_2 
REMARK    3  A    between atoms: C_10  and  N_6 
REMARK    4  A    between atoms: C_12  and  C_7 
ROOT
ATOM      1  N   UNL d   1      59.447  -0.621  29.149  0.00  0.00    -0.239 N 
ATOM      2  C   UNL d   1      58.477   0.026  29.830  0.00  0.00     0.151 A 
ATOM      3  C   UNL d   1      58.611  -0.548  29.214  0.00  0.00     0.285 A 
ATOM      4  C   UNL d   1      59.810  -0.088  29.730  0.00  0.00     0.269 A 
ATOM      5  C   UNL d   1      59.198   0.286  30.123  0.00  0.00     0.086 A 
ATOM      6  O   UNL d   1      58.107  -0.858  28.871  0.00  0.00    -0.265 OA
ATOM      7  O   UNL d   1      60.477  -0.095  29.735  0.00  0.00    -0.267 OA
ENDROOT
BRANCH   2   8
ATOM      8  N   UNL d   1      57.742   0.295  30.107  0.00  0.00    -0.181 N 
ATOM      9  O   UNL d   1      57.416   0.682  29.548  0.00  0.00    -0.080 OA
BRANCH   8  10
ATOM     10  C   UNL d   1      57.500   0.117  30.878  0.00  0.00     0.090 A 
ATOM     11  C   UNL d   1      57.164  -0.619  31.062  0.00  0.00     0.020 A 
ATOM     12  C   UNL d   1      56.922  -0.789  31.843  0.00  0.00     0.002 A 
ATOM     13  C   UNL d   1      57.011  -0.230  32.452  0.00  0.00     0.000 A 
ATOM     14  C   UNL d   1      57.347   0.506  32.264  0.00  0.00     0.002 A 
ATOM     15  C   UNL d   1      57.590   0.682  31.490  0.00  0.00     0.020 A 
ENDBRANCH   8  10
ENDBRANCH   2   8
BRANCH   1  16
ATOM     16  C   UNL d   1      59.905  -1.054  28.691  0.00  0.00     0.086 C 
BRANCH  16  17
ATOM     17  C   UNL d   1      60.025  -1.841  28.852  0.00  0.00     0.018 A 
ATOM     18  C   UNL d   1      60.712  -2.077  29.221  0.00  0.00     0.002 A 
ATOM     19  C   UNL d   1      60.832  -2.865  29.382  0.00  0.00     0.000 A 
ATOM     20  C   UNL d   1      60.277  -3.414  29.180  0.00  0.00     0.000 A 
ATOM     21  C   UNL d   1      59.581  -3.174  28.806  0.00  0.00     0.000 A 
ATOM     22  C   UNL d   1      59.453  -2.377  28.640  0.00  0.00     0.002 A 
ENDBRANCH  16  17
ENDBRANCH   1  16
TORSDOF 4
ENDMDL
MODEL 4
REMARK VINA RESULT:      -3.0      1.396      2.487
REMARK  4 active torsions:
REMARK  status: ('A' for Active; 'I' for Inactive)
REMARK    1  A    between atoms: C_7  and  N_1 
REMARK    2  A    between atoms: N_6  and  C_2 
REMARK    3  A    between atoms: C_10  and  N_6 
REMARK    4  A    between atoms: C_12  and  C_7 
ROOT
ATOM      1  N   UNL d   1      58.711   0.212  29.644  0.00  0.00    -0.239 N 
ATOM      2  C   UNL d   1      59.689  -0.554  29.114  0.00  0.00     0.151 A 
ATOM      3  C   UNL d   1      59.508  -0.032  29.763  0.00  0.00     0.285 A 
ATOM      4  C   UNL d   1      58.419  -0.168  28.920  0.00  0.00     0.269 A 
ATOM      5  C   UNL d   1      59.032  -0.621  28.626  0.00  0.00     0.086 A 
ATOM      6  O   UNL d   1      59.955   0.125  30.256  0.00  0.00    -0.265 OA
ATOM      7  O   UNL d   1      57.788  -0.018  28.764  0.00  0.00    -0.267 OA
ENDROOT
BRANCH   2   8
ATOM      8  N   UNL d   1      60.409  -0.944  28.974  0.00  0.00    -0.181 N 
ATOM      9  O   UNL d   1      60.913  -0.423  28.768  0.00  0.00    -0.080 OA
BRANCH   8  10
ATOM     10  C   UNL d   1      60.461  -1.763  29.073  0.00  0.00     0.090 A 
ATOM     11  C   UNL d   1      59.912  -2.274  28.718  0.00  0.00     0.020 A 
ATOM     12  C   UNL d   1      59.973  -3.100  28.823  0.00  0.00     0.002 A 
ATOM     13  C   UNL d   1      60.582  -3.430  29.282  0.00  0.00     0.000 A 
ATOM     14  C   UNL d   1      61.131  -2.917  29.636  0.00  0.00     0.002 A 
ATOM     15  C   UNL d   1      61.076  -2.095  29.536  0.00  0.00     0.020 A 
ENDBRANCH   8  10
ENDBRANCH   2   8
BRANCH   1  16
ATOM     16  C   UNL d   1      58.237   0.682  30.046  0.00  0.00     0.086 C 
BRANCH  16  17
ATOM     17  C   UNL d   1      57.953   0.458  30.773  0.00  0.00     0.018 A 
ATOM     18  C   UNL d   1      58.349   0.681  31.448  0.00  0.00     0.002 A 
ATOM     19  C   UNL d   1      58.065   0.457  32.175  0.00  0.00     0.000 A 
ATOM     20  C   UNL d   1      57.392   0.015  32.234  0.00  0.00     0.000 A 
ATOM     21  C   UNL d   1      56.990  -0.211  31.549  0.00  0.00     0.000 A 
ATOM     22  C   UNL d   1      57.274   0.013  30.809  0.00  0.00     0.002 A 
ENDBRANCH  16  17
ENDBRANCH   1  16
TORSDOF 4
ENDMDL
