MODEL 1
REMARK VINA RESULT:      -9.6      0.000      0.000
REMARK  2 active torsions:
REMARK  status: ('A' for Active; 'I' for Inactive)
REMARK    1  A    between atoms: C_7  and  C_1 
REMARK    2  A    between atoms: O_14  and  C_11 
ROOT
ATOM      1  C   UNL d   1     -49.250  12.450  23.146  0.00  0.00     0.066 A 
ATOM      2  C   UNL d   1     -48.734  11.825  23.416  0.00  0.00     0.200 A 
ATOM      3  C   UNL d   1     -47.918  11.939  23.395  0.00  0.00     0.062 A 
ATOM      4  C   UNL d   1     -48.927  13.158  22.869  0.00  0.00     0.126 A 
ATOM      5  C   UNL d   1     -47.595  12.647  23.117  0.00  0.00     0.106 A 
ATOM      6  O   UNL d   1     -48.080  13.260  22.854  0.00  0.00    -0.305 OA
ATOM      7  C   UNL d   1     -47.413  11.319  23.662  0.00  0.00     0.009 A 
ATOM      8  C   UNL d   1     -46.759  12.754  23.100  0.00  0.00     0.067 A 
ATOM      9  O   UNL d   1     -49.063  11.104  23.698  0.00  0.00    -0.286 OA
ATOM     10  C   UNL d   1     -46.250  12.132  23.368  0.00  0.00     0.198 A 
ATOM     11  C   UNL d   1     -46.573  11.424  23.646  0.00  0.00     0.042 A 
ATOM     12  O   UNL d   1     -45.411  12.237  23.352  0.00  0.00    -0.286 OA
ENDROOT
BRANCH   1  13
ATOM     13  C   UNL d   1     -49.827  12.377  23.158  0.00  0.00     0.027 A 
ATOM     14  C   UNL d   1     -50.132  12.406  22.670  0.00  0.00     0.094 A 
ATOM     15  C   UNL d   1     -50.707  12.334  22.674  0.00  0.00     0.024 A 
ATOM     16  C   UNL d   1     -50.972  12.232  23.185  0.00  0.00     0.002 A 
ATOM     17  C   UNL d   1     -50.666  12.202  23.672  0.00  0.00     0.000 A 
ATOM     18  C   UNL d   1     -50.090  12.275  23.661  0.00  0.00     0.002 A 
BRANCH  14  19
ATOM     19  O   UNL d   1     -49.862  12.510  22.157  0.00  0.00    -0.328 OA
ATOM     20  C   UNL d   1     -50.169  12.548  21.669  0.00  0.00     0.181 C 
ENDBRANCH  14  19
ENDBRANCH   1  13
TORSDOF 2
ENDMDL
MODEL 2
REMARK VINA RESULT:      -9.5      1.456      2.253
REMARK  2 active torsions:
REMARK  status: ('A' for Active; 'I' for Inactive)
REMARK    1  A    between atoms: C_7  and  C_1 
REMARK    2  A    between atoms: O_14  and  C_11 
ROOT
ATOM      1  C   UNL d   1     -48.873  14.187  22.909  0.00  0.00     0.066 A 
ATOM      2  C   UNL d   1     -48.065  14.416  22.760  0.00  0.00     0.200 A 
ATOM      3  C   UNL d   1     -47.461  13.868  22.883  0.00  0.00     0.062 A 
ATOM      4  C   UNL d   1     -49.041  13.422  23.173  0.00  0.00     0.126 A 
ATOM      5  C   UNL d   1     -47.629  13.103  23.147  0.00  0.00     0.106 A 
ATOM      6  O   UNL d   1     -48.405  12.867  23.295  0.00  0.00    -0.305 OA
ATOM      7  C   UNL d   1     -46.664  14.099  22.734  0.00  0.00     0.009 A 
ATOM      8  C   UNL d   1     -47.004  12.550  23.269  0.00  0.00     0.067 A 
ATOM      9  O   UNL d   1     -47.894  15.194  22.492  0.00  0.00    -0.286 OA
ATOM     10  C   UNL d   1     -46.203  12.781  23.121  0.00  0.00     0.198 A 
ATOM     11  C   UNL d   1     -46.035  13.545  22.857  0.00  0.00     0.042 A 
ATOM     12  O   UNL d   1     -45.575  12.227  23.243  0.00  0.00    -0.286 OA
ENDROOT
BRANCH   1  13
ATOM     13  C   UNL d   1     -49.305  14.568  22.825  0.00  0.00     0.027 A 
ATOM     14  C   UNL d   1     -49.711  14.462  22.431  0.00  0.00     0.094 A 
ATOM     15  C   UNL d   1     -50.144  14.837  22.342  0.00  0.00     0.024 A 
ATOM     16  C   UNL d   1     -50.159  15.326  22.661  0.00  0.00     0.002 A 
ATOM     17  C   UNL d   1     -49.752  15.432  23.054  0.00  0.00     0.000 A 
ATOM     18  C   UNL d   1     -49.321  15.051  23.139  0.00  0.00     0.002 A 
BRANCH  14  19
ATOM     19  O   UNL d   1     -49.694  13.967  22.112  0.00  0.00    -0.328 OA
ATOM     20  C   UNL d   1     -50.110  13.853  21.729  0.00  0.00     0.181 C 
ENDBRANCH  14  19
ENDBRANCH   1  13
TORSDOF 2
ENDMDL
MODEL 3
REMARK VINA RESULT:      -9.3      1.607      3.823
REMARK  2 active torsions:
REMARK  status: ('A' for Active; 'I' for Inactive)
REMARK    1  A    between atoms: C_7  and  C_1 
REMARK    2  A    between atoms: O_14  and  C_11 
ROOT
ATOM      1  C   UNL d   1     -47.476  13.388  22.564  0.00  0.00     0.066 A 
ATOM      2  C   UNL d   1     -47.717  14.189  22.733  0.00  0.00     0.200 A 
ATOM      3  C   UNL d   1     -48.503  14.407  22.611  0.00  0.00     0.062 A 
ATOM      4  C   UNL d   1     -48.029  12.843  22.283  0.00  0.00     0.126 A 
ATOM      5  C   UNL d   1     -49.056  13.862  22.330  0.00  0.00     0.106 A 
ATOM      6  O   UNL d   1     -48.839  13.085  22.162  0.00  0.00    -0.305 OA
ATOM      7  C   UNL d   1     -48.736  15.200  22.780  0.00  0.00     0.009 A 
ATOM      8  C   UNL d   1     -49.858  14.096  22.209  0.00  0.00     0.067 A 
ATOM      9  O   UNL d   1     -47.154  14.744  23.020  0.00  0.00    -0.286 OA
ATOM     10  C   UNL d   1     -50.094  14.891  22.377  0.00  0.00     0.198 A 
ATOM     11  C   UNL d   1     -49.540  15.436  22.659  0.00  0.00     0.042 A 
ATOM     12  O   UNL d   1     -50.897  15.127  22.257  0.00  0.00    -0.286 OA
ENDROOT
BRANCH   1  13
ATOM     13  C   UNL d   1     -46.923  13.226  22.647  0.00  0.00     0.027 A 
ATOM     14  C   UNL d   1     -46.797  12.811  23.027  0.00  0.00     0.094 A 
ATOM     15  C   UNL d   1     -46.249  12.646  23.114  0.00  0.00     0.024 A 
ATOM     16  C   UNL d   1     -45.826  12.908  22.810  0.00  0.00     0.002 A 
ATOM     17  C   UNL d   1     -45.952  13.323  22.431  0.00  0.00     0.000 A 
ATOM     18  C   UNL d   1     -46.504  13.485  22.348  0.00  0.00     0.002 A 
BRANCH  14  19
ATOM     19  O   UNL d   1     -47.227  12.548  23.332  0.00  0.00    -0.328 OA
ATOM     20  C   UNL d   1     -47.103  12.118  23.697  0.00  0.00     0.181 C 
ENDBRANCH  14  19
ENDBRANCH   1  13
TORSDOF 2
ENDMDL
MODEL 4
REMARK VINA RESULT:      -9.0      1.185      3.312
REMARK  2 active torsions:
REMARK  status: ('A' for Active; 'I' for Inactive)
REMARK    1  A    between atoms: C_7  and  C_1 
REMARK    2  A    between atoms: O_14  and  C_11 
ROOT
ATOM      1  C   UNL d   1     -47.927  12.621  23.052  0.00  0.00     0.066 A 
ATOM      2  C   UNL d   1     -48.509  12.287  22.524  0.00  0.00     0.200 A 
ATOM      3  C   UNL d   1     -49.133  12.758  22.263  0.00  0.00     0.062 A 
ATOM      4  C   UNL d   1     -47.995  13.408  23.294  0.00  0.00     0.126 A 
ATOM      5  C   UNL d   1     -49.202  13.545  22.505  0.00  0.00     0.106 A 
ATOM      6  O   UNL d   1     -48.648  13.882  23.014  0.00  0.00    -0.305 OA
ATOM      7  C   UNL d   1     -49.705  12.424  21.741  0.00  0.00     0.009 A 
ATOM      8  C   UNL d   1     -49.844  14.018  22.231  0.00  0.00     0.067 A 
ATOM      9  O   UNL d   1     -48.439  11.486  22.278  0.00  0.00    -0.286 OA
ATOM     10  C   UNL d   1     -50.420  13.684  21.708  0.00  0.00     0.198 A 
ATOM     11  C   UNL d   1     -50.351  12.897  21.466  0.00  0.00     0.042 A 
ATOM     12  O   UNL d   1     -51.064  14.158  21.433  0.00  0.00    -0.286 OA
ENDROOT
BRANCH   1  13
ATOM     13  C   UNL d   1     -47.484  12.295  23.241  0.00  0.00     0.027 A 
ATOM     14  C   UNL d   1     -46.941  12.470  23.159  0.00  0.00     0.094 A 
ATOM     15  C   UNL d   1     -46.495  12.150  23.344  0.00  0.00     0.024 A 
ATOM     16  C   UNL d   1     -46.607  11.646  23.616  0.00  0.00     0.002 A 
ATOM     17  C   UNL d   1     -47.150  11.471  23.698  0.00  0.00     0.000 A 
ATOM     18  C   UNL d   1     -47.593  11.797  23.509  0.00  0.00     0.002 A 
BRANCH  14  19
ATOM     19  O   UNL d   1     -46.831  12.980  22.884  0.00  0.00    -0.328 OA
ATOM     20  C   UNL d   1     -46.288  13.159  22.811  0.00  0.00     0.181 C 
ENDBRANCH  14  19
ENDBRANCH   1  13
TORSDOF 2
ENDMDL
