MODEL 1
REMARK VINA RESULT:      68.9      0.000      0.000
REMARK  4 active torsions:
REMARK  status: ('A' for Active; 'I' for Inactive)
REMARK    1  A    between atoms: S_2  and  N_1 
REMARK    2  A    between atoms: C_7  and  S_2 
REMARK    3  A    between atoms: S_8  and  C_5 
REMARK    4  A    between atoms: C_16  and  S_8 
ROOT
ATOM      1  N   UNL d   1      59.353  49.049  50.615  0.00  0.00    -0.151 N 
ATOM      2  C   UNL d   1      59.707  48.344  50.847  0.00  0.00     0.102 A 
ATOM      3  N   UNL d   1      59.950  49.613  50.552  0.00  0.00    -0.155 NA
ATOM      4  C   UNL d   1      60.514  48.466  50.928  0.00  0.00     0.067 A 
ATOM      5  C   UNL d   1      60.663  49.258  50.743  0.00  0.00     0.110 A 
ATOM      6  C   UNL d   1      59.317  47.613  50.982  0.00  0.00     0.022 C 
ATOM      7  C   UNL d   1      61.401  49.626  50.750  0.00  0.00     0.023 C 
ENDROOT
BRANCH   1   8
ATOM      8  S   UNL d   1      58.557  49.178  50.470  0.00  0.00     0.292 S 
ATOM      9  O   UNL d   1      58.366  48.659  51.084  0.00  0.00    -0.198 OA
ATOM     10  O   UNL d   1      58.744  49.690  49.864  0.00  0.00    -0.198 OA
BRANCH   8  11
ATOM     11  C   UNL d   1      57.750  49.303  50.331  0.00  0.00     0.135 A 
ATOM     12  S   UNL d   1      57.327  49.052  49.678  0.00  0.00    -0.073 SA
ATOM     13  C   UNL d   1      56.545  49.296  49.769  0.00  0.00     0.036 A 
ATOM     14  C   UNL d   1      56.485  49.702  50.485  0.00  0.00     0.008 A 
ATOM     15  C   UNL d   1      57.235  49.707  50.836  0.00  0.00     0.020 A 
ENDBRANCH   8  11
ENDBRANCH   1   8
BRANCH   4  16
ATOM     16  S   UNL d   1      61.140  47.967  51.144  0.00  0.00    -0.084 SA
BRANCH  16  17
ATOM     17  C   UNL d   1      61.344  47.333  50.656  0.00  0.00     0.029 A 
ATOM     18  C   UNL d   1      60.916  46.626  50.687  0.00  0.00     0.006 A 
ATOM     19  C   UNL d   1      61.131  46.005  50.196  0.00  0.00     0.001 A 
ATOM     20  C   UNL d   1      61.763  46.075  49.674  0.00  0.00     0.000 A 
ATOM     21  C   UNL d   1      62.187  46.780  49.645  0.00  0.00     0.001 A 
ATOM     22  C   UNL d   1      61.979  47.406  50.133  0.00  0.00     0.006 A 
ENDBRANCH  16  17
ENDBRANCH   4  16
TORSDOF 4
ENDMDL
MODEL 2
REMARK VINA RESULT:      71.8      1.607      3.952
REMARK  4 active torsions:
REMARK  status: ('A' for Active; 'I' for Inactive)
REMARK    1  A    between atoms: S_2  and  N_1 
REMARK    2  A    between atoms: C_7  and  S_2 
REMARK    3  A    between atoms: S_8  and  C_5 
REMARK    4  A    between atoms: C_16  and  S_8 
ROOT
ATOM      1  N   UNL d   1      61.095  47.727  50.561  0.00  0.00    -0.151 N 
ATOM      2  C   UNL d   1      60.368  48.057  50.756  0.00  0.00     0.102 A 
ATOM      3  N   UNL d   1      61.666  48.309  50.676  0.00  0.00    -0.155 NA
ATOM      4  C   UNL d   1      60.483  48.835  50.990  0.00  0.00     0.067 A 
ATOM      5  C   UNL d   1      61.294  48.989  50.939  0.00  0.00     0.110 A 
ATOM      6  C   UNL d   1      59.622  47.671  50.725  0.00  0.00     0.022 C 
ATOM      7  C   UNL d   1      61.661  49.705  51.123  0.00  0.00     0.023 C 
ENDROOT
BRANCH   1   8
ATOM      8  S   UNL d   1      61.237  46.964  50.299  0.00  0.00     0.292 S 
ATOM      9  O   UNL d   1      60.684  46.679  50.843  0.00  0.00    -0.198 OA
ATOM     10  O   UNL d   1      61.784  47.243  49.762  0.00  0.00    -0.198 OA
BRANCH   8  11
ATOM     11  C   UNL d   1      61.375  46.190  50.040  0.00  0.00     0.135 A 
ATOM     12  S   UNL d   1      61.053  45.509  50.357  0.00  0.00    -0.073 SA
ATOM     13  C   UNL d   1      61.341  44.865  49.930  0.00  0.00     0.036 A 
ATOM     14  C   UNL d   1      61.845  45.152  49.343  0.00  0.00     0.008 A 
ATOM     15  C   UNL d   1      61.867  45.977  49.410  0.00  0.00     0.020 A 
ENDBRANCH   8  11
ENDBRANCH   1   8
BRANCH   4  16
ATOM     16  S   UNL d   1      59.964  49.429  51.244  0.00  0.00    -0.084 SA
BRANCH  16  17
ATOM     17  C   UNL d   1      59.216  49.492  50.899  0.00  0.00     0.029 A 
ATOM     18  C   UNL d   1      58.534  49.407  51.358  0.00  0.00     0.006 A 
ATOM     19  C   UNL d   1      57.799  49.473  51.000  0.00  0.00     0.001 A 
ATOM     20  C   UNL d   1      57.730  49.622  50.194  0.00  0.00     0.000 A 
ATOM     21  C   UNL d   1      58.411  49.706  49.739  0.00  0.00     0.001 A 
ATOM     22  C   UNL d   1      59.150  49.642  50.089  0.00  0.00     0.006 A 
ENDBRANCH  16  17
ENDBRANCH   4  16
TORSDOF 4
ENDMDL
