MODEL 1
REMARK VINA RESULT:      -2.7      0.000      0.000
REMARK  1 active torsions:
REMARK  status: ('A' for Active; 'I' for Inactive)
REMARK    1  A    between atoms: N_4  and  C_1 
ROOT
ATOM      1  C   UNL d   1      30.984  16.759 -24.058  0.00  0.00     0.735 A 
ATOM      2  N   UNL d   1      30.841  16.115 -23.561  0.00  0.00    -0.059 NA
ATOM      3  N   UNL d   1      30.252  17.046 -24.320  0.00  0.00    -0.059 NA
ATOM      4  C   UNL d   1      30.022  16.002 -23.512  0.00  0.00     0.118 A 
ATOM      5  C   UNL d   1      29.659  16.576 -23.981  0.00  0.00     0.118 A 
ATOM      6  C   UNL d   1      29.566  15.453 -23.104  0.00  0.00     0.021 A 
ATOM      7  C   UNL d   1      28.835  16.606 -24.045  0.00  0.00     0.021 A 
ATOM      8  C   UNL d   1      28.377  16.056 -23.636  0.00  0.00     0.002 A 
ATOM      9  C   UNL d   1      28.741  15.483 -23.168  0.00  0.00     0.002 A 
ENDROOT
BRANCH   1  10
ATOM     10  N   UNL d   1      31.720  17.069 -24.266  0.00  0.00    -0.134 N 
ATOM     11  C   UNL d   1      32.148  16.751 -24.897  0.00  0.00     0.119 A 
ATOM     12  C   UNL d   1      32.879  17.066 -25.097  0.00  0.00     0.119 A 
ATOM     13  N   UNL d   1      33.191  17.699 -24.669  0.00  0.00    -0.239 NA
ATOM     14  C   UNL d   1      32.764  18.018 -24.037  0.00  0.00     0.119 A 
ATOM     15  C   UNL d   1      32.024  17.705 -23.830  0.00  0.00     0.119 A 
ENDBRANCH   1  10
TORSDOF 1
ENDMDL
MODEL 2
REMARK VINA RESULT:      -2.6      1.029      3.426
REMARK  1 active torsions:
REMARK  status: ('A' for Active; 'I' for Inactive)
REMARK    1  A    between atoms: N_4  and  C_1 
ROOT
ATOM      1  C   UNL d   1      30.552  16.545 -24.032  0.00  0.00     0.735 A 
ATOM      2  N   UNL d   1      31.177  16.237 -23.589  0.00  0.00    -0.059 NA
ATOM      3  N   UNL d   1      30.785  17.288 -24.319  0.00  0.00    -0.059 NA
ATOM      4  C   UNL d   1      31.798  16.786 -23.600  0.00  0.00     0.118 A 
ATOM      5  C   UNL d   1      31.556  17.434 -24.050  0.00  0.00     0.118 A 
ATOM      6  C   UNL d   1      32.547  16.776 -23.259  0.00  0.00     0.021 A 
ATOM      7  C   UNL d   1      32.061  18.078 -24.163  0.00  0.00     0.021 A 
ATOM      8  C   UNL d   1      32.810  18.070 -23.822  0.00  0.00     0.002 A 
ATOM      9  C   UNL d   1      33.052  17.422 -23.372  0.00  0.00     0.002 A 
ENDROOT
BRANCH   1  10
ATOM     10  N   UNL d   1      29.822  16.188 -24.172  0.00  0.00    -0.134 N 
ATOM     11  C   UNL d   1      29.230  16.202 -23.596  0.00  0.00     0.119 A 
ATOM     12  C   UNL d   1      28.506  15.844 -23.742  0.00  0.00     0.119 A 
ATOM     13  N   UNL d   1      28.366  15.468 -24.463  0.00  0.00    -0.239 NA
ATOM     14  C   UNL d   1      28.958  15.453 -25.041  0.00  0.00     0.119 A 
ATOM     15  C   UNL d   1      29.691  15.813 -24.900  0.00  0.00     0.119 A 
ENDBRANCH   1  10
TORSDOF 1
ENDMDL
MODEL 3
REMARK VINA RESULT:      -2.4      4.028      5.704
REMARK  1 active torsions:
REMARK  status: ('A' for Active; 'I' for Inactive)
REMARK    1  A    between atoms: N_4  and  C_1 
ROOT
ATOM      1  C   UNL d   1      32.965  20.625 -22.095  0.00  0.00     0.735 A 
ATOM      2  N   UNL d   1      32.606  20.728 -21.358  0.00  0.00    -0.059 NA
ATOM      3  N   UNL d   1      33.222  21.368 -22.359  0.00  0.00    -0.059 NA
ATOM      4  C   UNL d   1      32.640  21.533 -21.164  0.00  0.00     0.118 A 
ATOM      5  C   UNL d   1      33.020  21.927 -21.781  0.00  0.00     0.118 A 
ATOM      6  C   UNL d   1      32.374  21.952 -20.508  0.00  0.00     0.021 A 
ATOM      7  C   UNL d   1      33.137  22.745 -21.748  0.00  0.00     0.021 A 
ATOM      8  C   UNL d   1      32.872  23.165 -21.092  0.00  0.00     0.002 A 
ATOM      9  C   UNL d   1      32.492  22.771 -20.475  0.00  0.00     0.002 A 
ENDROOT
BRANCH   1  10
ATOM     10  N   UNL d   1      33.057  19.915 -22.504  0.00  0.00    -0.134 N 
ATOM     11  C   UNL d   1      33.150  19.202 -22.095  0.00  0.00     0.119 A 
ATOM     12  C   UNL d   1      33.241  18.500 -22.511  0.00  0.00     0.119 A 
ATOM     13  N   UNL d   1      33.240  18.501 -23.335  0.00  0.00    -0.239 NA
ATOM     14  C   UNL d   1      33.147  19.213 -23.745  0.00  0.00     0.119 A 
ATOM     15  C   UNL d   1      33.055  19.926 -23.333  0.00  0.00     0.119 A 
ENDBRANCH   1  10
TORSDOF 1
ENDMDL
MODEL 4
REMARK VINA RESULT:      -2.1      7.429      8.549
REMARK  1 active torsions:
REMARK  status: ('A' for Active; 'I' for Inactive)
REMARK    1  A    between atoms: N_4  and  C_1 
ROOT
ATOM      1  C   UNL d   1      32.602  22.797 -19.096  0.00  0.00     0.735 A 
ATOM      2  N   UNL d   1      32.218  23.381 -18.657  0.00  0.00    -0.059 NA
ATOM      3  N   UNL d   1      33.047  22.335 -18.572  0.00  0.00    -0.059 NA
ATOM      4  C   UNL d   1      32.425  23.284 -17.861  0.00  0.00     0.118 A 
ATOM      5  C   UNL d   1      32.936  22.639 -17.808  0.00  0.00     0.118 A 
ATOM      6  C   UNL d   1      32.213  23.699 -17.183  0.00  0.00     0.021 A 
ATOM      7  C   UNL d   1      33.241  22.402 -17.077  0.00  0.00     0.021 A 
ATOM      8  C   UNL d   1      33.030  22.817 -16.398  0.00  0.00     0.002 A 
ATOM      9  C   UNL d   1      32.518  23.462 -16.450  0.00  0.00     0.002 A 
ENDROOT
BRANCH   1  10
ATOM     10  N   UNL d   1      32.556  22.683 -19.912  0.00  0.00    -0.134 N 
ATOM     11  C   UNL d   1      32.818  23.268 -20.434  0.00  0.00     0.119 A 
ATOM     12  C   UNL d   1      32.769  23.146 -21.245  0.00  0.00     0.119 A 
ATOM     13  N   UNL d   1      32.459  22.442 -21.542  0.00  0.00    -0.239 NA
ATOM     14  C   UNL d   1      32.197  21.856 -21.021  0.00  0.00     0.119 A 
ATOM     15  C   UNL d   1      32.243  21.972 -20.201  0.00  0.00     0.119 A 
ENDBRANCH   1  10
TORSDOF 1
ENDMDL
MODEL 5
REMARK VINA RESULT:      -2.0      2.152      4.059
REMARK  1 active torsions:
REMARK  status: ('A' for Active; 'I' for Inactive)
REMARK    1  A    between atoms: N_4  and  C_1 
ROOT
ATOM      1  C   UNL d   1      32.793  18.243 -23.463  0.00  0.00     0.735 A 
ATOM      2  N   UNL d   1      32.873  18.979 -23.830  0.00  0.00    -0.059 NA
ATOM      3  N   UNL d   1      32.874  18.356 -22.646  0.00  0.00    -0.059 NA
ATOM      4  C   UNL d   1      33.004  19.548 -23.242  0.00  0.00     0.118 A 
ATOM      5  C   UNL d   1      33.005  19.163 -22.512  0.00  0.00     0.118 A 
ATOM      6  C   UNL d   1      33.122  20.361 -23.281  0.00  0.00     0.021 A 
ATOM      7  C   UNL d   1      33.123  19.589 -21.814  0.00  0.00     0.021 A 
ATOM      8  C   UNL d   1      33.241  20.403 -21.851  0.00  0.00     0.002 A 
ATOM      9  C   UNL d   1      33.240  20.788 -22.581  0.00  0.00     0.002 A 
ENDROOT
BRANCH   1  10
ATOM     10  N   UNL d   1      32.656  17.519 -23.834  0.00  0.00    -0.134 N 
ATOM     11  C   UNL d   1      31.961  17.390 -24.261  0.00  0.00     0.119 A 
ATOM     12  C   UNL d   1      31.833  16.666 -24.627  0.00  0.00     0.119 A 
ATOM     13  N   UNL d   1      32.395  16.066 -24.571  0.00  0.00    -0.239 NA
ATOM     14  C   UNL d   1      33.092  16.194 -24.144  0.00  0.00     0.119 A 
ATOM     15  C   UNL d   1      33.228  16.922 -23.772  0.00  0.00     0.119 A 
ENDBRANCH   1  10
TORSDOF 1
ENDMDL
MODEL 6
REMARK VINA RESULT:      -0.8      1.093      3.379
REMARK  1 active torsions:
REMARK  status: ('A' for Active; 'I' for Inactive)
REMARK    1  A    between atoms: N_4  and  C_1 
ROOT
ATOM      1  C   UNL d   1      30.510  16.935 -24.439  0.00  0.00     0.735 A 
ATOM      2  N   UNL d   1      30.886  16.834 -23.711  0.00  0.00    -0.059 NA
ATOM      3  N   UNL d   1      31.096  16.978 -25.024  0.00  0.00    -0.059 NA
ATOM      4  C   UNL d   1      31.704  16.813 -23.842  0.00  0.00     0.118 A 
ATOM      5  C   UNL d   1      31.833  16.902 -24.652  0.00  0.00     0.118 A 
ATOM      6  C   UNL d   1      32.341  16.726 -23.329  0.00  0.00     0.021 A 
ATOM      7  C   UNL d   1      32.602  16.904 -24.957  0.00  0.00     0.021 A 
ATOM      8  C   UNL d   1      33.240  16.816 -24.445  0.00  0.00     0.002 A 
ATOM      9  C   UNL d   1      33.111  16.728 -23.635  0.00  0.00     0.002 A 
ENDROOT
BRANCH   1  10
ATOM     10  N   UNL d   1      29.698  16.986 -24.573  0.00  0.00    -0.134 N 
ATOM     11  C   UNL d   1      29.376  17.638 -24.966  0.00  0.00     0.119 A 
ATOM     12  C   UNL d   1      28.566  17.681 -25.095  0.00  0.00     0.119 A 
ATOM     13  N   UNL d   1      28.071  17.076 -24.833  0.00  0.00    -0.239 NA
ATOM     14  C   UNL d   1      28.392  16.423 -24.440  0.00  0.00     0.119 A 
ATOM     15  C   UNL d   1      29.208  16.373 -24.306  0.00  0.00     0.119 A 
ENDBRANCH   1  10
TORSDOF 1
ENDMDL
