MODEL 1
REMARK VINA RESULT:      33.4      0.000      0.000
REMARK  2 active torsions:
REMARK  status: ('A' for Active; 'I' for Inactive)
REMARK    1  A    between atoms: C_7  and  C_1 
REMARK    2  A    between atoms: C_9  and  C_1 
ROOT
ATOM      1  C   UNL d   1      14.271  13.500  -2.269  0.00  0.00     0.240 A 
ATOM      2  S   UNL d   1      13.909  12.778  -2.103  0.00  0.00    -0.043 SA
ATOM      3  N   UNL d   1      14.642  13.924  -1.667  0.00  0.00    -0.199 NA
ATOM      4  C   UNL d   1      13.920  12.485  -1.338  0.00  0.00     0.181 A 
ATOM      5  N   UNL d   1      14.294  12.907  -0.719  0.00  0.00    -0.236 N 
ATOM      6  C   UNL d   1      14.652  13.627  -0.899  0.00  0.00     0.352 A 
ATOM      7  N   UNL d   1      13.605  11.785  -1.011  0.00  0.00    -0.219 NA
ATOM      8  O   UNL d   1      15.024  14.054  -0.300  0.00  0.00    -0.244 OA
ATOM      9  C   UNL d   1      14.208  12.469  -0.026  0.00  0.00     0.107 A 
ATOM     10  C   UNL d   1      13.785  11.780  -0.205  0.00  0.00     0.120 A 
ENDROOT
BRANCH   1  11
ATOM     11  C   UNL d   1      14.632  14.220  -2.435  0.00  0.00     0.429 C 
ATOM     12  F   UNL d   1      14.965  14.878  -2.586  0.00  0.00    -0.167 F 
ATOM     13  F   UNL d   1      14.302  14.923  -2.790  0.00  0.00    -0.167 F 
ATOM     14  F   UNL d   1      15.446  14.458  -2.294  0.00  0.00    -0.167 F 
ENDBRANCH   1  11
BRANCH   1  15
ATOM     15  C   UNL d   1      13.897  13.070  -2.866  0.00  0.00     0.016 A 
ATOM     16  C   UNL d   1      13.939  12.251  -2.864  0.00  0.00    -0.001 A 
ATOM     17  C   UNL d   1      13.566  11.821  -3.461  0.00  0.00    -0.000 A 
ATOM     18  C   UNL d   1      13.150  12.211  -4.060  0.00  0.00    -0.000 A 
ATOM     19  C   UNL d   1      13.113  13.036  -4.053  0.00  0.00    -0.000 A 
ATOM     20  C   UNL d   1      12.776  11.781  -4.657  0.00  0.00    -0.000 C 
ATOM     21  C   UNL d   1      13.482  13.461  -3.463  0.00  0.00    -0.001 A 
ENDBRANCH   1  15
TORSDOF 2
ENDMDL
MODEL 2
REMARK VINA RESULT:      33.6      1.538      2.825
REMARK  2 active torsions:
REMARK  status: ('A' for Active; 'I' for Inactive)
REMARK    1  A    between atoms: C_7  and  C_1 
REMARK    2  A    between atoms: C_9  and  C_1 
ROOT
ATOM      1  C   UNL d   1      14.058  13.681  -2.703  0.00  0.00     0.240 A 
ATOM      2  S   UNL d   1      13.852  12.883  -2.687  0.00  0.00    -0.043 SA
ATOM      3  N   UNL d   1      13.845  14.150  -3.348  0.00  0.00    -0.199 NA
ATOM      4  C   UNL d   1      13.435  12.559  -3.313  0.00  0.00     0.181 A 
ATOM      5  N   UNL d   1      13.213  13.026  -3.972  0.00  0.00    -0.236 N 
ATOM      6  C   UNL d   1      13.426  13.821  -3.976  0.00  0.00     0.352 A 
ATOM      7  N   UNL d   1      13.155  11.785  -3.448  0.00  0.00    -0.219 NA
ATOM      8  O   UNL d   1      13.214  14.294  -4.618  0.00  0.00    -0.244 OA
ATOM      9  C   UNL d   1      12.805  12.541  -4.499  0.00  0.00     0.107 A 
ATOM     10  C   UNL d   1      12.769  11.779  -4.178  0.00  0.00     0.120 A 
ENDROOT
BRANCH   1  11
ATOM     11  C   UNL d   1      14.265  14.478  -2.719  0.00  0.00     0.429 C 
ATOM     12  F   UNL d   1      14.452  15.207  -2.731  0.00  0.00    -0.167 F 
ATOM     13  F   UNL d   1      14.613  14.935  -3.350  0.00  0.00    -0.167 F 
ATOM     14  F   UNL d   1      14.183  15.066  -2.097  0.00  0.00    -0.167 F 
ENDBRANCH   1  11
BRANCH   1  15
ATOM     15  C   UNL d   1      14.268  13.206  -2.062  0.00  0.00     0.016 A 
ATOM     16  C   UNL d   1      13.887  13.303  -1.343  0.00  0.00    -0.001 A 
ATOM     17  C   UNL d   1      14.097  12.827  -0.702  0.00  0.00    -0.000 A 
ATOM     18  C   UNL d   1      14.688  12.255  -0.781  0.00  0.00    -0.000 A 
ATOM     19  C   UNL d   1      15.066  12.165  -1.510  0.00  0.00    -0.000 A 
ATOM     20  C   UNL d   1      14.898  11.780  -0.140  0.00  0.00    -0.000 C 
ATOM     21  C   UNL d   1      14.859  12.635  -2.144  0.00  0.00    -0.001 A 
ENDBRANCH   1  15
TORSDOF 2
ENDMDL
MODEL 3
REMARK VINA RESULT:      34.3      2.071      3.227
REMARK  2 active torsions:
REMARK  status: ('A' for Active; 'I' for Inactive)
REMARK    1  A    between atoms: C_7  and  C_1 
REMARK    2  A    between atoms: C_9  and  C_1 
ROOT
ATOM      1  C   UNL d   1      13.731  12.810  -3.231  0.00  0.00     0.240 A 
ATOM      2  S   UNL d   1      13.998  13.348  -2.666  0.00  0.00    -0.043 SA
ATOM      3  N   UNL d   1      13.496  13.075  -3.975  0.00  0.00    -0.199 NA
ATOM      4  C   UNL d   1      14.028  14.146  -2.848  0.00  0.00     0.181 A 
ATOM      5  N   UNL d   1      13.792  14.427  -3.601  0.00  0.00    -0.236 N 
ATOM      6  C   UNL d   1      13.527  13.878  -4.156  0.00  0.00     0.352 A 
ATOM      7  N   UNL d   1      14.268  14.806  -2.398  0.00  0.00    -0.219 NA
ATOM      8  O   UNL d   1      13.291  14.139  -4.902  0.00  0.00    -0.244 OA
ATOM      9  C   UNL d   1      13.887  15.245  -3.607  0.00  0.00     0.107 A 
ATOM     10  C   UNL d   1      14.179  15.479  -2.869  0.00  0.00     0.120 A 
ENDROOT
BRANCH   1  11
ATOM     11  C   UNL d   1      13.465  12.272  -3.794  0.00  0.00     0.429 C 
ATOM     12  F   UNL d   1      13.224  11.781  -4.311  0.00  0.00    -0.167 F 
ATOM     13  F   UNL d   1      12.769  11.779  -3.786  0.00  0.00    -0.167 F 
ATOM     14  F   UNL d   1      13.823  12.063  -4.548  0.00  0.00    -0.167 F 
ENDBRANCH   1  11
BRANCH   1  15
ATOM     15  C   UNL d   1      13.968  12.552  -2.483  0.00  0.00     0.016 A 
ATOM     16  C   UNL d   1      13.449  12.120  -2.020  0.00  0.00    -0.001 A 
ATOM     17  C   UNL d   1      13.686  11.862  -1.272  0.00  0.00    -0.000 A 
ATOM     18  C   UNL d   1      14.443  12.037  -0.989  0.00  0.00    -0.000 A 
ATOM     19  C   UNL d   1      14.959  12.474  -1.464  0.00  0.00    -0.000 A 
ATOM     20  C   UNL d   1      14.680  11.779  -0.242  0.00  0.00    -0.000 C 
ATOM     21  C   UNL d   1      14.725  12.728  -2.203  0.00  0.00    -0.001 A 
ENDBRANCH   1  15
TORSDOF 2
ENDMDL
MODEL 4
REMARK VINA RESULT:      34.5      8.937      9.610
REMARK  2 active torsions:
REMARK  status: ('A' for Active; 'I' for Inactive)
REMARK    1  A    between atoms: C_7  and  C_1 
REMARK    2  A    between atoms: C_9  and  C_1 
ROOT
ATOM      1  C   UNL d   1      23.708  12.843  -1.669  0.00  0.00     0.240 A 
ATOM      2  S   UNL d   1      23.189  12.885  -2.308  0.00  0.00    -0.043 SA
ATOM      3  N   UNL d   1      23.436  12.995  -0.905  0.00  0.00    -0.199 NA
ATOM      4  C   UNL d   1      22.403  13.078  -2.180  0.00  0.00     0.181 A 
ATOM      5  N   UNL d   1      22.116  13.234  -1.409  0.00  0.00    -0.236 N 
ATOM      6  C   UNL d   1      22.645  13.189  -0.780  0.00  0.00     0.352 A 
ATOM      7  N   UNL d   1      21.763  13.161  -2.709  0.00  0.00    -0.219 NA
ATOM      8  O   UNL d   1      22.378  13.340  -0.014  0.00  0.00    -0.244 OA
ATOM      9  C   UNL d   1      21.313  13.409  -1.469  0.00  0.00     0.107 A 
ATOM     10  C   UNL d   1      21.096  13.364  -2.266  0.00  0.00     0.120 A 
ENDROOT
BRANCH   1  11
ATOM     11  C   UNL d   1      24.227  12.800  -1.030  0.00  0.00     0.429 C 
ATOM     12  F   UNL d   1      24.701  12.765  -0.448  0.00  0.00    -0.167 F 
ATOM     13  F   UNL d   1      24.412  12.137  -0.526  0.00  0.00    -0.167 F 
ATOM     14  F   UNL d   1      24.724  13.419  -0.701  0.00  0.00    -0.167 F 
ENDBRANCH   1  11
BRANCH   1  15
ATOM     15  C   UNL d   1      23.973  12.692  -2.435  0.00  0.00     0.016 A 
ATOM     16  C   UNL d   1      24.327  13.291  -2.868  0.00  0.00    -0.001 A 
ATOM     17  C   UNL d   1      24.592  13.141  -3.634  0.00  0.00    -0.000 A 
ATOM     18  C   UNL d   1      24.502  12.390  -3.969  0.00  0.00    -0.000 A 
ATOM     19  C   UNL d   1      24.143  11.792  -3.525  0.00  0.00    -0.000 A 
ATOM     20  C   UNL d   1      24.766  12.239  -4.736  0.00  0.00    -0.000 C 
ATOM     21  C   UNL d   1      23.881  11.942  -2.767  0.00  0.00    -0.001 A 
ENDBRANCH   1  15
TORSDOF 2
ENDMDL
