MODEL 1
REMARK VINA RESULT:      76.2      0.000      0.000
REMARK  7 active torsions:
REMARK  status: ('A' for Active; 'I' for Inactive)
REMARK    1  A    between atoms: N_2  and  S_1 
REMARK    2  A    between atoms: C_6  and  S_1 
REMARK    3  A    between atoms: C_16  and  C_3 
REMARK       I    between atoms: C_4  and  N_10 
REMARK    4  A    between atoms: C_5  and  C_4 
REMARK       I    between atoms: N_11  and  C_5 
REMARK    5  A    between atoms: N_10  and  C_16 
REMARK    6  A    between atoms: C_26  and  N_11 
REMARK    7  A    between atoms: C_25  and  C_26 
ROOT
ATOM      1  C   UNL d   1     -55.115-102.082 -41.339  0.00  0.00     0.337 C 
ATOM      2  N   UNL d   1     -54.913-101.290 -41.321  0.00  0.00    -0.199 NA
ATOM      3  O   UNL d   1     -55.159-102.490 -42.054  0.00  0.00    -0.260 OA
ENDROOT
BRANCH   2   4
ATOM      4  C   UNL d   1     -54.752-100.894 -42.024  0.00  0.00     0.146 C 
BRANCH   4   5
ATOM      5  C   UNL d   1     -54.829-100.076 -42.071  0.00  0.00     0.197 A 
ATOM      6  N   UNL d   1     -54.883 -99.639 -42.758  0.00  0.00    -0.207 N 
ATOM      7  C   UNL d   1     -54.953 -98.844 -42.542  0.00  0.00     0.120 A 
ATOM      8  C   UNL d   1     -54.942 -98.794 -41.714  0.00  0.00     0.144 A 
ATOM      9  O   UNL d   1     -54.864 -99.571 -41.421  0.00  0.00    -0.285 OA
BRANCH   6  10
ATOM     10  S   UNL d   1     -54.870 -99.930 -43.524  0.00  0.00     0.273 S 
ATOM     11  O   UNL d   1     -54.924-100.695 -43.236  0.00  0.00    -0.200 OA
ATOM     12  O   UNL d   1     -54.816 -99.166 -43.814  0.00  0.00    -0.200 OA
BRANCH  10  13
ATOM     13  C   UNL d   1     -54.857-100.221 -44.291  0.00  0.00     0.104 A 
ATOM     14  C   UNL d   1     -54.739 -99.699 -44.932  0.00  0.00     0.013 A 
ATOM     15  C   UNL d   1     -54.726 -99.990 -45.699  0.00  0.00     0.007 A 
ATOM     16  C   UNL d   1     -54.831-100.804 -45.839  0.00  0.00     0.035 A 
ATOM     17  C   UNL d   1     -54.948-101.315 -45.201  0.00  0.00     0.007 A 
ATOM     18 BR   UNL d   1     -54.818-101.098 -46.606  0.00  0.00    -0.049 Br
ATOM     19  C   UNL d   1     -54.961-101.024 -44.434  0.00  0.00     0.013 A 
ENDBRANCH  10  13
ENDBRANCH   6  10
ENDBRANCH   4   5
ENDBRANCH   2   4
BRANCH   1  20
ATOM     20  C   UNL d   1     -55.275-102.478 -40.637  0.00  0.00     0.337 C 
ATOM     21  N   UNL d   1     -54.711-102.478 -40.041  0.00  0.00    -0.202 NA
ATOM     22  O   UNL d   1     -55.992-102.866 -40.538  0.00  0.00    -0.260 OA
BRANCH  21  23
ATOM     23  C   UNL d   1     -54.870-102.878 -39.327  0.00  0.00     0.102 C 
BRANCH  23  24
ATOM     24  C   UNL d   1     -54.863-102.467 -38.610  0.00  0.00     0.021 A 
ATOM     25  C   UNL d   1     -54.912-101.647 -38.617  0.00  0.00     0.028 A 
ATOM     26  C   UNL d   1     -54.905-101.236 -37.895  0.00  0.00     0.119 A 
ATOM     27  O   UNL d   1     -54.946-100.428 -37.733  0.00  0.00    -0.300 OA
ATOM     28  C   UNL d   1     -54.849-101.645 -37.179  0.00  0.00     0.119 A 
ATOM     29  C   UNL d   1     -54.914-100.340 -36.899  0.00  0.00     0.304 A 
ATOM     30  O   UNL d   1     -54.855-101.097 -36.578  0.00  0.00    -0.300 OA
ATOM     31  C   UNL d   1     -54.800-102.469 -37.189  0.00  0.00     0.026 A 
ATOM     32  C   UNL d   1     -54.807-102.880 -37.897  0.00  0.00     0.004 A 
ENDBRANCH  23  24
ENDBRANCH  21  23
ENDBRANCH   1  20
TORSDOF 7
ENDMDL
