MODEL 1
REMARK VINA RESULT:      26.2      0.000      0.000
REMARK  3 active torsions:
REMARK  status: ('A' for Active; 'I' for Inactive)
REMARK    1  A    between atoms: N_2  and  S_1 
REMARK    2  A    between atoms: C_5  and  S_1 
REMARK    3  A    between atoms: C_4  and  C_3 
ROOT
ATOM      1  N   UNL d   1     -58.517 -98.809 -45.344  0.00  0.00    -0.223 N 
ATOM      2  C   UNL d   1     -59.215 -98.821 -44.894  0.00  0.00     0.127 A 
ATOM      3  S   UNL d   1     -59.853 -98.811 -45.416  0.00  0.00    -0.065 SA
ATOM      4  C   UNL d   1     -58.727 -98.791 -46.142  0.00  0.00     0.099 A 
ATOM      5  C   UNL d   1     -59.551 -98.792 -46.189  0.00  0.00     0.057 A 
ENDROOT
BRANCH   1   6
ATOM      6  S   UNL d   1     -57.742 -98.813 -45.043  0.00  0.00     0.272 S 
ATOM      7  O   UNL d   1     -57.104 -98.811 -45.554  0.00  0.00    -0.200 OA
ATOM      8  O   UNL d   1     -57.628 -98.820 -44.228  0.00  0.00    -0.200 OA
BRANCH   6   9
ATOM      9  C   UNL d   1     -56.992 -98.818 -44.706  0.00  0.00     0.104 A 
ATOM     10  C   UNL d   1     -56.901 -98.866 -43.890  0.00  0.00     0.014 A 
ATOM     11  C   UNL d   1     -56.152 -98.870 -43.555  0.00  0.00     0.012 A 
ATOM     12  C   UNL d   1     -55.482 -98.827 -44.041  0.00  0.00     0.058 A 
ATOM     13  C   UNL d   1     -55.576 -98.779 -44.867  0.00  0.00     0.012 A 
ATOM     14 CL   UNL d   1     -54.730 -98.831 -43.710  0.00  0.00    -0.082 Cl
ATOM     15  C   UNL d   1     -56.330 -98.775 -45.195  0.00  0.00     0.014 A 
ENDBRANCH   6   9
ENDBRANCH   1   6
BRANCH   2  16
ATOM     16  C   UNL d   1     -59.261 -98.840 -44.076  0.00  0.00     0.123 A 
ATOM     17  O   UNL d   1     -58.629 -98.939 -43.554  0.00  0.00    -0.303 OA
ATOM     18  C   UNL d   1     -58.925 -98.924 -42.786  0.00  0.00     0.123 A 
ATOM     19  C   UNL d   1     -59.743 -98.816 -42.828  0.00  0.00     0.029 A 
ATOM     20  C   UNL d   1     -59.950 -98.764 -43.627  0.00  0.00     0.029 A 
ENDBRANCH   2  16
TORSDOF 3
ENDMDL
