MODEL 1
REMARK VINA RESULT:      55.6      0.000      0.000
REMARK  4 active torsions:
REMARK  status: ('A' for Active; 'I' for Inactive)
REMARK    1  A    between atoms: N_5  and  C_1 
REMARK    2  A    between atoms: N_8  and  C_3 
REMARK    3  A    between atoms: C_14  and  N_8 
REMARK    4  A    between atoms: C_16  and  C_14 
ROOT
ATOM      1  C   UNL d   1      57.449  49.681  52.785  0.00  0.00     0.737 A 
ATOM      2  N   UNL d   1      58.210  49.685  52.453  0.00  0.00    -0.041 NA
ATOM      3  C   UNL d   1      58.306  49.690  51.628  0.00  0.00     0.182 A 
ATOM      4  N   UNL d   1      56.779  49.681  52.293  0.00  0.00    -0.060 NA
ATOM      5  C   UNL d   1      57.639  49.690  51.134  0.00  0.00     0.055 A 
ATOM      6  C   UNL d   1      56.881  49.686  51.459  0.00  0.00     0.103 A 
ATOM      7  C   UNL d   1      57.735  49.695  50.310  0.00  0.00     0.005 A 
ATOM      8  C   UNL d   1      56.206  49.686  50.965  0.00  0.00     0.020 A 
ATOM      9  C   UNL d   1      57.075  49.696  49.818  0.00  0.00     0.000 A 
ATOM     10  C   UNL d   1      56.309  49.691  50.147  0.00  0.00     0.002 A 
ENDROOT
BRANCH   3  11
ATOM     11  N   UNL d   1      59.097  49.695  51.283  0.00  0.00    -0.225 NA
BRANCH  11  12
ATOM     12  C   UNL d   1      59.557  49.089  51.274  0.00  0.00     0.101 C 
BRANCH  12  13
ATOM     13  C   UNL d   1      60.276  49.172  51.045  0.00  0.00     0.019 A 
ATOM     14  C   UNL d   1      60.828  49.183  51.562  0.00  0.00     0.002 A 
ATOM     15  C   UNL d   1      61.540  49.265  51.345  0.00  0.00     0.000 A 
ATOM     16  C   UNL d   1      61.710  49.337  50.603  0.00  0.00     0.000 A 
ATOM     17  C   UNL d   1      61.156  49.325  50.094  0.00  0.00     0.000 A 
ATOM     18  C   UNL d   1      60.436  49.243  50.310  0.00  0.00     0.002 A 
ENDBRANCH  12  13
ENDBRANCH  11  12
ENDBRANCH   3  11
BRANCH   1  19
ATOM     19  N   UNL d   1      57.347  49.675  53.628  0.00  0.00    -0.134 N 
ATOM     20  C   UNL d   1      58.029  49.677  54.142  0.00  0.00     0.117 A 
ATOM     21  C   UNL d   1      57.919  49.672  54.990  0.00  0.00     0.100 A 
ATOM     22  N   UNL d   1      57.139  49.665  55.323  0.00  0.00    -0.299 N 
ATOM     23  C   UNL d   1      56.457  49.664  54.809  0.00  0.00     0.100 A 
ATOM     24  C   UNL d   1      57.036  49.660  56.170  0.00  0.00     0.100 C 
ATOM     25  C   UNL d   1      56.555  49.669  53.963  0.00  0.00     0.117 A 
ENDBRANCH   1  19
TORSDOF 4
ENDMDL
