MODEL 1
REMARK VINA RESULT:      -6.0      0.000      0.000
REMARK  5 active torsions:
REMARK  status: ('A' for Active; 'I' for Inactive)
REMARK    1  A    between atoms: C_13  and  C_4 
REMARK    2  A    between atoms: C_7  and  S_11 
REMARK    3  A    between atoms: O_14  and  C_7 
REMARK    4  A    between atoms: S_11  and  C_13 
REMARK    5  A    between atoms: C_16  and  O_14 
ROOT
ATOM      1  C   UNL d   1     -49.674  14.410  22.829  0.00  0.00     0.148 A 
ATOM      2  N   UNL d   1     -49.839  13.810  22.277  0.00  0.00    -0.288 N 
ATOM      3  N   UNL d   1     -48.939  14.209  23.180  0.00  0.00    -0.226 NA
ATOM      4  C   UNL d   1     -48.663  13.513  22.855  0.00  0.00     0.107 A 
ATOM      5  C   UNL d   1     -49.225  13.260  22.288  0.00  0.00     0.101 A 
ATOM      6  C   UNL d   1     -50.197  15.038  22.936  0.00  0.00     0.035 A 
ATOM      7  C   UNL d   1     -50.543  13.855  21.832  0.00  0.00     0.082 A 
ATOM      8  C   UNL d   1     -51.062  14.486  21.944  0.00  0.00     0.019 A 
ATOM      9  C   UNL d   1     -50.892  15.075  22.492  0.00  0.00     0.004 A 
ATOM     10  C   UNL d   1     -50.031  15.639  23.491  0.00  0.00     0.003 C 
ENDROOT
BRANCH   4  11
ATOM     11  C   UNL d   1     -47.962  13.120  23.042  0.00  0.00     0.059 C 
BRANCH  11  12
ATOM     12  S   UNL d   1     -47.250  13.386  22.741  0.00  0.00    -0.049 SA
BRANCH  12  13
ATOM     13  C   UNL d   1     -46.547  12.980  22.926  0.00  0.00     0.185 C 
ATOM     14  S   UNL d   1     -46.562  12.373  23.470  0.00  0.00    -0.044 SA
BRANCH  13  15
ATOM     15  O   UNL d   1     -45.844  13.195  22.556  0.00  0.00    -0.288 OA
BRANCH  15  16
ATOM     16  C   UNL d   1     -45.140  13.415  22.195  0.00  0.00     0.124 C 
ATOM     17  C   UNL d   1     -44.682  12.849  21.800  0.00  0.00     0.029 C 
ENDBRANCH  15  16
ENDBRANCH  13  15
ENDBRANCH  12  13
ENDBRANCH  11  12
ENDBRANCH   4  11
TORSDOF 5
ENDMDL
MODEL 2
REMARK VINA RESULT:      -5.9      1.126      1.596
REMARK  5 active torsions:
REMARK  status: ('A' for Active; 'I' for Inactive)
REMARK    1  A    between atoms: C_13  and  C_4 
REMARK    2  A    between atoms: C_7  and  S_11 
REMARK    3  A    between atoms: O_14  and  C_7 
REMARK    4  A    between atoms: S_11  and  C_13 
REMARK    5  A    between atoms: C_16  and  O_14 
ROOT
ATOM      1  C   UNL d   1     -49.641  14.189  23.034  0.00  0.00     0.148 A 
ATOM      2  N   UNL d   1     -49.292  14.944  23.008  0.00  0.00    -0.288 N 
ATOM      3  N   UNL d   1     -49.019  13.640  22.913  0.00  0.00    -0.226 NA
ATOM      4  C   UNL d   1     -48.315  14.042  22.817  0.00  0.00     0.107 A 
ATOM      5  C   UNL d   1     -48.483  14.860  22.876  0.00  0.00     0.101 A 
ATOM      6  C   UNL d   1     -50.451  14.105  23.159  0.00  0.00     0.035 A 
ATOM      7  C   UNL d   1     -49.776  15.615  23.112  0.00  0.00     0.082 A 
ATOM      8  C   UNL d   1     -50.586  15.524  23.237  0.00  0.00     0.019 A 
ATOM      9  C   UNL d   1     -50.924  14.775  23.261  0.00  0.00     0.004 A 
ATOM     10  C   UNL d   1     -50.800  13.347  23.185  0.00  0.00     0.003 C 
ENDROOT
BRANCH   4  11
ATOM     11  C   UNL d   1     -47.569  13.714  22.686  0.00  0.00     0.059 C 
BRANCH  11  12
ATOM     12  S   UNL d   1     -47.222  13.243  23.255  0.00  0.00    -0.049 SA
BRANCH  12  13
ATOM     13  C   UNL d   1     -46.535  12.809  23.070  0.00  0.00     0.185 C 
ATOM     14  S   UNL d   1     -45.972  13.136  22.579  0.00  0.00    -0.044 SA
BRANCH  13  15
ATOM     15  O   UNL d   1     -46.432  12.057  23.385  0.00  0.00    -0.288 OA
BRANCH  15  16
ATOM     16  C   UNL d   1     -46.320  11.305  23.698  0.00  0.00     0.124 C 
ATOM     17  C   UNL d   1     -45.591  10.923  23.609  0.00  0.00     0.029 C 
ENDBRANCH  15  16
ENDBRANCH  13  15
ENDBRANCH  12  13
ENDBRANCH  11  12
ENDBRANCH   4  11
TORSDOF 5
ENDMDL
MODEL 3
REMARK VINA RESULT:      -5.4      1.814      2.223
REMARK  5 active torsions:
REMARK  status: ('A' for Active; 'I' for Inactive)
REMARK    1  A    between atoms: C_13  and  C_4 
REMARK    2  A    between atoms: C_7  and  S_11 
REMARK    3  A    between atoms: O_14  and  C_7 
REMARK    4  A    between atoms: S_11  and  C_13 
REMARK    5  A    between atoms: C_16  and  O_14 
ROOT
ATOM      1  C   UNL d   1     -49.429  12.610  22.666  0.00  0.00     0.148 A 
ATOM      2  N   UNL d   1     -49.527  12.160  23.359  0.00  0.00    -0.288 N 
ATOM      3  N   UNL d   1     -48.605  12.743  22.588  0.00  0.00    -0.226 NA
ATOM      4  C   UNL d   1     -48.211  12.389  23.210  0.00  0.00     0.107 A 
ATOM      5  C   UNL d   1     -48.787  12.023  23.695  0.00  0.00     0.101 A 
ATOM      6  C   UNL d   1     -50.081  12.830  22.213  0.00  0.00     0.035 A 
ATOM      7  C   UNL d   1     -50.297  11.936  23.588  0.00  0.00     0.082 A 
ATOM      8  C   UNL d   1     -50.945  12.160  23.130  0.00  0.00     0.019 A 
ATOM      9  C   UNL d   1     -50.841  12.604  22.447  0.00  0.00     0.004 A 
ATOM     10  C   UNL d   1     -49.982  13.282  21.518  0.00  0.00     0.003 C 
ENDROOT
BRANCH   4  11
ATOM     11  C   UNL d   1     -47.398  12.386  23.347  0.00  0.00     0.059 C 
BRANCH  11  12
ATOM     12  S   UNL d   1     -46.979  11.685  23.314  0.00  0.00    -0.049 SA
BRANCH  12  13
ATOM     13  C   UNL d   1     -46.146  11.701  23.306  0.00  0.00     0.185 C 
ATOM     14  S   UNL d   1     -45.758  12.389  23.104  0.00  0.00    -0.044 SA
BRANCH  13  15
ATOM     15  O   UNL d   1     -45.724  11.023  23.503  0.00  0.00    -0.288 OA
BRANCH  15  16
ATOM     16  C   UNL d   1     -45.310  10.341  23.698  0.00  0.00     0.124 C 
ATOM     17  C   UNL d   1     -44.483  10.332  23.660  0.00  0.00     0.029 C 
ENDBRANCH  15  16
ENDBRANCH  13  15
ENDBRANCH  12  13
ENDBRANCH  11  12
ENDBRANCH   4  11
TORSDOF 5
ENDMDL
MODEL 4
REMARK VINA RESULT:      -4.8      8.693     10.291
REMARK  5 active torsions:
REMARK  status: ('A' for Active; 'I' for Inactive)
REMARK    1  A    between atoms: C_13  and  C_4 
REMARK    2  A    between atoms: C_7  and  S_11 
REMARK    3  A    between atoms: O_14  and  C_7 
REMARK    4  A    between atoms: S_11  and  C_13 
REMARK    5  A    between atoms: C_16  and  O_14 
ROOT
ATOM      1  C   UNL d   1     -39.161  13.728  17.657  0.00  0.00     0.148 A 
ATOM      2  N   UNL d   1     -39.467  14.440  17.354  0.00  0.00    -0.288 N 
ATOM      3  N   UNL d   1     -39.492  13.638  18.422  0.00  0.00    -0.226 NA
ATOM      4  C   UNL d   1     -39.983  14.270  18.583  0.00  0.00     0.107 A 
ATOM      5  C   UNL d   1     -39.970  14.774  17.915  0.00  0.00     0.101 A 
ATOM      6  C   UNL d   1     -38.638  13.272  17.211  0.00  0.00     0.035 A 
ATOM      7  C   UNL d   1     -39.237  14.685  16.590  0.00  0.00     0.082 A 
ATOM      8  C   UNL d   1     -38.714  14.224  16.150  0.00  0.00     0.019 A 
ATOM      9  C   UNL d   1     -38.415  13.522  16.456  0.00  0.00     0.004 A 
ATOM     10  C   UNL d   1     -38.332  12.559  17.516  0.00  0.00     0.003 C 
ENDROOT
BRANCH   4  11
ATOM     11  C   UNL d   1     -40.418  14.399  19.272  0.00  0.00     0.059 C 
BRANCH  11  12
ATOM     12  S   UNL d   1     -40.098  14.837  19.883  0.00  0.00    -0.049 SA
BRANCH  12  13
ATOM     13  C   UNL d   1     -40.517  14.915  20.599  0.00  0.00     0.185 C 
ATOM     14  S   UNL d   1     -41.205  14.494  20.712  0.00  0.00    -0.044 SA
BRANCH  13  15
ATOM     15  O   UNL d   1     -40.232  15.418  21.184  0.00  0.00    -0.288 OA
BRANCH  15  16
ATOM     16  C   UNL d   1     -39.955  15.920  21.773  0.00  0.00     0.124 C 
ATOM     17  C   UNL d   1     -39.359  15.665  22.289  0.00  0.00     0.029 C 
ENDBRANCH  15  16
ENDBRANCH  13  15
ENDBRANCH  12  13
ENDBRANCH  11  12
ENDBRANCH   4  11
TORSDOF 5
ENDMDL
MODEL 5
REMARK VINA RESULT:      -4.4      8.726     10.332
REMARK  5 active torsions:
REMARK  status: ('A' for Active; 'I' for Inactive)
REMARK    1  A    between atoms: C_13  and  C_4 
REMARK    2  A    between atoms: C_7  and  S_11 
REMARK    3  A    between atoms: O_14  and  C_7 
REMARK    4  A    between atoms: S_11  and  C_13 
REMARK    5  A    between atoms: C_16  and  O_14 
ROOT
ATOM      1  C   UNL d   1     -39.998  15.857  20.142  0.00  0.00     0.148 A 
ATOM      2  N   UNL d   1     -39.178  15.901  20.274  0.00  0.00    -0.288 N 
ATOM      3  N   UNL d   1     -40.100  15.845  19.310  0.00  0.00    -0.226 NA
ATOM      4  C   UNL d   1     -39.370  15.881  18.945  0.00  0.00     0.107 A 
ATOM      5  C   UNL d   1     -38.790  15.916  19.547  0.00  0.00     0.101 A 
ATOM      6  C   UNL d   1     -40.525  15.834  20.775  0.00  0.00     0.035 A 
ATOM      7  C   UNL d   1     -38.897  15.922  21.060  0.00  0.00     0.082 A 
ATOM      8  C   UNL d   1     -39.430  15.899  21.688  0.00  0.00     0.019 A 
ATOM      9  C   UNL d   1     -40.238  15.855  21.550  0.00  0.00     0.004 A 
ATOM     10  C   UNL d   1     -41.347  15.790  20.641  0.00  0.00     0.003 C 
ENDROOT
BRANCH   4  11
ATOM     11  C   UNL d   1     -39.219  15.882  18.134  0.00  0.00     0.059 C 
BRANCH  11  12
ATOM     12  S   UNL d   1     -38.908  15.219  17.773  0.00  0.00    -0.049 SA
BRANCH  12  13
ATOM     13  C   UNL d   1     -38.756  15.227  16.954  0.00  0.00     0.185 C 
ATOM     14  S   UNL d   1     -38.956  15.882  16.513  0.00  0.00    -0.044 SA
BRANCH  13  15
ATOM     15  O   UNL d   1     -38.404  14.573  16.600  0.00  0.00    -0.288 OA
BRANCH  15  16
ATOM     16  C   UNL d   1     -38.045  13.925  16.244  0.00  0.00     0.124 C 
ATOM     17  C   UNL d   1     -38.179  13.764  15.443  0.00  0.00     0.029 C 
ENDBRANCH  15  16
ENDBRANCH  13  15
ENDBRANCH  12  13
ENDBRANCH  11  12
ENDBRANCH   4  11
TORSDOF 5
ENDMDL
MODEL 6
REMARK VINA RESULT:      -4.3      8.210      9.670
REMARK  5 active torsions:
REMARK  status: ('A' for Active; 'I' for Inactive)
REMARK    1  A    between atoms: C_13  and  C_4 
REMARK    2  A    between atoms: C_7  and  S_11 
REMARK    3  A    between atoms: O_14  and  C_7 
REMARK    4  A    between atoms: S_11  and  C_13 
REMARK    5  A    between atoms: C_16  and  O_14 
ROOT
ATOM      1  C   UNL d   1     -40.058  14.414  20.405  0.00  0.00     0.148 A 
ATOM      2  N   UNL d   1     -39.229  14.382  20.334  0.00  0.00    -0.288 N 
ATOM      3  N   UNL d   1     -40.351  14.599  19.642  0.00  0.00    -0.226 NA
ATOM      4  C   UNL d   1     -39.727  14.677  19.121  0.00  0.00     0.107 A 
ATOM      5  C   UNL d   1     -39.022  14.542  19.552  0.00  0.00     0.101 A 
ATOM      6  C   UNL d   1     -40.422  14.275  21.131  0.00  0.00     0.035 A 
ATOM      7  C   UNL d   1     -38.773  14.207  21.010  0.00  0.00     0.082 A 
ATOM      8  C   UNL d   1     -39.145  14.069  21.733  0.00  0.00     0.019 A 
ATOM      9  C   UNL d   1     -39.963  14.102  21.796  0.00  0.00     0.004 A 
ATOM     10  C   UNL d   1     -41.253  14.307  21.202  0.00  0.00     0.003 C 
ENDROOT
BRANCH   4  11
ATOM     11  C   UNL d   1     -39.769  14.857  18.317  0.00  0.00     0.059 C 
BRANCH  11  12
ATOM     12  S   UNL d   1     -40.495  14.925  17.950  0.00  0.00    -0.049 SA
BRANCH  12  13
ATOM     13  C   UNL d   1     -40.535  15.169  17.154  0.00  0.00     0.185 C 
ATOM     14  S   UNL d   1     -39.903  15.030  16.658  0.00  0.00    -0.044 SA
BRANCH  13  15
ATOM     15  O   UNL d   1     -41.211  15.547  16.878  0.00  0.00    -0.288 OA
BRANCH  15  16
ATOM     16  C   UNL d   1     -41.891  15.922  16.608  0.00  0.00     0.124 C 
ATOM     17  C   UNL d   1     -42.122  15.845  15.817  0.00  0.00     0.029 C 
ENDBRANCH  15  16
ENDBRANCH  13  15
ENDBRANCH  12  13
ENDBRANCH  11  12
ENDBRANCH   4  11
TORSDOF 5
ENDMDL
MODEL 7
REMARK VINA RESULT:      -4.2      9.353      9.915
REMARK  5 active torsions:
REMARK  status: ('A' for Active; 'I' for Inactive)
REMARK    1  A    between atoms: C_13  and  C_4 
REMARK    2  A    between atoms: C_7  and  S_11 
REMARK    3  A    between atoms: O_14  and  C_7 
REMARK    4  A    between atoms: S_11  and  C_13 
REMARK    5  A    between atoms: C_16  and  O_14 
ROOT
ATOM      1  C   UNL d   1     -39.386  14.580  21.392  0.00  0.00     0.148 A 
ATOM      2  N   UNL d   1     -39.526  15.393  21.278  0.00  0.00    -0.288 N 
ATOM      3  N   UNL d   1     -39.601  14.204  20.674  0.00  0.00    -0.226 NA
ATOM      4  C   UNL d   1     -39.864  14.763  20.141  0.00  0.00     0.107 A 
ATOM      5  C   UNL d   1     -39.818  15.510  20.516  0.00  0.00     0.101 A 
ATOM      6  C   UNL d   1     -39.091  14.302  22.109  0.00  0.00     0.035 A 
ATOM      7  C   UNL d   1     -39.363  15.921  21.904  0.00  0.00     0.082 A 
ATOM      8  C   UNL d   1     -39.068  15.635  22.618  0.00  0.00     0.019 A 
ATOM      9  C   UNL d   1     -38.932  14.831  22.723  0.00  0.00     0.004 A 
ATOM     10  C   UNL d   1     -38.950  13.487  22.222  0.00  0.00     0.003 C 
ENDROOT
BRANCH   4  11
ATOM     11  C   UNL d   1     -40.128  14.631  19.370  0.00  0.00     0.059 C 
BRANCH  11  12
ATOM     12  S   UNL d   1     -39.634  14.776  18.736  0.00  0.00    -0.049 SA
BRANCH  12  13
ATOM     13  C   UNL d   1     -39.861  14.536  17.972  0.00  0.00     0.185 C 
ATOM     14  S   UNL d   1     -40.630  14.647  17.726  0.00  0.00    -0.044 SA
BRANCH  13  15
ATOM     15  O   UNL d   1     -39.307  14.189  17.473  0.00  0.00    -0.288 OA
BRANCH  15  16
ATOM     16  C   UNL d   1     -38.755  13.848  16.968  0.00  0.00     0.124 C 
ATOM     17  C   UNL d   1     -38.668  14.132  16.195  0.00  0.00     0.029 C 
ENDBRANCH  15  16
ENDBRANCH  13  15
ENDBRANCH  12  13
ENDBRANCH  11  12
ENDBRANCH   4  11
TORSDOF 5
ENDMDL
