MODEL 1
REMARK VINA RESULT:     103.7      0.000      0.000
REMARK  5 active torsions:
REMARK  status: ('A' for Active; 'I' for Inactive)
REMARK    1  A    between atoms: N_6  and  S_1 
REMARK    2  A    between atoms: C_7  and  S_1 
REMARK    3  A    between atoms: C_9  and  C_2 
REMARK       I    between atoms: N_16  and  C_9 
REMARK    4  A    between atoms: C_26  and  N_16 
REMARK    5  A    between atoms: C_18  and  C_26 
ROOT
ATOM      1  C   UNL d   1     -55.361-101.591 -40.800  0.00  0.00     0.158 A 
ATOM      2  C   UNL d   1     -55.507-101.779 -41.593  0.00  0.00     0.029 A 
ATOM      3  O   UNL d   1     -55.107-100.813 -40.769  0.00  0.00    -0.302 OA
ATOM      4  C   UNL d   1     -55.339-101.111 -42.026  0.00  0.00     0.026 A 
ATOM      5  C   UNL d   1     -55.185-100.247 -43.168  0.00  0.00     0.104 A 
ATOM      6  C   UNL d   1     -55.090-100.506 -41.527  0.00  0.00     0.100 A 
ATOM      7  C   UNL d   1     -55.387-100.981 -42.855  0.00  0.00     0.015 A 
ATOM      8  C   UNL d   1     -54.933 -99.638 -42.655  0.00  0.00     0.015 A 
ATOM      9  C   UNL d   1     -54.890 -99.777 -41.840  0.00  0.00     0.025 A 
ATOM     10  C   UNL d   1     -55.772-102.508 -41.873  0.00  0.00     0.002 C 
ENDROOT
BRANCH   1  11
ATOM     11  C   UNL d   1     -55.480-102.159 -40.216  0.00  0.00     0.302 C 
ATOM     12  N   UNL d   1     -56.019-102.014 -39.607  0.00  0.00    -0.203 NA
ATOM     13  O   UNL d   1     -55.072-102.870 -40.226  0.00  0.00    -0.263 OA
BRANCH  12  14
ATOM     14  C   UNL d   1     -56.146-102.577 -39.015  0.00  0.00     0.129 C 
BRANCH  14  15
ATOM     15  C   UNL d   1     -55.804-102.485 -38.260  0.00  0.00     0.144 A 
ATOM     16  O   UNL d   1     -56.225-102.724 -37.579  0.00  0.00    -0.301 OA
ATOM     17  C   UNL d   1     -55.885-102.632 -36.839  0.00  0.00     0.123 A 
ATOM     18  C   UNL d   1     -56.292-102.865 -36.157  0.00  0.00     0.027 A 
ATOM     19  C   UNL d   1     -55.136-102.306 -36.759  0.00  0.00     0.123 A 
ATOM     20  C   UNL d   1     -55.961-102.777 -35.409  0.00  0.00     0.002 A 
ATOM     21  C   UNL d   1     -55.203-102.446 -35.346  0.00  0.00     0.002 A 
ATOM     22  C   UNL d   1     -54.790-102.211 -36.014  0.00  0.00     0.027 A 
ATOM     23  O   UNL d   1     -54.726-102.071 -37.448  0.00  0.00    -0.301 OA
ATOM     24  C   UNL d   1     -55.050-102.156 -38.190  0.00  0.00     0.149 A 
ENDBRANCH  14  15
ENDBRANCH  12  14
ENDBRANCH   1  11
BRANCH   5  25
ATOM     25  S   UNL d   1     -55.232-100.120 -43.986  0.00  0.00     0.272 S 
ATOM     26  O   UNL d   1     -55.406 -99.320 -43.851  0.00  0.00    -0.200 OA
ATOM     27  O   UNL d   1     -55.056-100.929 -44.125  0.00  0.00    -0.200 OA
BRANCH  25  28
ATOM     28  N   UNL d   1     -55.281 -99.989 -44.814  0.00  0.00    -0.225 N 
ATOM     29  C   UNL d   1     -55.771 -99.393 -45.092  0.00  0.00     0.118 A 
ATOM     30  C   UNL d   1     -55.828 -99.254 -45.906  0.00  0.00     0.142 A 
ATOM     31  O   UNL d   1     -55.378 -99.731 -46.445  0.00  0.00    -0.300 OA
ATOM     32  C   UNL d   1     -54.890-100.327 -46.146  0.00  0.00     0.142 A 
ATOM     33  C   UNL d   1     -54.843-100.453 -45.334  0.00  0.00     0.118 A 
ENDBRANCH  25  28
ENDBRANCH   5  25
TORSDOF 5
ENDMDL
MODEL 2
REMARK VINA RESULT:     104.4      0.677      1.037
REMARK  5 active torsions:
REMARK  status: ('A' for Active; 'I' for Inactive)
REMARK    1  A    between atoms: N_6  and  S_1 
REMARK    2  A    between atoms: C_7  and  S_1 
REMARK    3  A    between atoms: C_9  and  C_2 
REMARK       I    between atoms: N_16  and  C_9 
REMARK    4  A    between atoms: C_26  and  N_16 
REMARK    5  A    between atoms: C_18  and  C_26 
ROOT
ATOM      1  C   UNL d   1     -55.212-101.545 -41.197  0.00  0.00     0.158 A 
ATOM      2  C   UNL d   1     -55.192-101.647 -42.018  0.00  0.00     0.029 A 
ATOM      3  O   UNL d   1     -55.378-100.757 -41.045  0.00  0.00    -0.302 OA
ATOM      4  C   UNL d   1     -55.347-100.918 -42.347  0.00  0.00     0.026 A 
ATOM      5  C   UNL d   1     -55.563 -99.912 -43.353  0.00  0.00     0.104 A 
ATOM      6  C   UNL d   1     -55.464-100.360 -41.754  0.00  0.00     0.100 A 
ATOM      7  C   UNL d   1     -55.397-100.693 -43.154  0.00  0.00     0.015 A 
ATOM      8  C   UNL d   1     -55.681 -99.350 -42.747  0.00  0.00     0.015 A 
ATOM      9  C   UNL d   1     -55.629 -99.583 -41.954  0.00  0.00     0.025 A 
ATOM     10  C   UNL d   1     -55.043-102.356 -42.411  0.00  0.00     0.002 C 
ENDROOT
BRANCH   1  11
ATOM     11  C   UNL d   1     -55.074-102.188 -40.701  0.00  0.00     0.302 C 
ATOM     12  N   UNL d   1     -55.291-102.146 -39.904  0.00  0.00    -0.203 NA
ATOM     13  O   UNL d   1     -54.724-102.874 -40.983  0.00  0.00    -0.263 OA
BRANCH  12  14
ATOM     14  C   UNL d   1     -55.157-102.786 -39.399  0.00  0.00     0.129 C 
BRANCH  14  15
ATOM     15  C   UNL d   1     -55.457-102.782 -38.620  0.00  0.00     0.144 A 
ATOM     16  O   UNL d   1     -54.933-102.815 -37.970  0.00  0.00    -0.301 OA
ATOM     17  C   UNL d   1     -55.232-102.811 -37.207  0.00  0.00     0.123 A 
ATOM     18  C   UNL d   1     -54.723-102.844 -36.555  0.00  0.00     0.027 A 
ATOM     19  C   UNL d   1     -56.042-102.774 -37.074  0.00  0.00     0.123 A 
ATOM     20  C   UNL d   1     -55.012-102.841 -35.785  0.00  0.00     0.002 A 
ATOM     21  C   UNL d   1     -55.833-102.803 -35.668  0.00  0.00     0.002 A 
ATOM     22  C   UNL d   1     -56.347-102.770 -36.306  0.00  0.00     0.027 A 
ATOM     23  O   UNL d   1     -56.555-102.741 -37.733  0.00  0.00    -0.301 OA
ATOM     24  C   UNL d   1     -56.272-102.744 -38.497  0.00  0.00     0.149 A 
ENDBRANCH  14  15
ENDBRANCH  12  14
ENDBRANCH   1  11
BRANCH   5  25
ATOM     25  S   UNL d   1     -55.612 -99.690 -44.151  0.00  0.00     0.272 S 
ATOM     26  O   UNL d   1     -56.257 -99.199 -43.975  0.00  0.00    -0.200 OA
ATOM     27  O   UNL d   1     -54.960-100.187 -44.332  0.00  0.00    -0.200 OA
BRANCH  25  28
ATOM     28  N   UNL d   1     -55.663 -99.465 -44.958  0.00  0.00    -0.225 N 
ATOM     29  C   UNL d   1     -54.978 -99.459 -45.411  0.00  0.00     0.118 A 
ATOM     30  C   UNL d   1     -55.014 -99.239 -46.207  0.00  0.00     0.142 A 
ATOM     31  O   UNL d   1     -55.761 -99.021 -46.549  0.00  0.00    -0.300 OA
ATOM     32  C   UNL d   1     -56.439 -99.034 -46.078  0.00  0.00     0.142 A 
ATOM     33  C   UNL d   1     -56.387 -99.255 -45.287  0.00  0.00     0.118 A 
ENDBRANCH  25  28
ENDBRANCH   5  25
TORSDOF 5
ENDMDL
