MODEL 1
REMARK VINA RESULT:      -7.5      0.000      0.000
REMARK  3 active torsions:
REMARK  status: ('A' for Active; 'I' for Inactive)
REMARK    1  A    between atoms: N_7  and  C_6 
REMARK       I    between atoms: C_8  and  N_7 
REMARK    2  A    between atoms: C_12  and  C_8 
REMARK    3  A    between atoms: C_16  and  C_12 
ROOT
ATOM      1  C   UNL d   1     -49.557  14.474  23.047  0.00  0.00     0.269 A 
ATOM      2  N   UNL d   1     -50.069  15.059  22.743  0.00  0.00    -0.239 N 
ATOM      3  C   UNL d   1     -49.681  13.793  22.596  0.00  0.00     0.079 A 
ATOM      4  C   UNL d   1     -50.487  14.739  22.128  0.00  0.00     0.267 A 
ATOM      5  C   UNL d   1     -50.256  13.956  22.027  0.00  0.00     0.063 A 
ATOM      6  C   UNL d   1     -49.340  13.046  22.635  0.00  0.00     0.089 A 
ATOM      7  O   UNL d   1     -49.030  14.554  23.674  0.00  0.00    -0.267 OA
ATOM      8  O   UNL d   1     -51.063  15.141  21.669  0.00  0.00    -0.267 OA
ATOM      9  C   UNL d   1     -50.134  15.832  23.024  0.00  0.00     0.105 C 
ATOM     10  C   UNL d   1     -50.490  13.374  21.498  0.00  0.00     0.005 A 
ATOM     11  C   UNL d   1     -49.574  12.460  22.103  0.00  0.00     0.019 A 
ATOM     12  C   UNL d   1     -50.149  12.623  21.535  0.00  0.00     0.002 A 
ENDROOT
BRANCH   6  13
ATOM     13  N   UNL d   1     -48.764  12.882  23.203  0.00  0.00    -0.208 NA
ATOM     14  C   UNL d   1     -48.299  12.208  23.130  0.00  0.00     0.279 C 
ATOM     15  O   UNL d   1     -48.401  11.695  22.494  0.00  0.00    -0.265 OA
BRANCH  14  16
ATOM     16  C   UNL d   1     -47.723  12.044  23.698  0.00  0.00     0.062 C 
BRANCH  16  17
ATOM     17  C   UNL d   1     -46.932  11.971  23.475  0.00  0.00     0.005 A 
ATOM     18  C   UNL d   1     -46.537  11.256  23.584  0.00  0.00     0.000 A 
ATOM     19  C   UNL d   1     -45.757  11.177  23.366  0.00  0.00     0.000 A 
ATOM     20  C   UNL d   1     -45.357  11.822  23.031  0.00  0.00     0.000 A 
ATOM     21  C   UNL d   1     -45.752  12.538  22.922  0.00  0.00     0.000 A 
ATOM     22  C   UNL d   1     -46.543  12.610  23.145  0.00  0.00     0.000 A 
ENDBRANCH  16  17
ENDBRANCH  14  16
ENDBRANCH   6  13
TORSDOF 3
ENDMDL
MODEL 2
REMARK VINA RESULT:      -6.6      8.929     10.509
REMARK  3 active torsions:
REMARK  status: ('A' for Active; 'I' for Inactive)
REMARK    1  A    between atoms: N_7  and  C_6 
REMARK       I    between atoms: C_8  and  N_7 
REMARK    2  A    between atoms: C_12  and  C_8 
REMARK    3  A    between atoms: C_16  and  C_12 
ROOT
ATOM      1  C   UNL d   1     -38.968  13.444  17.660  0.00  0.00     0.269 A 
ATOM      2  N   UNL d   1     -38.508  13.326  16.973  0.00  0.00    -0.239 N 
ATOM      3  C   UNL d   1     -39.455  14.095  17.510  0.00  0.00     0.079 A 
ATOM      4  C   UNL d   1     -38.713  13.889  16.428  0.00  0.00     0.267 A 
ATOM      5  C   UNL d   1     -39.297  14.370  16.749  0.00  0.00     0.063 A 
ATOM      6  C   UNL d   1     -40.020  14.467  17.975  0.00  0.00     0.089 A 
ATOM      7  O   UNL d   1     -38.944  13.002  18.353  0.00  0.00    -0.267 OA
ATOM      8  O   UNL d   1     -38.382  13.967  15.661  0.00  0.00    -0.267 OA
ATOM      9  C   UNL d   1     -37.941  12.735  16.871  0.00  0.00     0.105 C 
ATOM     10  C   UNL d   1     -39.705  15.017  16.452  0.00  0.00     0.005 A 
ATOM     11  C   UNL d   1     -40.431  15.119  17.678  0.00  0.00     0.019 A 
ATOM     12  C   UNL d   1     -40.274  15.394  16.917  0.00  0.00     0.002 A 
ENDROOT
BRANCH   6  13
ATOM     13  N   UNL d   1     -40.178  14.192  18.737  0.00  0.00    -0.208 NA
ATOM     14  C   UNL d   1     -40.506  14.701  19.295  0.00  0.00     0.279 C 
ATOM     15  O   UNL d   1     -40.679  15.482  19.099  0.00  0.00    -0.265 OA
BRANCH  14  16
ATOM     16  C   UNL d   1     -40.664  14.426  20.056  0.00  0.00     0.062 C 
BRANCH  16  17
ATOM     17  C   UNL d   1     -40.340  14.813  20.709  0.00  0.00     0.005 A 
ATOM     18  C   UNL d   1     -39.698  14.481  21.108  0.00  0.00     0.000 A 
ATOM     19  C   UNL d   1     -39.374  14.857  21.754  0.00  0.00     0.000 A 
ATOM     20  C   UNL d   1     -39.690  15.579  22.010  0.00  0.00     0.000 A 
ATOM     21  C   UNL d   1     -40.331  15.911  21.611  0.00  0.00     0.000 A 
ATOM     22  C   UNL d   1     -40.656  15.525  20.958  0.00  0.00     0.000 A 
ENDBRANCH  16  17
ENDBRANCH  14  16
ENDBRANCH   6  13
TORSDOF 3
ENDMDL
MODEL 3
REMARK VINA RESULT:      -6.6      1.397      2.138
REMARK  3 active torsions:
REMARK  status: ('A' for Active; 'I' for Inactive)
REMARK    1  A    between atoms: N_7  and  C_6 
REMARK       I    between atoms: C_8  and  N_7 
REMARK    2  A    between atoms: C_12  and  C_8 
REMARK    3  A    between atoms: C_16  and  C_12 
ROOT
ATOM      1  C   UNL d   1     -49.121  12.664  23.226  0.00  0.00     0.269 A 
ATOM      2  N   UNL d   1     -49.927  12.492  23.090  0.00  0.00    -0.239 N 
ATOM      3  C   UNL d   1     -48.983  13.417  22.915  0.00  0.00     0.079 A 
ATOM      4  C   UNL d   1     -50.262  13.123  22.709  0.00  0.00     0.267 A 
ATOM      5  C   UNL d   1     -49.689  13.701  22.596  0.00  0.00     0.063 A 
ATOM      6  C   UNL d   1     -48.302  13.876  22.886  0.00  0.00     0.089 A 
ATOM      7  O   UNL d   1     -48.567  12.181  23.596  0.00  0.00    -0.267 OA
ATOM      8  O   UNL d   1     -51.064  13.176  22.470  0.00  0.00    -0.267 OA
ATOM      9  C   UNL d   1     -50.311  11.795  23.308  0.00  0.00     0.105 C 
ATOM     10  C   UNL d   1     -49.714  14.444  22.247  0.00  0.00     0.005 A 
ATOM     11  C   UNL d   1     -48.326  14.623  22.535  0.00  0.00     0.019 A 
ATOM     12  C   UNL d   1     -49.031  14.907  22.215  0.00  0.00     0.002 A 
ENDROOT
BRANCH   6  13
ATOM     13  N   UNL d   1     -47.597  13.592  23.205  0.00  0.00    -0.208 NA
ATOM     14  C   UNL d   1     -46.884  13.950  23.002  0.00  0.00     0.279 C 
ATOM     15  O   UNL d   1     -46.869  14.588  22.482  0.00  0.00    -0.265 OA
BRANCH  14  16
ATOM     16  C   UNL d   1     -46.178  13.666  23.321  0.00  0.00     0.062 C 
BRANCH  16  17
ATOM     17  C   UNL d   1     -45.625  13.295  22.834  0.00  0.00     0.005 A 
ATOM     18  C   UNL d   1     -45.428  12.504  22.961  0.00  0.00     0.000 A 
ATOM     19  C   UNL d   1     -44.883  12.132  22.484  0.00  0.00     0.000 A 
ATOM     20  C   UNL d   1     -44.523  12.553  21.866  0.00  0.00     0.000 A 
ATOM     21  C   UNL d   1     -44.720  13.344  21.739  0.00  0.00     0.000 A 
ATOM     22  C   UNL d   1     -45.273  13.715  22.227  0.00  0.00     0.000 A 
ENDBRANCH  16  17
ENDBRANCH  14  16
ENDBRANCH   6  13
TORSDOF 3
ENDMDL
MODEL 4
REMARK VINA RESULT:      -6.1      9.184     10.112
REMARK  3 active torsions:
REMARK  status: ('A' for Active; 'I' for Inactive)
REMARK    1  A    between atoms: N_7  and  C_6 
REMARK       I    between atoms: C_8  and  N_7 
REMARK    2  A    between atoms: C_12  and  C_8 
REMARK    3  A    between atoms: C_16  and  C_12 
ROOT
ATOM      1  C   UNL d   1     -40.451  15.100  18.108  0.00  0.00     0.269 A 
ATOM      2  N   UNL d   1     -40.430  15.237  17.285  0.00  0.00    -0.239 N 
ATOM      3  C   UNL d   1     -39.838  14.571  18.276  0.00  0.00     0.079 A 
ATOM      4  C   UNL d   1     -39.824  14.803  16.969  0.00  0.00     0.267 A 
ATOM      5  C   UNL d   1     -39.450  14.388  17.572  0.00  0.00     0.063 A 
ATOM      6  C   UNL d   1     -39.589  14.237  18.984  0.00  0.00     0.089 A 
ATOM      7  O   UNL d   1     -40.976  15.425  18.651  0.00  0.00    -0.267 OA
ATOM      8  O   UNL d   1     -39.611  14.782  16.157  0.00  0.00    -0.267 OA
ATOM      9  C   UNL d   1     -40.943  15.731  16.868  0.00  0.00     0.105 C 
ATOM     10  C   UNL d   1     -38.813  13.870  17.575  0.00  0.00     0.005 A 
ATOM     11  C   UNL d   1     -38.948  13.716  18.989  0.00  0.00     0.019 A 
ATOM     12  C   UNL d   1     -38.560  13.532  18.284  0.00  0.00     0.002 A 
ENDROOT
BRANCH   6  13
ATOM     13  N   UNL d   1     -39.976  14.420  19.689  0.00  0.00    -0.208 NA
ATOM     14  C   UNL d   1     -39.622  14.239  20.409  0.00  0.00     0.279 C 
ATOM     15  O   UNL d   1     -38.883  13.875  20.432  0.00  0.00    -0.265 OA
BRANCH  14  16
ATOM     16  C   UNL d   1     -40.009  14.422  21.114  0.00  0.00     0.062 C 
BRANCH  16  17
ATOM     17  C   UNL d   1     -39.590  14.760  21.739  0.00  0.00     0.005 A 
ATOM     18  C   UNL d   1     -39.562  15.581  21.820  0.00  0.00     0.000 A 
ATOM     19  C   UNL d   1     -39.150  15.921  22.435  0.00  0.00     0.000 A 
ATOM     20  C   UNL d   1     -38.756  15.438  22.982  0.00  0.00     0.000 A 
ATOM     21  C   UNL d   1     -38.784  14.617  22.901  0.00  0.00     0.000 A 
ATOM     22  C   UNL d   1     -39.203  14.279  22.275  0.00  0.00     0.000 A 
ENDBRANCH  16  17
ENDBRANCH  14  16
ENDBRANCH   6  13
TORSDOF 3
ENDMDL
MODEL 5
REMARK VINA RESULT:      -5.5      9.697     10.607
REMARK  3 active torsions:
REMARK  status: ('A' for Active; 'I' for Inactive)
REMARK    1  A    between atoms: N_7  and  C_6 
REMARK       I    between atoms: C_8  and  N_7 
REMARK    2  A    between atoms: C_12  and  C_8 
REMARK    3  A    between atoms: C_16  and  C_12 
ROOT
ATOM      1  C   UNL d   1     -38.525  13.760  21.313  0.00  0.00     0.269 A 
ATOM      2  N   UNL d   1     -38.386  13.579  22.116  0.00  0.00    -0.239 N 
ATOM      3  C   UNL d   1     -38.929  14.481  21.298  0.00  0.00     0.079 A 
ATOM      4  C   UNL d   1     -38.698  14.173  22.569  0.00  0.00     0.267 A 
ATOM      5  C   UNL d   1     -39.036  14.737  22.075  0.00  0.00     0.063 A 
ATOM      6  C   UNL d   1     -39.211  14.932  20.672  0.00  0.00     0.089 A 
ATOM      7  O   UNL d   1     -38.304  13.311  20.659  0.00  0.00    -0.267 OA
ATOM      8  O   UNL d   1     -38.678  14.208  23.408  0.00  0.00    -0.267 OA
ATOM      9  C   UNL d   1     -37.997  12.908  22.396  0.00  0.00     0.105 C 
ATOM     10  C   UNL d   1     -39.424  15.444  22.226  0.00  0.00     0.005 A 
ATOM     11  C   UNL d   1     -39.602  15.643  20.822  0.00  0.00     0.019 A 
ATOM     12  C   UNL d   1     -39.709  15.899  21.599  0.00  0.00     0.002 A 
ENDROOT
BRANCH   6  13
ATOM     13  N   UNL d   1     -39.104  14.676  19.895  0.00  0.00    -0.208 NA
ATOM     14  C   UNL d   1     -39.312  15.170  19.270  0.00  0.00     0.279 C 
ATOM     15  O   UNL d   1     -39.626  15.918  19.414  0.00  0.00    -0.265 OA
BRANCH  14  16
ATOM     16  C   UNL d   1     -39.205  14.915  18.493  0.00  0.00     0.062 C 
BRANCH  16  17
ATOM     17  C   UNL d   1     -39.765  15.101  17.917  0.00  0.00     0.005 A 
ATOM     18  C   UNL d   1     -39.632  15.731  17.401  0.00  0.00     0.000 A 
ATOM     19  C   UNL d   1     -40.180  15.921  16.830  0.00  0.00     0.000 A 
ATOM     20  C   UNL d   1     -40.878  15.478  16.768  0.00  0.00     0.000 A 
ATOM     21  C   UNL d   1     -41.012  14.848  17.284  0.00  0.00     0.000 A 
ATOM     22  C   UNL d   1     -40.452  14.661  17.861  0.00  0.00     0.000 A 
ENDBRANCH  16  17
ENDBRANCH  14  16
ENDBRANCH   6  13
TORSDOF 3
ENDMDL
MODEL 6
REMARK VINA RESULT:      -5.2      8.906     10.798
REMARK  3 active torsions:
REMARK  status: ('A' for Active; 'I' for Inactive)
REMARK    1  A    between atoms: N_7  and  C_6 
REMARK       I    between atoms: C_8  and  N_7 
REMARK    2  A    between atoms: C_12  and  C_8 
REMARK    3  A    between atoms: C_16  and  C_12 
ROOT
ATOM      1  C   UNL d   1     -40.458  14.625  19.925  0.00  0.00     0.269 A 
ATOM      2  N   UNL d   1     -40.620  14.539  20.740  0.00  0.00    -0.239 N 
ATOM      3  C   UNL d   1     -39.756  15.058  19.868  0.00  0.00     0.079 A 
ATOM      4  C   UNL d   1     -40.034  14.908  21.158  0.00  0.00     0.267 A 
ATOM      5  C   UNL d   1     -39.494  15.233  20.630  0.00  0.00     0.063 A 
ATOM      6  C   UNL d   1     -39.328  15.313  19.215  0.00  0.00     0.089 A 
ATOM      7  O   UNL d   1     -40.906  14.338  19.298  0.00  0.00    -0.267 OA
ATOM      8  O   UNL d   1     -39.986  14.952  21.995  0.00  0.00    -0.267 OA
ATOM      9  C   UNL d   1     -41.269  14.142  21.060  0.00  0.00     0.105 C 
ATOM     10  C   UNL d   1     -38.803  15.662  20.739  0.00  0.00     0.005 A 
ATOM     11  C   UNL d   1     -38.632  15.745  19.323  0.00  0.00     0.019 A 
ATOM     12  C   UNL d   1     -38.370  15.919  20.086  0.00  0.00     0.002 A 
ENDROOT
BRANCH   6  13
ATOM     13  N   UNL d   1     -39.590  15.138  18.452  0.00  0.00    -0.208 NA
ATOM     14  C   UNL d   1     -39.091  15.263  17.810  0.00  0.00     0.279 C 
ATOM     15  O   UNL d   1     -38.332  15.562  17.922  0.00  0.00    -0.265 OA
BRANCH  14  16
ATOM     16  C   UNL d   1     -39.353  15.089  17.048  0.00  0.00     0.062 C 
BRANCH  16  17
ATOM     17  C   UNL d   1     -38.880  14.640  16.542  0.00  0.00     0.005 A 
ATOM     18  C   UNL d   1     -38.778  13.833  16.682  0.00  0.00     0.000 A 
ATOM     19  C   UNL d   1     -38.312  13.384  16.187  0.00  0.00     0.000 A 
ATOM     20  C   UNL d   1     -37.940  13.741  15.538  0.00  0.00     0.000 A 
ATOM     21  C   UNL d   1     -38.042  14.548  15.398  0.00  0.00     0.000 A 
ATOM     22  C   UNL d   1     -38.515  14.997  15.904  0.00  0.00     0.000 A 
ENDBRANCH  16  17
ENDBRANCH  14  16
ENDBRANCH   6  13
TORSDOF 3
ENDMDL
