MODEL 1
REMARK VINA RESULT:      75.1      0.000      0.000
REMARK  4 active torsions:
REMARK  status: ('A' for Active; 'I' for Inactive)
REMARK    1  A    between atoms: C_11  and  N_3 
REMARK    2  A    between atoms: C_10  and  C_5 
REMARK    3  A    between atoms: C_21  and  C_11 
REMARK    4  A    between atoms: N_12  and  C_21 
ROOT
ATOM      1  C   UNL d   1      14.652  15.859  -3.020  0.00  0.00     0.085 A 
ATOM      2  C   UNL d   1      14.342  15.313  -3.572  0.00  0.00     0.161 A 
ATOM      3  N   UNL d   1      14.373  14.727  -2.367  0.00  0.00    -0.268 N 
ATOM      4  C   UNL d   1      14.171  14.618  -3.165  0.00  0.00     0.288 A 
ATOM      5  C   UNL d   1      14.668  15.492  -2.281  0.00  0.00     0.095 A 
ATOM      6  C   UNL d   1      14.877  16.618  -3.275  0.00  0.00     0.201 A 
ATOM      7  O   UNL d   1      14.261  15.530  -4.363  0.00  0.00    -0.302 OA
ATOM      8  C   UNL d   1      14.790  16.824  -4.072  0.00  0.00     0.063 A 
ATOM      9  C   UNL d   1      14.482  16.281  -4.621  0.00  0.00     0.103 A 
ATOM     10  O   UNL d   1      13.854  13.927  -3.493  0.00  0.00    -0.264 OA
ATOM     11  O   UNL d   1      15.183  17.160  -2.735  0.00  0.00    -0.286 OA
ATOM     12  C   UNL d   1      15.014  17.578  -4.320  0.00  0.00     0.017 A 
ATOM     13  C   UNL d   1      14.403  16.503  -5.407  0.00  0.00     0.026 A 
ATOM     14  C   UNL d   1      14.932  17.792  -5.110  0.00  0.00     0.058 A 
ATOM     15  C   UNL d   1      14.627  17.254  -5.653  0.00  0.00     0.013 A 
ATOM     16 CL   UNL d   1      15.156  18.544  -5.355  0.00  0.00    -0.082 Cl
ENDROOT
BRANCH   3  17
ATOM     17  C   UNL d   1      14.291  14.168  -1.768  0.00  0.00     0.102 C 
BRANCH  17  18
ATOM     18  C   UNL d   1      14.664  13.434  -1.825  0.00  0.00     0.100 C 
BRANCH  18  19
ATOM     19  N   UNL d   1      14.594  12.881  -1.219  0.00  0.00    -0.298 N 
ATOM     20  C   UNL d   1      15.153  12.860  -0.625  0.00  0.00     0.107 A 
ATOM     21  C   UNL d   1      15.083  12.307  -0.020  0.00  0.00     0.142 A 
ATOM     22  O   UNL d   1      14.454  11.780  -0.015  0.00  0.00    -0.300 OA
ATOM     23  C   UNL d   1      13.895  11.806  -0.616  0.00  0.00     0.142 A 
ATOM     24  C   UNL d   1      13.965  12.359  -1.221  0.00  0.00     0.107 A 
ENDBRANCH  18  19
ENDBRANCH  17  18
ENDBRANCH   3  17
BRANCH   5  25
ATOM     25  C   UNL d   1      14.943  15.869  -1.600  0.00  0.00     0.116 A 
ATOM     26  O   UNL d   1      14.615  16.542  -1.238  0.00  0.00    -0.304 OA
ATOM     27  C   UNL d   1      15.068  16.724  -0.574  0.00  0.00     0.123 A 
ATOM     28  C   UNL d   1      15.678  16.171  -0.516  0.00  0.00     0.029 A 
ATOM     29  C   UNL d   1      15.603  15.641  -1.150  0.00  0.00     0.028 A 
ENDBRANCH   5  25
TORSDOF 4
ENDMDL
MODEL 2
REMARK VINA RESULT:      75.9      1.977      4.704
REMARK  4 active torsions:
REMARK  status: ('A' for Active; 'I' for Inactive)
REMARK    1  A    between atoms: C_11  and  N_3 
REMARK    2  A    between atoms: C_10  and  C_5 
REMARK    3  A    between atoms: C_21  and  C_11 
REMARK    4  A    between atoms: N_12  and  C_21 
ROOT
ATOM      1  C   UNL d   1      14.436  14.559  -2.408  0.00  0.00     0.085 A 
ATOM      2  C   UNL d   1      14.133  14.095  -3.034  0.00  0.00     0.161 A 
ATOM      3  N   UNL d   1      14.254  15.360  -3.463  0.00  0.00    -0.268 N 
ATOM      4  C   UNL d   1      14.022  14.593  -3.681  0.00  0.00     0.288 A 
ATOM      5  C   UNL d   1      14.508  15.335  -2.678  0.00  0.00     0.095 A 
ATOM      6  C   UNL d   1      14.604  14.202  -1.676  0.00  0.00     0.201 A 
ATOM      7  O   UNL d   1      14.003  13.289  -2.923  0.00  0.00    -0.302 OA
ATOM      8  C   UNL d   1      14.469  13.391  -1.577  0.00  0.00     0.063 A 
ATOM      9  C   UNL d   1      14.168  12.930  -2.199  0.00  0.00     0.103 A 
ATOM     10  O   UNL d   1      13.731  14.369  -4.424  0.00  0.00    -0.264 OA
ATOM     11  O   UNL d   1      14.903  14.654  -1.056  0.00  0.00    -0.286 OA
ATOM     12  C   UNL d   1      14.637  13.041  -0.849  0.00  0.00     0.017 A 
ATOM     13  C   UNL d   1      14.040  12.128  -2.082  0.00  0.00     0.026 A 
ATOM     14  C   UNL d   1      14.506  12.237  -0.740  0.00  0.00     0.058 A 
ATOM     15  C   UNL d   1      14.208  11.780  -1.357  0.00  0.00     0.013 A 
ATOM     16 CL   UNL d   1      14.674  11.890  -0.014  0.00  0.00    -0.082 Cl
ENDROOT
BRANCH   3  17
ATOM     17  C   UNL d   1      14.232  16.026  -3.946  0.00  0.00     0.102 C 
BRANCH  17  18
ATOM     18  C   UNL d   1      14.211  15.949  -4.767  0.00  0.00     0.100 C 
BRANCH  18  19
ATOM     19  N   UNL d   1      14.115  16.610  -5.248  0.00  0.00    -0.298 N 
ATOM     20  C   UNL d   1      14.608  17.253  -5.151  0.00  0.00     0.107 A 
ATOM     21  C   UNL d   1      14.512  17.915  -5.632  0.00  0.00     0.142 A 
ATOM     22  O   UNL d   1      13.924  17.926  -6.204  0.00  0.00    -0.300 OA
ATOM     23  C   UNL d   1      13.431  17.275  -6.296  0.00  0.00     0.142 A 
ATOM     24  C   UNL d   1      13.527  16.614  -5.815  0.00  0.00     0.107 A 
ENDBRANCH  18  19
ENDBRANCH  17  18
ENDBRANCH   3  17
BRANCH   5  25
ATOM     25  C   UNL d   1      14.791  15.950  -2.205  0.00  0.00     0.116 A 
ATOM     26  O   UNL d   1      14.336  16.471  -1.743  0.00  0.00    -0.304 OA
ATOM     27  C   UNL d   1      14.849  16.994  -1.365  0.00  0.00     0.123 A 
ATOM     28  C   UNL d   1      15.622  16.806  -1.586  0.00  0.00     0.029 A 
ATOM     29  C   UNL d   1      15.588  16.160  -2.106  0.00  0.00     0.028 A 
ENDBRANCH   5  25
TORSDOF 4
ENDMDL
