MODEL 1
REMARK VINA RESULT:      -1.8      0.000      0.000
REMARK  4 active torsions:
REMARK  status: ('A' for Active; 'I' for Inactive)
REMARK    1  A    between atoms: S_5  and  C_3 
REMARK    2  A    between atoms: C_12  and  S_5 
REMARK    3  A    between atoms: C_23  and  N_6 
REMARK    4  A    between atoms: C_28  and  C_23 
ROOT
ATOM      1  C   UNL d   1      32.973  21.316 -22.517  0.00  0.00     0.155 A 
ATOM      2  C   UNL d   1      32.814  20.768 -21.934  0.00  0.00     0.092 A 
ATOM      3  C   UNL d   1      32.838  19.732 -22.896  0.00  0.00     0.124 A 
ATOM      4  N   UNL d   1      33.041  22.115 -22.325  0.00  0.00    -0.210 NA
ATOM      5  N   UNL d   1      33.065  21.078 -23.286  0.00  0.00    -0.273 N 
ATOM      6  C   UNL d   1      33.000  20.286 -23.486  0.00  0.00     0.181 A 
ATOM      7  C   UNL d   1      32.721  21.009 -21.155  0.00  0.00     0.269 A 
ATOM      8  N   UNL d   1      32.789  21.805 -20.965  0.00  0.00    -0.258 N 
ATOM      9  C   UNL d   1      32.746  19.976 -22.120  0.00  0.00     0.022 A 
ATOM     10  C   UNL d   1      32.950  22.355 -21.558  0.00  0.00     0.152 A 
ATOM     11  N   UNL d   1      33.095  20.048 -24.275  0.00  0.00    -0.128 N 
ATOM     12  C   UNL d   1      32.697  22.058 -20.187  0.00  0.00     0.084 A 
ATOM     13  O   UNL d   1      32.558  20.452 -20.556  0.00  0.00    -0.266 OA
ATOM     14  C   UNL d   1      33.018  23.154 -21.366  0.00  0.00     0.038 A 
ATOM     15  C   UNL d   1      32.765  22.851 -20.000  0.00  0.00     0.019 A 
ATOM     16  C   UNL d   1      32.927  23.402 -20.593  0.00  0.00     0.005 A 
ENDROOT
BRANCH   3  17
ATOM     17  S   UNL d   1      32.770  18.930 -23.092  0.00  0.00     0.213 S 
ATOM     18  O   UNL d   1      33.216  18.716 -22.420  0.00  0.00    -0.217 OA
ATOM     19  O   UNL d   1      32.326  19.131 -23.762  0.00  0.00    -0.217 OA
BRANCH  17  20
ATOM     20  C   UNL d   1      32.695  18.124 -23.299  0.00  0.00     0.088 A 
ATOM     21  C   UNL d   1      33.078  17.543 -22.851  0.00  0.00     0.014 A 
ATOM     22  C   UNL d   1      33.003  16.737 -23.058  0.00  0.00     0.030 A 
ATOM     23  C   UNL d   1      32.545  16.519 -23.714  0.00  0.00     0.140 A 
ATOM     24  C   UNL d   1      32.159  17.113 -24.164  0.00  0.00     0.030 A 
ATOM     25  F   UNL d   1      32.466  15.720 -23.926  0.00  0.00    -0.204 F 
ATOM     26  C   UNL d   1      32.235  17.914 -23.957  0.00  0.00     0.014 A 
ENDBRANCH  17  20
ENDBRANCH   3  17
BRANCH   5  27
ATOM     27  C   UNL d   1      33.229  21.641 -23.886  0.00  0.00     0.083 C 
BRANCH  27  28
ATOM     28  C   UNL d   1      32.598  21.976 -24.320  0.00  0.00     0.019 C 
ATOM     29  C   UNL d   1      32.725  22.640 -24.810  0.00  0.00     0.002 C 
ENDBRANCH  27  28
ENDBRANCH   5  27
TORSDOF 4
ENDMDL
MODEL 2
REMARK VINA RESULT:      -1.5      2.218      4.683
REMARK  4 active torsions:
REMARK  status: ('A' for Active; 'I' for Inactive)
REMARK    1  A    between atoms: S_5  and  C_3 
REMARK    2  A    between atoms: C_12  and  S_5 
REMARK    3  A    between atoms: C_23  and  N_6 
REMARK    4  A    between atoms: C_28  and  C_23 
ROOT
ATOM      1  C   UNL d   1      33.048  20.899 -22.881  0.00  0.00     0.155 A 
ATOM      2  C   UNL d   1      32.928  20.475 -22.194  0.00  0.00     0.092 A 
ATOM      3  C   UNL d   1      32.947  21.675 -21.446  0.00  0.00     0.124 A 
ATOM      4  N   UNL d   1      33.098  20.507 -23.604  0.00  0.00    -0.210 NA
ATOM      5  N   UNL d   1      33.117  21.706 -22.856  0.00  0.00    -0.273 N 
ATOM      6  C   UNL d   1      33.068  22.105 -22.140  0.00  0.00     0.181 A 
ATOM      7  C   UNL d   1      32.857  19.658 -22.221  0.00  0.00     0.269 A 
ATOM      8  N   UNL d   1      32.908  19.269 -22.942  0.00  0.00    -0.258 N 
ATOM      9  C   UNL d   1      32.877  20.860 -21.476  0.00  0.00     0.022 A 
ATOM     10  C   UNL d   1      33.029  19.702 -23.633  0.00  0.00     0.152 A 
ATOM     11  N   UNL d   1      33.140  22.930 -22.120  0.00  0.00    -0.128 N 
ATOM     12  C   UNL d   1      32.839  18.449 -22.980  0.00  0.00     0.084 A 
ATOM     13  O   UNL d   1      32.735  19.221 -21.521  0.00  0.00    -0.266 OA
ATOM     14  C   UNL d   1      33.080  19.310 -24.356  0.00  0.00     0.038 A 
ATOM     15  C   UNL d   1      32.889  18.064 -23.699  0.00  0.00     0.019 A 
ATOM     16  C   UNL d   1      33.011  18.496 -24.391  0.00  0.00     0.005 A 
ENDROOT
BRANCH   3  17
ATOM     17  S   UNL d   1      32.896  22.072 -20.721  0.00  0.00     0.213 S 
ATOM     18  O   UNL d   1      32.662  21.368 -20.339  0.00  0.00    -0.217 OA
ATOM     19  O   UNL d   1      33.128  22.776 -21.090  0.00  0.00    -0.217 OA
BRANCH  17  20
ATOM     20  C   UNL d   1      32.849  22.482 -19.995  0.00  0.00     0.088 A 
ATOM     21  C   UNL d   1      32.423  23.190 -19.945  0.00  0.00     0.014 A 
ATOM     22  C   UNL d   1      32.375  23.600 -19.218  0.00  0.00     0.030 A 
ATOM     23  C   UNL d   1      32.755  23.298 -18.546  0.00  0.00     0.140 A 
ATOM     24  C   UNL d   1      33.185  22.579 -18.604  0.00  0.00     0.030 A 
ATOM     25  F   UNL d   1      32.712  23.700 -17.821  0.00  0.00    -0.204 F 
ATOM     26  C   UNL d   1      33.231  22.172 -19.326  0.00  0.00     0.014 A 
ENDBRANCH  17  20
ENDBRANCH   3  17
BRANCH   5  27
ATOM     27  C   UNL d   1      33.241  22.143 -23.561  0.00  0.00     0.083 C 
BRANCH  27  28
ATOM     28  C   UNL d   1      32.675  22.712 -23.797  0.00  0.00     0.019 C 
ATOM     29  C   UNL d   1      32.733  23.084 -24.542  0.00  0.00     0.002 C 
ENDBRANCH  27  28
ENDBRANCH   5  27
TORSDOF 4
ENDMDL
MODEL 3
REMARK VINA RESULT:       0.3      2.026      4.534
REMARK  4 active torsions:
REMARK  status: ('A' for Active; 'I' for Inactive)
REMARK    1  A    between atoms: S_5  and  C_3 
REMARK    2  A    between atoms: C_12  and  S_5 
REMARK    3  A    between atoms: C_23  and  N_6 
REMARK    4  A    between atoms: C_28  and  C_23 
ROOT
ATOM      1  C   UNL d   1      33.143  19.915 -23.243  0.00  0.00     0.155 A 
ATOM      2  C   UNL d   1      33.095  19.611 -22.488  0.00  0.00     0.092 A 
ATOM      3  C   UNL d   1      33.143  20.920 -21.954  0.00  0.00     0.124 A 
ATOM      4  N   UNL d   1      33.143  19.407 -23.893  0.00  0.00    -0.210 NA
ATOM      5  N   UNL d   1      33.190  20.716 -23.358  0.00  0.00    -0.273 N 
ATOM      6  C   UNL d   1      33.191  21.228 -22.718  0.00  0.00     0.181 A 
ATOM      7  C   UNL d   1      33.047  18.800 -22.371  0.00  0.00     0.269 A 
ATOM      8  N   UNL d   1      33.047  18.296 -23.019  0.00  0.00    -0.258 N 
ATOM      9  C   UNL d   1      33.095  20.110 -21.842  0.00  0.00     0.022 A 
ATOM     10  C   UNL d   1      33.095  18.608 -23.781  0.00  0.00     0.152 A 
ATOM     11  N   UNL d   1      33.240  22.046 -22.841  0.00  0.00    -0.128 N 
ATOM     12  C   UNL d   1      32.999  17.480 -22.915  0.00  0.00     0.084 A 
ATOM     13  O   UNL d   1      32.998  18.484 -21.601  0.00  0.00    -0.266 OA
ATOM     14  C   UNL d   1      33.095  18.101 -24.431  0.00  0.00     0.038 A 
ATOM     15  C   UNL d   1      32.999  16.980 -23.561  0.00  0.00     0.019 A 
ATOM     16  C   UNL d   1      33.048  17.292 -24.323  0.00  0.00     0.005 A 
ENDROOT
BRANCH   3  17
ATOM     17  S   UNL d   1      33.143  21.432 -21.303  0.00  0.00     0.213 S 
ATOM     18  O   UNL d   1      33.241  20.788 -20.782  0.00  0.00    -0.217 OA
ATOM     19  O   UNL d   1      33.046  22.078 -21.812  0.00  0.00    -0.217 OA
BRANCH  17  20
ATOM     20  C   UNL d   1      33.142  21.957 -20.654  0.00  0.00     0.088 A 
ATOM     21  C   UNL d   1      33.149  21.663 -19.881  0.00  0.00     0.014 A 
ATOM     22  C   UNL d   1      33.148  22.188 -19.231  0.00  0.00     0.030 A 
ATOM     23  C   UNL d   1      33.140  23.007 -19.361  0.00  0.00     0.140 A 
ATOM     24  C   UNL d   1      33.133  23.300 -20.148  0.00  0.00     0.030 A 
ATOM     25  F   UNL d   1      33.138  23.536 -18.722  0.00  0.00    -0.204 F 
ATOM     26  C   UNL d   1      33.134  22.776 -20.793  0.00  0.00     0.014 A 
ENDBRANCH  17  20
ENDBRANCH   3  17
BRANCH   5  27
ATOM     27  C   UNL d   1      33.239  21.029 -24.135  0.00  0.00     0.083 C 
BRANCH  27  28
ATOM     28  C   UNL d   1      33.132  21.850 -24.255  0.00  0.00     0.019 C 
ATOM     29  C   UNL d   1      33.123  22.168 -25.027  0.00  0.00     0.002 C 
ENDBRANCH  27  28
ENDBRANCH   5  27
TORSDOF 4
ENDMDL
MODEL 4
REMARK VINA RESULT:       0.7      1.328      2.110
REMARK  4 active torsions:
REMARK  status: ('A' for Active; 'I' for Inactive)
REMARK    1  A    between atoms: S_5  and  C_3 
REMARK    2  A    between atoms: C_12  and  S_5 
REMARK    3  A    between atoms: C_23  and  N_6 
REMARK    4  A    between atoms: C_28  and  C_23 
ROOT
ATOM      1  C   UNL d   1      33.209  22.077 -20.553  0.00  0.00     0.155 A 
ATOM      2  C   UNL d   1      33.218  21.327 -20.231  0.00  0.00     0.092 A 
ATOM      3  C   UNL d   1      33.206  20.765 -21.528  0.00  0.00     0.124 A 
ATOM      4  N   UNL d   1      33.211  22.737 -20.060  0.00  0.00    -0.210 NA
ATOM      5  N   UNL d   1      33.199  22.174 -21.358  0.00  0.00    -0.273 N 
ATOM      6  C   UNL d   1      33.198  21.522 -21.855  0.00  0.00     0.181 A 
ATOM      7  C   UNL d   1      33.228  21.228 -19.416  0.00  0.00     0.269 A 
ATOM      8  N   UNL d   1      33.229  21.887 -18.927  0.00  0.00    -0.258 N 
ATOM      9  C   UNL d   1      33.216  20.670 -20.715  0.00  0.00     0.022 A 
ATOM     10  C   UNL d   1      33.221  22.643 -19.258  0.00  0.00     0.152 A 
ATOM     11  N   UNL d   1      33.187  21.628 -22.677  0.00  0.00    -0.128 N 
ATOM     12  C   UNL d   1      33.239  21.800 -18.108  0.00  0.00     0.084 A 
ATOM     13  O   UNL d   1      33.237  20.464 -19.082  0.00  0.00    -0.266 OA
ATOM     14  C   UNL d   1      33.222  23.304 -18.765  0.00  0.00     0.038 A 
ATOM     15  C   UNL d   1      33.241  22.458 -17.622  0.00  0.00     0.019 A 
ATOM     16  C   UNL d   1      33.232  23.214 -17.953  0.00  0.00     0.005 A 
ENDROOT
BRANCH   3  17
ATOM     17  S   UNL d   1      33.205  20.102 -22.025  0.00  0.00     0.213 S 
ATOM     18  O   UNL d   1      33.170  19.593 -21.366  0.00  0.00    -0.217 OA
ATOM     19  O   UNL d   1      33.239  20.599 -22.688  0.00  0.00    -0.217 OA
BRANCH  17  20
ATOM     20  C   UNL d   1      33.204  19.441 -22.536  0.00  0.00     0.088 A 
ATOM     21  C   UNL d   1      33.192  19.551 -23.357  0.00  0.00     0.014 A 
ATOM     22  C   UNL d   1      33.191  18.890 -23.868  0.00  0.00     0.030 A 
ATOM     23  C   UNL d   1      33.202  18.123 -23.553  0.00  0.00     0.140 A 
ATOM     24  C   UNL d   1      33.214  18.019 -22.720  0.00  0.00     0.030 A 
ATOM     25  F   UNL d   1      33.201  17.461 -24.054  0.00  0.00    -0.204 F 
ATOM     26  C   UNL d   1      33.215  18.677 -22.213  0.00  0.00     0.014 A 
ENDBRANCH  17  20
ENDBRANCH   3  17
BRANCH   5  27
ATOM     27  C   UNL d   1      33.190  22.945 -21.690  0.00  0.00     0.083 C 
BRANCH  27  28
ATOM     28  C   UNL d   1      32.477  23.250 -22.002  0.00  0.00     0.019 C 
ATOM     29  C   UNL d   1      32.479  23.694 -22.709  0.00  0.00     0.002 C 
ENDBRANCH  27  28
ENDBRANCH   5  27
TORSDOF 4
ENDMDL
