MODEL 1
REMARK VINA RESULT:      47.8      0.000      0.000
REMARK  3 active torsions:
REMARK  status: ('A' for Active; 'I' for Inactive)
REMARK    1  A    between atoms: C_4  and  C_1 
REMARK    2  A    between atoms: C_13  and  N_2 
REMARK    3  A    between atoms: C_10  and  C_13 
ROOT
ATOM      1  C   UNL d   1      58.834  49.698  50.977  0.00  0.00     0.171 A 
ATOM      2  N   UNL d   1      59.718  49.698  50.786  0.00  0.00    -0.286 N 
ATOM      3  N   UNL d   1      58.759  49.701  51.878  0.00  0.00    -0.225 NA
ATOM      4  C   UNL d   1      60.182  49.700  51.555  0.00  0.00     0.083 A 
ATOM      5  C   UNL d   1      59.577  49.702  52.244  0.00  0.00     0.099 A 
ATOM      6  C   UNL d   1      61.073  49.701  51.722  0.00  0.00     0.019 A 
ATOM      7  C   UNL d   1      59.875  49.705  53.087  0.00  0.00     0.021 A 
ATOM      8  C   UNL d   1      61.345  49.703  52.577  0.00  0.00     0.002 A 
ATOM      9  C   UNL d   1      60.741  49.705  53.265  0.00  0.00     0.002 A 
ENDROOT
BRANCH   2  10
ATOM     10  C   UNL d   1      60.453  49.697  50.556  0.00  0.00     0.106 C 
BRANCH  10  11
ATOM     11  C   UNL d   1      60.789  48.999  50.319  0.00  0.00     0.118 A 
ATOM     12  O   UNL d   1      60.827  48.329  50.730  0.00  0.00    -0.299 OA
ATOM     13  C   UNL d   1      61.205  47.755  50.306  0.00  0.00     0.134 A 
ATOM     14 BR   UNL d   1      61.391  46.987  50.457  0.00  0.00    -0.022 Br
ATOM     15  C   UNL d   1      61.408  48.087  49.602  0.00  0.00     0.034 A 
ATOM     16  C   UNL d   1      61.157  48.864  49.592  0.00  0.00     0.029 A 
ENDBRANCH  10  11
ENDBRANCH   2  10
BRANCH   1  17
ATOM     17  C   UNL d   1      58.163  49.697  50.387  0.00  0.00     0.135 A 
ATOM     18  O   UNL d   1      57.376  49.705  50.594  0.00  0.00    -0.297 OA
ATOM     19  C   UNL d   1      56.967  49.700  49.888  0.00  0.00     0.134 A 
ATOM     20 BR   UNL d   1      56.241  49.701  49.525  0.00  0.00    -0.022 Br
ATOM     21  C   UNL d   1      57.504  49.689  49.276  0.00  0.00     0.034 A 
ATOM     22  C   UNL d   1      58.245  49.687  49.603  0.00  0.00     0.030 A 
ENDBRANCH   1  17
TORSDOF 3
ENDMDL
