MODEL 1
REMARK VINA RESULT:      -4.8      0.000      0.000
REMARK  5 active torsions:
REMARK  status: ('A' for Active; 'I' for Inactive)
REMARK    1  A    between atoms: O_8  and  C_1 
REMARK    2  A    between atoms: C_12  and  C_5 
REMARK    3  A    between atoms: C_10  and  O_8 
REMARK    4  A    between atoms: N_16  and  C_12 
REMARK    5  A    between atoms: O_19  and  C_15 
ROOT
ATOM      1  C   UNL d   1     -41.413-122.392 -51.312  0.00  0.00     0.161 A 
ATOM      2  C   UNL d   1     -41.430-122.394 -52.973  0.00  0.00     0.108 A 
ATOM      3  C   UNL d   1     -41.280-123.103 -52.555  0.00  0.00     0.064 A 
ATOM      4  C   UNL d   1     -41.271-123.103 -51.733  0.00  0.00     0.222 A 
ATOM      5  C   UNL d   1     -41.439-122.394 -53.804  0.00  0.00     0.079 A 
ATOM      6  O   UNL d   1     -41.572-121.686 -52.565  0.00  0.00    -0.305 OA
ATOM      7  C   UNL d   1     -41.562-121.690 -51.726  0.00  0.00     0.126 A 
ATOM      8  C   UNL d   1     -41.139-123.804 -52.982  0.00  0.00     0.009 A 
ATOM      9  C   UNL d   1     -41.298-123.099 -54.214  0.00  0.00     0.199 A 
ATOM     10  O   UNL d   1     -41.123-123.800 -51.317  0.00  0.00    -0.284 OA
ATOM     11  C   UNL d   1     -41.149-123.799 -53.805  0.00  0.00     0.042 A 
ATOM     12  O   UNL d   1     -41.309-123.088 -55.042  0.00  0.00    -0.286 OA
ATOM     13  C   UNL d   1     -41.702-120.992 -51.312  0.00  0.00     0.029 C 
ENDROOT
BRANCH   1  14
ATOM     14  O   UNL d   1     -41.404-122.396 -50.489  0.00  0.00    -0.300 OA
BRANCH  14  15
ATOM     15  C   UNL d   1     -42.077-122.621 -50.072  0.00  0.00     0.122 A 
ATOM     16  C   UNL d   1     -42.006-122.907 -49.303  0.00  0.00     0.117 A 
ATOM     17  C   UNL d   1     -42.680-123.132 -48.886  0.00  0.00     0.026 A 
ATOM     18  C   UNL d   1     -43.423-123.071 -49.238  0.00  0.00     0.002 A 
ATOM     19  C   UNL d   1     -43.489-122.780 -50.017  0.00  0.00     0.002 A 
ATOM     20  C   UNL d   1     -42.818-122.558 -50.428  0.00  0.00     0.027 A 
BRANCH  16  21
ATOM     21  O   UNL d   1     -41.263-122.968 -48.952  0.00  0.00    -0.326 OA
ATOM     22  C   UNL d   1     -41.198-123.232 -48.176  0.00  0.00     0.181 C 
ENDBRANCH  16  21
ENDBRANCH  14  15
ENDBRANCH   1  14
BRANCH   5  23
ATOM     23  C   UNL d   1     -41.588-121.693 -54.213  0.00  0.00     0.086 C 
BRANCH  23  24
ATOM     24  N   UNL d   1     -42.196-121.666 -54.760  0.00  0.00    -0.300 N 
ATOM     25  C   UNL d   1     -42.960-121.473 -54.517  0.00  0.00     0.100 C 
ATOM     26  C   UNL d   1     -42.050-121.831 -55.558  0.00  0.00     0.100 C 
ENDBRANCH  23  24
ENDBRANCH   5  23
TORSDOF 5
ENDMDL
