MODEL 1
REMARK VINA RESULT:      -7.4      0.000      0.000
REMARK  5 active torsions:
REMARK  status: ('A' for Active; 'I' for Inactive)
REMARK    1  A    between atoms: C_7  and  C_1 
REMARK    2  A    between atoms: N_8  and  C_7 
REMARK    3  A    between atoms: C_9  and  N_8 
REMARK    4  A    between atoms: O_17  and  C_13 
REMARK    5  A    between atoms: O_20  and  C_15 
ROOT
ATOM      1  C   UNL d   1     -46.188  12.588  22.956  0.00  0.00     0.145 A 
ATOM      2  C   UNL d   1     -45.478  12.830  22.611  0.00  0.00     0.305 A 
ATOM      3  C   UNL d   1     -46.235  11.861  23.339  0.00  0.00     0.305 A 
ATOM      4  O   UNL d   1     -45.572  11.373  23.377  0.00  0.00    -0.269 OA
ATOM      5  O   UNL d   1     -44.824  12.341  22.653  0.00  0.00    -0.269 OA
ATOM      6  C   UNL d   1     -44.871  11.614  23.035  0.00  0.00     0.242 A 
ATOM      7  O   UNL d   1     -46.952  11.613  23.689  0.00  0.00    -0.259 OA
ATOM      8  O   UNL d   1     -45.432  13.557  22.229  0.00  0.00    -0.259 OA
ATOM      9  C   UNL d   1     -45.306  11.054  23.454  0.00  0.00     0.035 A 
ATOM     10  C   UNL d   1     -44.068  11.468  22.856  0.00  0.00     0.035 A 
ATOM     11  C   UNL d   1     -43.712  10.765  23.099  0.00  0.00     0.001 A 
ATOM     12  C   UNL d   1     -44.952  10.351  23.698  0.00  0.00     0.001 A 
ATOM     13  C   UNL d   1     -44.149  10.206  23.519  0.00  0.00    -0.000 A 
ENDROOT
BRANCH   1  14
ATOM     14  C   UNL d   1     -46.858  13.080  22.919  0.00  0.00     0.110 C 
BRANCH  14  15
ATOM     15  N   UNL d   1     -47.431  12.953  22.338  0.00  0.00    -0.242 NA
BRANCH  15  16
ATOM     16  C   UNL d   1     -48.102  13.431  22.315  0.00  0.00     0.106 A 
ATOM     17  C   UNL d   1     -48.178  14.063  22.837  0.00  0.00     0.045 A 
ATOM     18  C   UNL d   1     -48.843  14.538  22.816  0.00  0.00     0.096 A 
ATOM     19  C   UNL d   1     -49.449  14.384  22.263  0.00  0.00     0.026 A 
ATOM     20  C   UNL d   1     -49.373  13.753  21.741  0.00  0.00     0.028 A 
ATOM     21  C   UNL d   1     -48.698  13.274  21.766  0.00  0.00     0.112 A 
BRANCH  18  22
ATOM     22  O   UNL d   1     -48.915  15.168  23.338  0.00  0.00    -0.328 OA
ATOM     23  C   UNL d   1     -49.571  15.666  23.302  0.00  0.00     0.181 C 
ENDBRANCH  18  22
BRANCH  21  24
ATOM     24  O   UNL d   1     -48.622  12.642  21.244  0.00  0.00    -0.327 OA
ATOM     25  C   UNL d   1     -49.286  12.228  21.001  0.00  0.00     0.181 C 
ENDBRANCH  21  24
ENDBRANCH  15  16
ENDBRANCH  14  15
ENDBRANCH   1  14
TORSDOF 5
ENDMDL
MODEL 2
REMARK VINA RESULT:      -6.7      0.958      4.892
REMARK  5 active torsions:
REMARK  status: ('A' for Active; 'I' for Inactive)
REMARK    1  A    between atoms: C_7  and  C_1 
REMARK    2  A    between atoms: N_8  and  C_7 
REMARK    3  A    between atoms: C_9  and  N_8 
REMARK    4  A    between atoms: O_17  and  C_13 
REMARK    5  A    between atoms: O_20  and  C_15 
ROOT
ATOM      1  C   UNL d   1     -48.209  13.807  22.469  0.00  0.00     0.145 A 
ATOM      2  C   UNL d   1     -48.859  13.358  22.228  0.00  0.00     0.305 A 
ATOM      3  C   UNL d   1     -48.323  14.540  22.826  0.00  0.00     0.305 A 
ATOM      4  O   UNL d   1     -49.086  14.826  22.942  0.00  0.00    -0.269 OA
ATOM      5  O   UNL d   1     -49.614  13.649  22.347  0.00  0.00    -0.269 OA
ATOM      6  C   UNL d   1     -49.728  14.382  22.703  0.00  0.00     0.242 A 
ATOM      7  O   UNL d   1     -47.667  14.996  23.071  0.00  0.00    -0.259 OA
ATOM      8  O   UNL d   1     -48.745  12.625  21.872  0.00  0.00    -0.259 OA
ATOM      9  C   UNL d   1     -49.420  15.063  23.048  0.00  0.00     0.035 A 
ATOM     10  C   UNL d   1     -50.554  14.289  22.631  0.00  0.00     0.035 A 
ATOM     11  C   UNL d   1     -51.062  14.879  22.905  0.00  0.00     0.001 A 
ATOM     12  C   UNL d   1     -49.925  15.654  23.322  0.00  0.00     0.001 A 
ATOM     13  C   UNL d   1     -50.751  15.561  23.250  0.00  0.00    -0.000 A 
ENDROOT
BRANCH   1  14
ATOM     14  C   UNL d   1     -47.438  13.518  22.352  0.00  0.00     0.110 C 
BRANCH  14  15
ATOM     15  N   UNL d   1     -47.127  12.950  22.864  0.00  0.00    -0.242 NA
BRANCH  15  16
ATOM     16  C   UNL d   1     -46.351  12.692  22.766  0.00  0.00     0.106 A 
ATOM     17  C   UNL d   1     -45.820  13.139  22.323  0.00  0.00     0.045 A 
ATOM     18  C   UNL d   1     -45.048  12.885  22.225  0.00  0.00     0.096 A 
ATOM     19  C   UNL d   1     -44.797  12.170  22.573  0.00  0.00     0.026 A 
ATOM     20  C   UNL d   1     -45.328  11.723  23.016  0.00  0.00     0.028 A 
ATOM     21  C   UNL d   1     -46.107  11.984  23.113  0.00  0.00     0.112 A 
BRANCH  18  22
ATOM     22  O   UNL d   1     -44.522  13.333  21.782  0.00  0.00    -0.328 OA
ATOM     23  C   UNL d   1     -43.835  12.990  21.480  0.00  0.00     0.181 C 
ENDBRANCH  18  22
BRANCH  21  24
ATOM     24  O   UNL d   1     -46.639  11.538  23.556  0.00  0.00    -0.327 OA
ATOM     25  C   UNL d   1     -46.493  10.743  23.694  0.00  0.00     0.181 C 
ENDBRANCH  21  24
ENDBRANCH  15  16
ENDBRANCH  14  15
ENDBRANCH   1  14
TORSDOF 5
ENDMDL
MODEL 3
REMARK VINA RESULT:      -5.8      7.478      8.560
REMARK  5 active torsions:
REMARK  status: ('A' for Active; 'I' for Inactive)
REMARK    1  A    between atoms: C_7  and  C_1 
REMARK    2  A    between atoms: N_8  and  C_7 
REMARK    3  A    between atoms: C_9  and  N_8 
REMARK    4  A    between atoms: O_17  and  C_13 
REMARK    5  A    between atoms: O_20  and  C_15 
ROOT
ATOM      1  C   UNL d   1     -39.692  14.901  20.562  0.00  0.00     0.145 A 
ATOM      2  C   UNL d   1     -40.093  14.392  21.073  0.00  0.00     0.305 A 
ATOM      3  C   UNL d   1     -39.025  15.307  20.822  0.00  0.00     0.305 A 
ATOM      4  O   UNL d   1     -38.757  15.204  21.594  0.00  0.00    -0.269 OA
ATOM      5  O   UNL d   1     -39.821  14.295  21.838  0.00  0.00    -0.269 OA
ATOM      6  C   UNL d   1     -39.154  14.700  22.098  0.00  0.00     0.242 A 
ATOM      7  O   UNL d   1     -38.617  15.823  20.307  0.00  0.00    -0.259 OA
ATOM      8  O   UNL d   1     -40.760  13.987  20.813  0.00  0.00    -0.259 OA
ATOM      9  C   UNL d   1     -38.538  15.227  21.955  0.00  0.00     0.035 A 
ATOM     10  C   UNL d   1     -39.230  14.343  22.849  0.00  0.00     0.035 A 
ATOM     11  C   UNL d   1     -38.688  14.518  23.446  0.00  0.00     0.001 A 
ATOM     12  C   UNL d   1     -37.996  15.404  22.549  0.00  0.00     0.001 A 
ATOM     13  C   UNL d   1     -38.072  15.047  23.300  0.00  0.00    -0.000 A 
ENDROOT
BRANCH   1  14
ATOM     14  C   UNL d   1     -39.962  15.006  19.782  0.00  0.00     0.110 C 
BRANCH  14  15
ATOM     15  N   UNL d   1     -39.747  14.468  19.195  0.00  0.00    -0.242 NA
BRANCH  15  16
ATOM     16  C   UNL d   1     -39.974  14.602  18.414  0.00  0.00     0.106 A 
ATOM     17  C   UNL d   1     -40.523  15.189  18.238  0.00  0.00     0.045 A 
ATOM     18  C   UNL d   1     -40.749  15.324  17.464  0.00  0.00     0.096 A 
ATOM     19  C   UNL d   1     -40.424  14.866  16.848  0.00  0.00     0.026 A 
ATOM     20  C   UNL d   1     -39.875  14.278  17.023  0.00  0.00     0.028 A 
ATOM     21  C   UNL d   1     -39.648  14.145  17.808  0.00  0.00     0.112 A 
BRANCH  18  22
ATOM     22  O   UNL d   1     -41.297  15.911  17.293  0.00  0.00    -0.328 OA
ATOM     23  C   UNL d   1     -41.686  15.919  16.565  0.00  0.00     0.181 C 
ENDBRANCH  18  22
BRANCH  21  24
ATOM     24  O   UNL d   1     -39.099  13.557  17.984  0.00  0.00    -0.327 OA
ATOM     25  C   UNL d   1     -38.753  13.124  17.381  0.00  0.00     0.181 C 
ENDBRANCH  21  24
ENDBRANCH  15  16
ENDBRANCH  14  15
ENDBRANCH   1  14
TORSDOF 5
ENDMDL
MODEL 4
REMARK VINA RESULT:      -5.3      7.535      9.279
REMARK  5 active torsions:
REMARK  status: ('A' for Active; 'I' for Inactive)
REMARK    1  A    between atoms: C_7  and  C_1 
REMARK    2  A    between atoms: N_8  and  C_7 
REMARK    3  A    between atoms: C_9  and  N_8 
REMARK    4  A    between atoms: O_17  and  C_13 
REMARK    5  A    between atoms: O_20  and  C_15 
ROOT
ATOM      1  C   UNL d   1     -39.591  14.565  17.788  0.00  0.00     0.145 A 
ATOM      2  C   UNL d   1     -39.625  15.196  17.257  0.00  0.00     0.305 A 
ATOM      3  C   UNL d   1     -39.187  13.877  17.586  0.00  0.00     0.305 A 
ATOM      4  O   UNL d   1     -38.816  13.818  16.853  0.00  0.00    -0.269 OA
ATOM      5  O   UNL d   1     -39.255  15.131  16.531  0.00  0.00    -0.269 OA
ATOM      6  C   UNL d   1     -38.851  14.443  16.329  0.00  0.00     0.242 A 
ATOM      7  O   UNL d   1     -39.150  13.237  18.121  0.00  0.00    -0.259 OA
ATOM      8  O   UNL d   1     -40.029  15.884  17.459  0.00  0.00    -0.259 OA
ATOM      9  C   UNL d   1     -38.597  13.683  16.517  0.00  0.00     0.035 A 
ATOM     10  C   UNL d   1     -38.653  14.777  15.589  0.00  0.00     0.035 A 
ATOM     11  C   UNL d   1     -38.204  14.345  15.048  0.00  0.00     0.001 A 
ATOM     12  C   UNL d   1     -38.149  13.250  15.979  0.00  0.00     0.001 A 
ATOM     13  C   UNL d   1     -37.951  13.583  15.239  0.00  0.00    -0.000 A 
ENDROOT
BRANCH   1  14
ATOM     14  C   UNL d   1     -39.965  14.623  18.528  0.00  0.00     0.110 C 
BRANCH  14  15
ATOM     15  N   UNL d   1     -39.569  14.968  19.165  0.00  0.00    -0.242 NA
BRANCH  15  16
ATOM     16  C   UNL d   1     -39.918  14.968  19.912  0.00  0.00     0.106 A 
ATOM     17  C   UNL d   1     -40.672  14.655  20.016  0.00  0.00     0.045 A 
ATOM     18  C   UNL d   1     -41.020  14.654  20.756  0.00  0.00     0.096 A 
ATOM     19  C   UNL d   1     -40.611  14.971  21.410  0.00  0.00     0.026 A 
ATOM     20  C   UNL d   1     -39.857  15.284  21.306  0.00  0.00     0.028 A 
ATOM     21  C   UNL d   1     -39.508  15.283  20.555  0.00  0.00     0.112 A 
BRANCH  18  22
ATOM     22  O   UNL d   1     -41.772  14.341  20.856  0.00  0.00    -0.328 OA
ATOM     23  C   UNL d   1     -41.884  13.664  21.313  0.00  0.00     0.181 C 
ENDBRANCH  18  22
BRANCH  21  24
ATOM     24  O   UNL d   1     -38.754  15.597  20.451  0.00  0.00    -0.327 OA
ATOM     25  C   UNL d   1     -38.299  15.797  21.102  0.00  0.00     0.181 C 
ENDBRANCH  21  24
ENDBRANCH  15  16
ENDBRANCH  14  15
ENDBRANCH   1  14
TORSDOF 5
ENDMDL
MODEL 5
REMARK VINA RESULT:      -5.3      7.745      9.694
REMARK  5 active torsions:
REMARK  status: ('A' for Active; 'I' for Inactive)
REMARK    1  A    between atoms: C_7  and  C_1 
REMARK    2  A    between atoms: N_8  and  C_7 
REMARK    3  A    between atoms: C_9  and  N_8 
REMARK    4  A    between atoms: O_17  and  C_13 
REMARK    5  A    between atoms: O_20  and  C_15 
ROOT
ATOM      1  C   UNL d   1     -38.605  14.130  18.122  0.00  0.00     0.145 A 
ATOM      2  C   UNL d   1     -38.779  13.440  17.705  0.00  0.00     0.305 A 
ATOM      3  C   UNL d   1     -38.334  14.796  17.722  0.00  0.00     0.305 A 
ATOM      4  O   UNL d   1     -38.237  14.774  16.904  0.00  0.00    -0.269 OA
ATOM      5  O   UNL d   1     -38.681  13.424  16.893  0.00  0.00    -0.269 OA
ATOM      6  C   UNL d   1     -38.410  14.090  16.493  0.00  0.00     0.242 A 
ATOM      7  O   UNL d   1     -38.156  15.497  18.141  0.00  0.00    -0.259 OA
ATOM      8  O   UNL d   1     -39.051  12.773  18.105  0.00  0.00    -0.259 OA
ATOM      9  C   UNL d   1     -38.153  14.872  16.502  0.00  0.00     0.035 A 
ATOM     10  C   UNL d   1     -38.455  13.675  15.771  0.00  0.00     0.035 A 
ATOM     11  C   UNL d   1     -38.242  14.048  15.066  0.00  0.00     0.001 A 
ATOM     12  C   UNL d   1     -37.940  15.247  15.800  0.00  0.00     0.001 A 
ATOM     13  C   UNL d   1     -37.985  14.831  15.077  0.00  0.00    -0.000 A 
ENDROOT
BRANCH   1  14
ATOM     14  C   UNL d   1     -38.702  14.154  18.947  0.00  0.00     0.110 C 
BRANCH  14  15
ATOM     15  N   UNL d   1     -39.410  14.428  19.272  0.00  0.00    -0.242 NA
BRANCH  15  16
ATOM     16  C   UNL d   1     -39.502  14.451  20.091  0.00  0.00     0.106 A 
ATOM     17  C   UNL d   1     -38.953  14.081  20.579  0.00  0.00     0.045 A 
ATOM     18  C   UNL d   1     -39.043  14.103  21.392  0.00  0.00     0.096 A 
ATOM     19  C   UNL d   1     -39.693  14.502  21.730  0.00  0.00     0.026 A 
ATOM     20  C   UNL d   1     -40.241  14.873  21.241  0.00  0.00     0.028 A 
ATOM     21  C   UNL d   1     -40.147  14.848  20.419  0.00  0.00     0.112 A 
BRANCH  18  22
ATOM     22  O   UNL d   1     -38.493  13.732  21.876  0.00  0.00    -0.328 OA
ATOM     23  C   UNL d   1     -38.735  13.358  22.571  0.00  0.00     0.181 C 
ENDBRANCH  18  22
BRANCH  21  24
ATOM     24  O   UNL d   1     -40.696  15.219  19.930  0.00  0.00    -0.327 OA
ATOM     25  C   UNL d   1     -41.231  15.754  20.245  0.00  0.00     0.181 C 
ENDBRANCH  21  24
ENDBRANCH  15  16
ENDBRANCH  14  15
ENDBRANCH   1  14
TORSDOF 5
ENDMDL
MODEL 6
REMARK VINA RESULT:      -4.9      7.873      9.341
REMARK  5 active torsions:
REMARK  status: ('A' for Active; 'I' for Inactive)
REMARK    1  A    between atoms: C_7  and  C_1 
REMARK    2  A    between atoms: N_8  and  C_7 
REMARK    3  A    between atoms: C_9  and  N_8 
REMARK    4  A    between atoms: O_17  and  C_13 
REMARK    5  A    between atoms: O_20  and  C_15 
ROOT
ATOM      1  C   UNL d   1     -39.732  15.577  19.490  0.00  0.00     0.145 A 
ATOM      2  C   UNL d   1     -40.557  15.583  19.514  0.00  0.00     0.305 A 
ATOM      3  C   UNL d   1     -39.340  15.643  18.770  0.00  0.00     0.305 A 
ATOM      4  O   UNL d   1     -39.772  15.714  18.072  0.00  0.00    -0.269 OA
ATOM      5  O   UNL d   1     -40.980  15.654  18.818  0.00  0.00    -0.269 OA
ATOM      6  C   UNL d   1     -40.587  15.719  18.097  0.00  0.00     0.242 A 
ATOM      7  O   UNL d   1     -38.505  15.637  18.742  0.00  0.00    -0.259 OA
ATOM      8  O   UNL d   1     -40.950  15.517  20.235  0.00  0.00    -0.259 OA
ATOM      9  C   UNL d   1     -39.886  15.754  17.667  0.00  0.00     0.035 A 
ATOM     10  C   UNL d   1     -41.321  15.764  17.702  0.00  0.00     0.035 A 
ATOM     11  C   UNL d   1     -41.344  15.844  16.881  0.00  0.00     0.001 A 
ATOM     12  C   UNL d   1     -39.906  15.833  16.847  0.00  0.00     0.001 A 
ATOM     13  C   UNL d   1     -40.640  15.878  16.452  0.00  0.00    -0.000 A 
ENDROOT
BRANCH   1  14
ATOM     14  C   UNL d   1     -39.296  15.505  20.194  0.00  0.00     0.110 C 
BRANCH  14  15
ATOM     15  N   UNL d   1     -39.132  14.758  20.504  0.00  0.00    -0.242 NA
BRANCH  15  16
ATOM     16  C   UNL d   1     -38.802  14.690  21.257  0.00  0.00     0.106 A 
ATOM     17  C   UNL d   1     -38.818  15.330  21.774  0.00  0.00     0.045 A 
ATOM     18  C   UNL d   1     -38.491  15.266  22.521  0.00  0.00     0.096 A 
ATOM     19  C   UNL d   1     -38.140  14.549  22.762  0.00  0.00     0.026 A 
ATOM     20  C   UNL d   1     -38.124  13.909  22.245  0.00  0.00     0.028 A 
ATOM     21  C   UNL d   1     -38.456  13.978  21.490  0.00  0.00     0.112 A 
BRANCH  18  22
ATOM     22  O   UNL d   1     -38.509  15.907  23.034  0.00  0.00    -0.328 OA
ATOM     23  C   UNL d   1     -38.020  15.922  23.698  0.00  0.00     0.181 C 
ENDBRANCH  18  22
BRANCH  21  24
ATOM     24  O   UNL d   1     -38.440  13.338  20.973  0.00  0.00    -0.327 OA
ATOM     25  C   UNL d   1     -37.940  12.705  21.117  0.00  0.00     0.181 C 
ENDBRANCH  21  24
ENDBRANCH  15  16
ENDBRANCH  14  15
ENDBRANCH   1  14
TORSDOF 5
ENDMDL
MODEL 7
REMARK VINA RESULT:      -4.8      8.086      9.184
REMARK  5 active torsions:
REMARK  status: ('A' for Active; 'I' for Inactive)
REMARK    1  A    between atoms: C_7  and  C_1 
REMARK    2  A    between atoms: N_8  and  C_7 
REMARK    3  A    between atoms: C_9  and  N_8 
REMARK    4  A    between atoms: O_17  and  C_13 
REMARK    5  A    between atoms: O_20  and  C_15 
ROOT
ATOM      1  C   UNL d   1     -38.561  14.609  20.301  0.00  0.00     0.145 A 
ATOM      2  C   UNL d   1     -38.267  15.307  20.630  0.00  0.00     0.305 A 
ATOM      3  C   UNL d   1     -38.808  13.995  20.789  0.00  0.00     0.305 A 
ATOM      4  O   UNL d   1     -38.763  14.077  21.608  0.00  0.00    -0.269 OA
ATOM      5  O   UNL d   1     -38.225  15.382  21.443  0.00  0.00    -0.269 OA
ATOM      6  C   UNL d   1     -38.473  14.768  21.931  0.00  0.00     0.242 A 
ATOM      7  O   UNL d   1     -39.106  13.287  20.459  0.00  0.00    -0.259 OA
ATOM      8  O   UNL d   1     -38.019  15.921  20.141  0.00  0.00    -0.259 OA
ATOM      9  C   UNL d   1     -38.784  14.011  22.025  0.00  0.00     0.035 A 
ATOM     10  C   UNL d   1     -38.275  15.222  22.603  0.00  0.00     0.035 A 
ATOM     11  C   UNL d   1     -38.392  14.914  23.359  0.00  0.00     0.001 A 
ATOM     12  C   UNL d   1     -38.902  13.702  22.779  0.00  0.00     0.001 A 
ATOM     13  C   UNL d   1     -38.705  14.156  23.451  0.00  0.00    -0.000 A 
ENDROOT
BRANCH   1  14
ATOM     14  C   UNL d   1     -38.607  14.526  19.475  0.00  0.00     0.110 C 
BRANCH  14  15
ATOM     15  N   UNL d   1     -39.306  14.714  19.079  0.00  0.00    -0.242 NA
BRANCH  15  16
ATOM     16  C   UNL d   1     -39.349  14.627  18.260  0.00  0.00     0.106 A 
ATOM     17  C   UNL d   1     -38.807  14.148  17.867  0.00  0.00     0.045 A 
ATOM     18  C   UNL d   1     -38.847  14.060  17.055  0.00  0.00     0.096 A 
ATOM     19  C   UNL d   1     -39.440  14.456  16.621  0.00  0.00     0.026 A 
ATOM     20  C   UNL d   1     -39.982  14.935  17.014  0.00  0.00     0.028 A 
ATOM     21  C   UNL d   1     -39.937  15.021  17.836  0.00  0.00     0.112 A 
BRANCH  18  22
ATOM     22  O   UNL d   1     -38.305  13.582  16.666  0.00  0.00    -0.328 OA
ATOM     23  C   UNL d   1     -38.021  13.794  15.921  0.00  0.00     0.181 C 
ENDBRANCH  18  22
BRANCH  21  24
ATOM     24  O   UNL d   1     -40.479  15.500  18.230  0.00  0.00    -0.327 OA
ATOM     25  C   UNL d   1     -41.039  15.921  17.806  0.00  0.00     0.181 C 
ENDBRANCH  21  24
ENDBRANCH  15  16
ENDBRANCH  14  15
ENDBRANCH   1  14
TORSDOF 5
ENDMDL
MODEL 8
REMARK VINA RESULT:      -4.6      1.188      1.688
REMARK  5 active torsions:
REMARK  status: ('A' for Active; 'I' for Inactive)
REMARK    1  A    between atoms: C_7  and  C_1 
REMARK    2  A    between atoms: N_8  and  C_7 
REMARK    3  A    between atoms: C_9  and  N_8 
REMARK    4  A    between atoms: O_17  and  C_13 
REMARK    5  A    between atoms: O_20  and  C_15 
ROOT
ATOM      1  C   UNL d   1     -47.241  13.447  22.869  0.00  0.00     0.145 A 
ATOM      2  C   UNL d   1     -46.836  13.988  22.396  0.00  0.00     0.305 A 
ATOM      3  C   UNL d   1     -46.870  12.753  23.112  0.00  0.00     0.305 A 
ATOM      4  O   UNL d   1     -46.094  12.600  22.882  0.00  0.00    -0.269 OA
ATOM      5  O   UNL d   1     -46.066  13.830  22.172  0.00  0.00    -0.269 OA
ATOM      6  C   UNL d   1     -45.695  13.137  22.414  0.00  0.00     0.242 A 
ATOM      7  O   UNL d   1     -47.277  12.203  23.590  0.00  0.00    -0.259 OA
ATOM      8  O   UNL d   1     -47.207  14.682  22.153  0.00  0.00    -0.259 OA
ATOM      9  C   UNL d   1     -45.713  12.424  22.827  0.00  0.00     0.035 A 
ATOM     10  C   UNL d   1     -45.004  13.362  22.004  0.00  0.00     0.035 A 
ATOM     11  C   UNL d   1     -44.341  12.872  22.012  0.00  0.00     0.001 A 
ATOM     12  C   UNL d   1     -45.052  11.933  22.836  0.00  0.00     0.001 A 
ATOM     13  C   UNL d   1     -44.361  12.159  22.426  0.00  0.00    -0.000 A 
ENDROOT
BRANCH   1  14
ATOM     14  C   UNL d   1     -48.024  13.601  23.101  0.00  0.00     0.110 C 
BRANCH  14  15
ATOM     15  N   UNL d   1     -48.652  13.256  22.691  0.00  0.00    -0.242 NA
BRANCH  15  16
ATOM     16  C   UNL d   1     -49.414  13.556  22.781  0.00  0.00     0.106 A 
ATOM     17  C   UNL d   1     -49.533  14.368  22.844  0.00  0.00     0.045 A 
ATOM     18  C   UNL d   1     -50.289  14.669  22.934  0.00  0.00     0.096 A 
ATOM     19  C   UNL d   1     -50.943  14.152  22.961  0.00  0.00     0.026 A 
ATOM     20  C   UNL d   1     -50.824  13.340  22.898  0.00  0.00     0.028 A 
ATOM     21  C   UNL d   1     -50.058  13.040  22.807  0.00  0.00     0.112 A 
BRANCH  18  22
ATOM     22  O   UNL d   1     -50.404  15.479  22.997  0.00  0.00    -0.328 OA
ATOM     23  C   UNL d   1     -50.182  15.879  23.684  0.00  0.00     0.181 C 
ENDBRANCH  18  22
BRANCH  21  24
ATOM     24  O   UNL d   1     -49.939  12.228  22.743  0.00  0.00    -0.327 OA
ATOM     25  C   UNL d   1     -50.359  11.793  22.190  0.00  0.00     0.181 C 
ENDBRANCH  21  24
ENDBRANCH  15  16
ENDBRANCH  14  15
ENDBRANCH   1  14
TORSDOF 5
ENDMDL
MODEL 9
REMARK VINA RESULT:      -4.5      1.057      4.858
REMARK  5 active torsions:
REMARK  status: ('A' for Active; 'I' for Inactive)
REMARK    1  A    between atoms: C_7  and  C_1 
REMARK    2  A    between atoms: N_8  and  C_7 
REMARK    3  A    between atoms: C_9  and  N_8 
REMARK    4  A    between atoms: O_17  and  C_13 
REMARK    5  A    between atoms: O_20  and  C_15 
ROOT
ATOM      1  C   UNL d   1     -46.949  13.040  22.855  0.00  0.00     0.145 A 
ATOM      2  C   UNL d   1     -47.598  12.604  22.591  0.00  0.00     0.305 A 
ATOM      3  C   UNL d   1     -47.006  13.858  22.933  0.00  0.00     0.305 A 
ATOM      4  O   UNL d   1     -47.711  14.240  22.747  0.00  0.00    -0.269 OA
ATOM      5  O   UNL d   1     -48.295  12.990  22.408  0.00  0.00    -0.269 OA
ATOM      6  C   UNL d   1     -48.352  13.807  22.487  0.00  0.00     0.242 A 
ATOM      7  O   UNL d   1     -46.351  14.302  23.200  0.00  0.00    -0.259 OA
ATOM      8  O   UNL d   1     -47.541  11.786  22.513  0.00  0.00    -0.259 OA
ATOM      9  C   UNL d   1     -48.012  14.531  22.683  0.00  0.00     0.035 A 
ATOM     10  C   UNL d   1     -49.144  13.777  22.224  0.00  0.00     0.035 A 
ATOM     11  C   UNL d   1     -49.584  14.472  22.162  0.00  0.00     0.001 A 
ATOM     12  C   UNL d   1     -48.450  15.225  22.622  0.00  0.00     0.001 A 
ATOM     13  C   UNL d   1     -49.242  15.195  22.359  0.00  0.00    -0.000 A 
ENDROOT
BRANCH   1  14
ATOM     14  C   UNL d   1     -46.236  12.655  23.042  0.00  0.00     0.110 C 
BRANCH  14  15
ATOM     15  N   UNL d   1     -45.616  12.645  22.498  0.00  0.00    -0.242 NA
BRANCH  15  16
ATOM     16  C   UNL d   1     -44.972  12.146  22.621  0.00  0.00     0.106 A 
ATOM     17  C   UNL d   1     -45.050  11.480  23.098  0.00  0.00     0.045 A 
ATOM     18  C   UNL d   1     -44.411  10.984  23.222  0.00  0.00     0.096 A 
ATOM     19  C   UNL d   1     -43.677  11.152  22.864  0.00  0.00     0.026 A 
ATOM     20  C   UNL d   1     -43.599  11.818  22.387  0.00  0.00     0.028 A 
ATOM     21  C   UNL d   1     -44.247  12.318  22.264  0.00  0.00     0.112 A 
BRANCH  18  22
ATOM     22  O   UNL d   1     -44.493  10.320  23.698  0.00  0.00    -0.328 OA
ATOM     23  C   UNL d   1     -43.916   9.731  23.694  0.00  0.00     0.181 C 
ENDBRANCH  18  22
BRANCH  21  24
ATOM     24  O   UNL d   1     -44.169  12.984  21.787  0.00  0.00    -0.327 OA
ATOM     25  C   UNL d   1     -43.549  13.037  21.254  0.00  0.00     0.181 C 
ENDBRANCH  21  24
ENDBRANCH  15  16
ENDBRANCH  14  15
ENDBRANCH   1  14
TORSDOF 5
ENDMDL
