MODEL 1
REMARK VINA RESULT:      12.7      0.000      0.000
REMARK  5 active torsions:
REMARK  status: ('A' for Active; 'I' for Inactive)
REMARK    1  A    between atoms: N_5  and  S_1 
REMARK    2  A    between atoms: C_9  and  S_1 
REMARK    3  A    between atoms: C_6  and  C_2 
REMARK    4  A    between atoms: C_4  and  N_5 
REMARK    5  A    between atoms: O_20  and  C_17 
ROOT
ATOM      1  S   UNL d   1      45.530 -15.942  44.758  0.00  0.00     0.287 S 
ATOM      2  O   UNL d   1      46.349 -15.905  44.921  0.00  0.00    -0.198 OA
ATOM      3  O   UNL d   1      44.700 -15.974  44.590  0.00  0.00    -0.198 OA
ENDROOT
BRANCH   1   4
ATOM      4  N   UNL d   1      45.519 -16.761  44.955  0.00  0.00    -0.132 NA
BRANCH   4   5
ATOM      5  C   UNL d   1      45.856 -17.326  44.446  0.00  0.00     0.206 A 
ATOM      6  N   UNL d   1      45.877 -17.399  43.595  0.00  0.00    -0.216 NA
ATOM      7  C   UNL d   1      46.305 -18.095  43.432  0.00  0.00     0.161 A 
ATOM      8  C   UNL d   1      46.539 -18.440  44.120  0.00  0.00     0.061 A 
ATOM      9  S   UNL d   1      46.279 -17.992  44.750  0.00  0.00    -0.046 SA
BRANCH   7  10
ATOM     10  C   UNL d   1      46.477 -18.405  42.687  0.00  0.00     0.436 C 
ATOM     11  F   UNL d   1      46.643 -18.768  41.962  0.00  0.00    -0.165 F 
ATOM     12  F   UNL d   1      46.647 -17.862  42.005  0.00  0.00    -0.165 F 
ATOM     13  F   UNL d   1      46.484 -19.183  42.602  0.00  0.00    -0.165 F 
ENDBRANCH   7  10
ENDBRANCH   4   5
ENDBRANCH   1   4
BRANCH   1  14
ATOM     14  C   UNL d   1      45.530 -15.119  44.557  0.00  0.00     0.105 A 
ATOM     15  C   UNL d   1      46.205 -14.687  44.705  0.00  0.00     0.015 A 
ATOM     16  C   UNL d   1      46.225 -13.894  44.519  0.00  0.00     0.025 A 
ATOM     17  C   UNL d   1      45.568 -13.520  44.182  0.00  0.00     0.094 A 
ATOM     18  C   UNL d   1      44.886 -13.944  44.030  0.00  0.00     0.025 A 
ATOM     19  C   UNL d   1      44.855 -14.733  44.210  0.00  0.00     0.015 A 
BRANCH  17  20
ATOM     20  O   UNL d   1      45.564 -12.700  43.981  0.00  0.00    -0.328 OA
ATOM     21  C   UNL d   1      45.210 -12.449  43.259  0.00  0.00     0.181 C 
ENDBRANCH  17  20
ENDBRANCH   1  14
TORSDOF 5
ENDMDL
MODEL 2
REMARK VINA RESULT:      13.4      2.687      4.399
REMARK  5 active torsions:
REMARK  status: ('A' for Active; 'I' for Inactive)
REMARK    1  A    between atoms: N_5  and  S_1 
REMARK    2  A    between atoms: C_9  and  S_1 
REMARK    3  A    between atoms: C_6  and  C_2 
REMARK    4  A    between atoms: C_4  and  N_5 
REMARK    5  A    between atoms: O_20  and  C_17 
ROOT
ATOM      1  S   UNL d   1      45.491 -15.647  44.632  0.00  0.00     0.287 S 
ATOM      2  O   UNL d   1      44.729 -15.768  44.312  0.00  0.00    -0.198 OA
ATOM      3  O   UNL d   1      46.265 -15.528  44.955  0.00  0.00    -0.198 OA
ENDROOT
BRANCH   1   4
ATOM      4  N   UNL d   1      45.247 -14.907  44.954  0.00  0.00    -0.132 NA
BRANCH   4   5
ATOM      5  C   UNL d   1      45.312 -14.207  44.510  0.00  0.00     0.206 A 
ATOM      6  N   UNL d   1      44.913 -13.928  43.807  0.00  0.00    -0.216 NA
ATOM      7  C   UNL d   1      45.232 -13.178  43.641  0.00  0.00     0.161 A 
ATOM      8  C   UNL d   1      45.789 -12.990  44.190  0.00  0.00     0.061 A 
ATOM      9  S   UNL d   1      45.856 -13.598  44.728  0.00  0.00    -0.046 SA
BRANCH   7  10
ATOM     10  C   UNL d   1      45.026 -12.683  43.015  0.00  0.00     0.436 C 
ATOM     11  F   UNL d   1      44.766 -12.184  42.406  0.00  0.00    -0.165 F 
ATOM     12  F   UNL d   1      45.636 -12.439  42.417  0.00  0.00    -0.165 F 
ATOM     13  F   UNL d   1      44.284 -12.436  42.964  0.00  0.00    -0.165 F 
ENDBRANCH   7  10
ENDBRANCH   4   5
ENDBRANCH   1   4
BRANCH   1  14
ATOM     14  C   UNL d   1      45.747 -16.388  44.313  0.00  0.00     0.105 A 
ATOM     15  C   UNL d   1      45.995 -16.965  44.832  0.00  0.00     0.015 A 
ATOM     16  C   UNL d   1      46.245 -17.685  44.544  0.00  0.00     0.025 A 
ATOM     17  C   UNL d   1      46.250 -17.839  43.731  0.00  0.00     0.094 A 
ATOM     18  C   UNL d   1      46.003 -17.268  43.202  0.00  0.00     0.025 A 
ATOM     19  C   UNL d   1      45.752 -16.548  43.477  0.00  0.00     0.015 A 
BRANCH  17  20
ATOM     20  O   UNL d   1      46.504 -18.577  43.408  0.00  0.00    -0.328 OA
ATOM     21  C   UNL d   1      46.314 -18.773  42.613  0.00  0.00     0.181 C 
ENDBRANCH  17  20
ENDBRANCH   1  14
TORSDOF 5
ENDMDL
