MODEL 1
REMARK VINA RESULT:       0.5      0.000      0.000
REMARK  10 active torsions:
REMARK  status: ('A' for Active; 'I' for Inactive)
REMARK    1  A    between atoms: C_9  and  C_1 
REMARK    2  A    between atoms: C_11  and  C_2 
REMARK    3  A    between atoms: S_12  and  C_3 
REMARK    4  A    between atoms: C_16  and  C_4 
REMARK    5  A    between atoms: C_7  and  N_8 
REMARK       I    between atoms: N_8  and  C_15 
REMARK    6  A    between atoms: O_26  and  C_9 
REMARK    7  A    between atoms: C_21  and  S_12 
REMARK    8  A    between atoms: C_15  and  C_21 
REMARK    9  A    between atoms: C_24  and  C_32 
REMARK   10  A    between atoms: C_32  and  O_26 
ROOT
ATOM      1  C   UNL d   1      58.147  -1.313  29.914  0.00  0.00     0.081 A 
ATOM      2  C   UNL d   1      58.187  -0.108  30.695  0.00  0.00     0.045 A 
ATOM      3  C   UNL d   1      57.487  -0.386  31.132  0.00  0.00     0.112 A 
ATOM      4  C   UNL d   1      58.492  -0.578  30.104  0.00  0.00     0.010 A 
ATOM      5  C   UNL d   1      57.485  -1.575  30.327  0.00  0.00     0.087 A 
ATOM      6  N   UNL d   1      57.167  -1.103  30.930  0.00  0.00    -0.239 NA
ATOM      7  C   UNL d   1      57.127  -2.320  30.140  0.00  0.00     0.021 C 
ENDROOT
BRANCH   3   8
ATOM      8  S   UNL d   1      57.113   0.062  31.770  0.00  0.00    -0.062 SA
BRANCH   8   9
ATOM      9  C   UNL d   1      56.442  -0.242  32.134  0.00  0.00     0.099 C 
BRANCH   9  10
ATOM     10  C   UNL d   1      56.237   0.022  32.859  0.00  0.00     0.288 C 
ATOM     11  N   UNL d   1      55.504  -0.182  33.168  0.00  0.00    -0.182 NA
ATOM     12  O   UNL d   1      56.732   0.485  33.299  0.00  0.00    -0.265 OA
BRANCH  11  13
ATOM     13  C   UNL d   1      55.289   0.078  33.894  0.00  0.00     0.197 A 
ATOM     14  N   UNL d   1      54.537   0.347  34.014  0.00  0.00    -0.219 NA
ATOM     15  C   UNL d   1      54.482   0.575  34.812  0.00  0.00     0.108 A 
ATOM     16  C   UNL d   1      55.201   0.443  35.170  0.00  0.00     0.059 A 
ATOM     17  S   UNL d   1      55.710   0.132  34.602  0.00  0.00    -0.046 SA
ENDBRANCH  11  13
ENDBRANCH   9  10
ENDBRANCH   8   9
ENDBRANCH   3   8
BRANCH   2  18
ATOM     18  C   UNL d   1      58.557   0.635  30.869  0.00  0.00     0.124 C 
ATOM     19  N   UNL d   1      59.192   0.678  31.390  0.00  0.00    -0.146 N 
ENDBRANCH   2  18
BRANCH   4  20
ATOM     20  C   UNL d   1      59.142  -0.321  29.699  0.00  0.00     0.000 A 
ATOM     21  C   UNL d   1      59.901  -0.508  29.967  0.00  0.00     0.001 A 
ATOM     22  C   UNL d   1      60.550  -0.250  29.562  0.00  0.00     0.011 A 
ATOM     23  C   UNL d   1      60.460   0.201  28.876  0.00  0.00     0.058 A 
ATOM     24  C   UNL d   1      59.696   0.391  28.602  0.00  0.00     0.011 A 
ATOM     25 CL   UNL d   1      61.129   0.467  28.459  0.00  0.00    -0.082 Cl
ATOM     26  C   UNL d   1      59.034   0.129  29.015  0.00  0.00     0.001 A 
ENDBRANCH   4  20
BRANCH   1  27
ATOM     27  C   UNL d   1      58.490  -1.780  29.290  0.00  0.00     0.302 C 
ATOM     28  O   UNL d   1      58.187  -1.757  28.525  0.00  0.00    -0.259 OA
BRANCH  27  29
ATOM     29  O   UNL d   1      59.138  -2.261  29.466  0.00  0.00    -0.271 OA
BRANCH  29  30
ATOM     30  C   UNL d   1      59.095  -3.060  29.350  0.00  0.00     0.126 C 
BRANCH  30  31
ATOM     31  C   UNL d   1      59.754  -3.472  29.049  0.00  0.00     0.027 C 
ATOM     32  C   UNL d   1      59.652  -4.191  28.694  0.00  0.00     0.002 C 
ENDBRANCH  30  31
ENDBRANCH  29  30
ENDBRANCH  27  29
ENDBRANCH   1  27
TORSDOF 10
ENDMDL
