MODEL 1
REMARK VINA RESULT:      -3.1      0.000      0.000
REMARK  4 active torsions:
REMARK  status: ('A' for Active; 'I' for Inactive)
REMARK    1  A    between atoms: C_7  and  C_4 
REMARK    2  A    between atoms: C_11  and  C_7 
REMARK    3  A    between atoms: C_9  and  O_16 
REMARK    4  A    between atoms: O_16  and  C_11 
ROOT
ATOM      1  C   UNL d   1      32.865  19.829 -22.299  0.00  0.00     0.124 C 
ENDROOT
BRANCH   1   2
ATOM      2  C   UNL d   1      33.214  19.098 -22.489  0.00  0.00     0.046 C 
BRANCH   2   3
ATOM      3  C   UNL d   1      32.878  18.621 -23.072  0.00  0.00     0.092 A 
ATOM      4  N   UNL d   1      32.473  17.918 -22.939  0.00  0.00    -0.219 NA
ATOM      5  C   UNL d   1      32.233  17.628 -23.674  0.00  0.00     0.215 A 
ATOM      6  S   UNL d   1      32.491  18.149 -24.251  0.00  0.00    -0.045 SA
ATOM      7  N   UNL d   1      31.809  16.933 -23.805  0.00  0.00    -0.120 N 
ATOM      8  C   UNL d   1      32.891  18.767 -23.884  0.00  0.00     0.058 A 
ENDBRANCH   2   3
ENDBRANCH   1   2
BRANCH   1   9
ATOM      9  O   UNL d   1      33.149  20.256 -21.659  0.00  0.00    -0.305 OA
BRANCH   9  10
ATOM     10  C   UNL d   1      32.831  21.002 -21.492  0.00  0.00     0.100 A 
ATOM     11  C   UNL d   1      32.295  21.088 -20.879  0.00  0.00     0.027 A 
ATOM     12  C   UNL d   1      31.978  21.833 -20.712  0.00  0.00     0.032 A 
ATOM     13  C   UNL d   1      32.198  22.490 -21.160  0.00  0.00     0.140 A 
ATOM     14  C   UNL d   1      32.738  22.405 -21.778  0.00  0.00     0.032 A 
ATOM     15  F   UNL d   1      31.877  23.235 -20.988  0.00  0.00    -0.204 F 
ATOM     16  C   UNL d   1      33.054  21.666 -21.945  0.00  0.00     0.027 A 
ENDBRANCH   9  10
ENDBRANCH   1   9
TORSDOF 4
ENDMDL
MODEL 2
REMARK VINA RESULT:      -2.5      3.320      4.351
REMARK  4 active torsions:
REMARK  status: ('A' for Active; 'I' for Inactive)
REMARK    1  A    between atoms: C_7  and  C_4 
REMARK    2  A    between atoms: C_11  and  C_7 
REMARK    3  A    between atoms: C_9  and  O_16 
REMARK    4  A    between atoms: O_16  and  C_11 
ROOT
ATOM      1  C   UNL d   1      31.172  16.626 -23.741  0.00  0.00     0.124 C 
ENDROOT
BRANCH   1   2
ATOM      2  C   UNL d   1      30.854  15.857 -23.748  0.00  0.00     0.046 C 
BRANCH   2   3
ATOM      3  C   UNL d   1      30.061  15.739 -23.552  0.00  0.00     0.092 A 
ATOM      4  N   UNL d   1      29.423  15.845 -24.060  0.00  0.00    -0.219 NA
ATOM      5  C   UNL d   1      28.737  15.667 -23.636  0.00  0.00     0.215 A 
ATOM      6  S   UNL d   1      28.955  15.454 -22.876  0.00  0.00    -0.045 SA
ATOM      7  N   UNL d   1      27.967  15.697 -23.927  0.00  0.00    -0.120 N 
ATOM      8  C   UNL d   1      29.774  15.498 -22.817  0.00  0.00     0.058 A 
ENDBRANCH   2   3
ENDBRANCH   1   2
BRANCH   1   9
ATOM      9  O   UNL d   1      31.951  16.740 -23.971  0.00  0.00    -0.305 OA
BRANCH   9  10
ATOM     10  C   UNL d   1      32.274  17.503 -23.957  0.00  0.00     0.100 A 
ATOM     11  C   UNL d   1      32.203  17.987 -24.614  0.00  0.00     0.027 A 
ATOM     12  C   UNL d   1      32.526  18.748 -24.600  0.00  0.00     0.032 A 
ATOM     13  C   UNL d   1      32.918  19.022 -23.928  0.00  0.00     0.140 A 
ATOM     14  C   UNL d   1      32.991  18.536 -23.266  0.00  0.00     0.032 A 
ATOM     15  F   UNL d   1      33.239  19.786 -23.920  0.00  0.00    -0.204 F 
ATOM     16  C   UNL d   1      32.671  17.779 -23.278  0.00  0.00     0.027 A 
ENDBRANCH   9  10
ENDBRANCH   1   9
TORSDOF 4
ENDMDL
MODEL 3
REMARK VINA RESULT:      -2.5      3.047      3.971
REMARK  4 active torsions:
REMARK  status: ('A' for Active; 'I' for Inactive)
REMARK    1  A    between atoms: C_7  and  C_4 
REMARK    2  A    between atoms: C_11  and  C_7 
REMARK    3  A    between atoms: C_9  and  O_16 
REMARK    4  A    between atoms: O_16  and  C_11 
ROOT
ATOM      1  C   UNL d   1      32.722  22.507 -19.804  0.00  0.00     0.124 C 
ENDROOT
BRANCH   1   2
ATOM      2  C   UNL d   1      32.468  22.498 -20.596  0.00  0.00     0.046 C 
BRANCH   2   3
ATOM      3  C   UNL d   1      32.704  21.886 -21.096  0.00  0.00     0.092 A 
ATOM      4  N   UNL d   1      32.555  21.086 -20.974  0.00  0.00    -0.219 NA
ATOM      5  C   UNL d   1      32.889  20.673 -21.606  0.00  0.00     0.215 A 
ATOM      6  S   UNL d   1      33.239  21.216 -22.110  0.00  0.00    -0.045 SA
ATOM      7  N   UNL d   1      32.873  19.856 -21.713  0.00  0.00    -0.120 N 
ATOM      8  C   UNL d   1      33.128  21.969 -21.799  0.00  0.00     0.058 A 
ENDBRANCH   2   3
ENDBRANCH   1   2
BRANCH   1   9
ATOM      9  O   UNL d   1      32.549  23.157 -19.334  0.00  0.00    -0.305 OA
BRANCH   9  10
ATOM     10  C   UNL d   1      32.678  23.116 -18.517  0.00  0.00     0.100 A 
ATOM     11  C   UNL d   1      32.377  23.701 -18.028  0.00  0.00     0.027 A 
ATOM     12  C   UNL d   1      32.506  23.661 -17.212  0.00  0.00     0.032 A 
ATOM     13  C   UNL d   1      32.935  23.035 -16.889  0.00  0.00     0.140 A 
ATOM     14  C   UNL d   1      33.239  22.445 -17.379  0.00  0.00     0.032 A 
ATOM     15  F   UNL d   1      33.061  23.000 -16.070  0.00  0.00    -0.204 F 
ATOM     16  C   UNL d   1      33.112  22.484 -18.190  0.00  0.00     0.027 A 
ENDBRANCH   9  10
ENDBRANCH   1   9
TORSDOF 4
ENDMDL
MODEL 4
REMARK VINA RESULT:      -2.5      1.375      2.037
REMARK  4 active torsions:
REMARK  status: ('A' for Active; 'I' for Inactive)
REMARK    1  A    between atoms: C_7  and  C_4 
REMARK    2  A    between atoms: C_11  and  C_7 
REMARK    3  A    between atoms: C_9  and  O_16 
REMARK    4  A    between atoms: O_16  and  C_11 
ROOT
ATOM      1  C   UNL d   1      32.534  18.442 -23.221  0.00  0.00     0.124 C 
ENDROOT
BRANCH   1   2
ATOM      2  C   UNL d   1      32.545  17.781 -23.727  0.00  0.00     0.046 C 
BRANCH   2   3
ATOM      3  C   UNL d   1      31.837  17.422 -23.949  0.00  0.00     0.092 A 
ATOM      4  N   UNL d   1      31.474  16.799 -23.554  0.00  0.00    -0.219 NA
ATOM      5  C   UNL d   1      30.782  16.615 -23.965  0.00  0.00     0.215 A 
ATOM      6  S   UNL d   1      30.724  17.121 -24.606  0.00  0.00    -0.045 SA
ATOM      7  N   UNL d   1      30.243  16.024 -23.765  0.00  0.00    -0.120 N 
ATOM      8  C   UNL d   1      31.375  17.623 -24.602  0.00  0.00     0.058 A 
ENDBRANCH   2   3
ENDBRANCH   1   2
BRANCH   1   9
ATOM      9  O   UNL d   1      33.241  18.736 -22.928  0.00  0.00    -0.305 OA
BRANCH   9  10
ATOM     10  C   UNL d   1      33.237  19.421 -22.463  0.00  0.00     0.100 A 
ATOM     11  C   UNL d   1      33.232  20.157 -22.822  0.00  0.00     0.027 A 
ATOM     12  C   UNL d   1      33.228  20.841 -22.358  0.00  0.00     0.032 A 
ATOM     13  C   UNL d   1      33.231  20.786 -21.535  0.00  0.00     0.140 A 
ATOM     14  C   UNL d   1      33.236  20.046 -21.171  0.00  0.00     0.032 A 
ATOM     15  F   UNL d   1      33.227  21.476 -21.075  0.00  0.00    -0.204 F 
ATOM     16  C   UNL d   1      33.240  19.365 -21.631  0.00  0.00     0.027 A 
ENDBRANCH   9  10
ENDBRANCH   1   9
TORSDOF 4
ENDMDL
MODEL 5
REMARK VINA RESULT:      -2.4      2.874      4.746
REMARK  4 active torsions:
REMARK  status: ('A' for Active; 'I' for Inactive)
REMARK    1  A    between atoms: C_7  and  C_4 
REMARK    2  A    between atoms: C_11  and  C_7 
REMARK    3  A    between atoms: C_9  and  O_16 
REMARK    4  A    between atoms: O_16  and  C_11 
ROOT
ATOM      1  C   UNL d   1      32.517  18.440 -23.390  0.00  0.00     0.124 C 
ENDROOT
BRANCH   1   2
ATOM      2  C   UNL d   1      33.097  19.037 -23.376  0.00  0.00     0.046 C 
BRANCH   2   3
ATOM      3  C   UNL d   1      33.133  19.560 -22.740  0.00  0.00     0.092 A 
ATOM      4  N   UNL d   1      33.068  20.378 -22.791  0.00  0.00    -0.219 NA
ATOM      5  C   UNL d   1      33.135  20.680 -22.026  0.00  0.00     0.215 A 
ATOM      6  S   UNL d   1      33.241  20.051 -21.512  0.00  0.00    -0.045 SA
ATOM      7  N   UNL d   1      33.102  21.477 -21.814  0.00  0.00    -0.120 N 
ATOM      8  C   UNL d   1      33.240  19.355 -21.949  0.00  0.00     0.058 A 
ENDBRANCH   2   3
ENDBRANCH   1   2
BRANCH   1   9
ATOM      9  O   UNL d   1      32.457  17.953 -24.046  0.00  0.00    -0.305 OA
BRANCH   9  10
ATOM     10  C   UNL d   1      31.849  17.392 -24.085  0.00  0.00     0.100 A 
ATOM     11  C   UNL d   1      31.105  17.615 -24.344  0.00  0.00     0.027 A 
ATOM     12  C   UNL d   1      30.497  17.055 -24.383  0.00  0.00     0.032 A 
ATOM     13  C   UNL d   1      30.638  16.273 -24.161  0.00  0.00     0.140 A 
ATOM     14  C   UNL d   1      31.387  16.046 -23.900  0.00  0.00     0.032 A 
ATOM     15  F   UNL d   1      30.025  15.716 -24.202  0.00  0.00    -0.204 F 
ATOM     16  C   UNL d   1      31.991  16.601 -23.861  0.00  0.00     0.027 A 
ENDBRANCH   9  10
ENDBRANCH   1   9
TORSDOF 4
ENDMDL
MODEL 6
REMARK VINA RESULT:      -2.2      4.072      5.448
REMARK  4 active torsions:
REMARK  status: ('A' for Active; 'I' for Inactive)
REMARK    1  A    between atoms: C_7  and  C_4 
REMARK    2  A    between atoms: C_11  and  C_7 
REMARK    3  A    between atoms: C_9  and  O_16 
REMARK    4  A    between atoms: O_16  and  C_11 
ROOT
ATOM      1  C   UNL d   1      32.949  22.582 -19.621  0.00  0.00     0.124 C 
ENDROOT
BRANCH   1   2
ATOM      2  C   UNL d   1      33.017  23.286 -19.184  0.00  0.00     0.046 C 
BRANCH   2   3
ATOM      3  C   UNL d   1      32.831  23.291 -18.381  0.00  0.00     0.092 A 
ATOM      4  N   UNL d   1      33.238  22.884 -17.794  0.00  0.00    -0.219 NA
ATOM      5  C   UNL d   1      32.864  23.044 -17.076  0.00  0.00     0.215 A 
ATOM      6  S   UNL d   1      32.233  23.545 -17.223  0.00  0.00    -0.045 SA
ATOM      7  N   UNL d   1      33.086  22.751 -16.338  0.00  0.00    -0.120 N 
ATOM      8  C   UNL d   1      32.208  23.701 -18.030  0.00  0.00     0.058 A 
ENDBRANCH   2   3
ENDBRANCH   1   2
BRANCH   1   9
ATOM      9  O   UNL d   1      33.071  22.598 -20.432  0.00  0.00    -0.305 OA
BRANCH   9  10
ATOM     10  C   UNL d   1      33.053  21.891 -20.863  0.00  0.00     0.100 A 
ATOM     11  C   UNL d   1      33.206  21.180 -20.486  0.00  0.00     0.027 A 
ATOM     12  C   UNL d   1      33.188  20.474 -20.916  0.00  0.00     0.032 A 
ATOM     13  C   UNL d   1      33.017  20.483 -21.723  0.00  0.00     0.140 A 
ATOM     14  C   UNL d   1      32.863  21.197 -22.105  0.00  0.00     0.032 A 
ATOM     15  F   UNL d   1      33.001  19.771 -22.149  0.00  0.00    -0.204 F 
ATOM     16  C   UNL d   1      32.880  21.899 -21.679  0.00  0.00     0.027 A 
ENDBRANCH   9  10
ENDBRANCH   1   9
TORSDOF 4
ENDMDL
MODEL 7
REMARK VINA RESULT:      -1.4      4.146      4.956
REMARK  4 active torsions:
REMARK  status: ('A' for Active; 'I' for Inactive)
REMARK    1  A    between atoms: C_7  and  C_4 
REMARK    2  A    between atoms: C_11  and  C_7 
REMARK    3  A    between atoms: C_9  and  O_16 
REMARK    4  A    between atoms: O_16  and  C_11 
ROOT
ATOM      1  C   UNL d   1      32.775  22.837 -19.468  0.00  0.00     0.124 C 
ENDROOT
BRANCH   1   2
ATOM      2  C   UNL d   1      32.811  22.504 -20.230  0.00  0.00     0.046 C 
BRANCH   2   3
ATOM      3  C   UNL d   1      32.506  22.919 -20.874  0.00  0.00     0.092 A 
ATOM      4  N   UNL d   1      32.882  23.019 -21.598  0.00  0.00    -0.219 NA
ATOM      5  C   UNL d   1      32.382  23.468 -22.078  0.00  0.00     0.215 A 
ATOM      6  S   UNL d   1      31.705  23.640 -21.650  0.00  0.00    -0.045 SA
ATOM      7  N   UNL d   1      32.535  23.702 -22.853  0.00  0.00    -0.120 N 
ATOM      8  C   UNL d   1      31.776  23.302 -20.903  0.00  0.00     0.058 A 
ENDBRANCH   2   3
ENDBRANCH   1   2
BRANCH   1   9
ATOM      9  O   UNL d   1      32.735  22.342 -18.815  0.00  0.00    -0.305 OA
BRANCH   9  10
ATOM     10  C   UNL d   1      32.780  22.666 -18.054  0.00  0.00     0.100 A 
ATOM     11  C   UNL d   1      32.412  23.379 -17.893  0.00  0.00     0.027 A 
ATOM     12  C   UNL d   1      32.457  23.702 -17.133  0.00  0.00     0.032 A 
ATOM     13  C   UNL d   1      32.870  23.309 -16.537  0.00  0.00     0.140 A 
ATOM     14  C   UNL d   1      33.241  22.590 -16.697  0.00  0.00     0.032 A 
ATOM     15  F   UNL d   1      32.911  23.637 -15.777  0.00  0.00    -0.204 F 
ATOM     16  C   UNL d   1      33.197  22.268 -17.452  0.00  0.00     0.027 A 
ENDBRANCH   9  10
ENDBRANCH   1   9
TORSDOF 4
ENDMDL
MODEL 8
REMARK VINA RESULT:      -0.5      2.683      3.098
REMARK  4 active torsions:
REMARK  status: ('A' for Active; 'I' for Inactive)
REMARK    1  A    between atoms: C_7  and  C_4 
REMARK    2  A    between atoms: C_11  and  C_7 
REMARK    3  A    between atoms: C_9  and  O_16 
REMARK    4  A    between atoms: O_16  and  C_11 
ROOT
ATOM      1  C   UNL d   1      33.014  21.797 -22.253  0.00  0.00     0.124 C 
ENDROOT
BRANCH   1   2
ATOM      2  C   UNL d   1      33.212  21.314 -22.901  0.00  0.00     0.046 C 
BRANCH   2   3
ATOM      3  C   UNL d   1      33.220  21.632 -23.662  0.00  0.00     0.092 A 
ATOM      4  N   UNL d   1      33.213  22.433 -23.845  0.00  0.00    -0.219 NA
ATOM      5  C   UNL d   1      33.225  22.500 -24.668  0.00  0.00     0.215 A 
ATOM      6  S   UNL d   1      33.238  21.745 -24.985  0.00  0.00    -0.045 SA
ATOM      7  N   UNL d   1      33.223  23.204 -25.097  0.00  0.00    -0.120 N 
ATOM      8  C   UNL d   1      33.235  21.203 -24.366  0.00  0.00     0.058 A 
ENDBRANCH   2   3
ENDBRANCH   1   2
BRANCH   1   9
ATOM      9  O   UNL d   1      32.547  21.492 -21.651  0.00  0.00    -0.305 OA
BRANCH   9  10
ATOM     10  C   UNL d   1      32.588  21.824 -20.893  0.00  0.00     0.100 A 
ATOM     11  C   UNL d   1      32.108  22.458 -20.700  0.00  0.00     0.027 A 
ATOM     12  C   UNL d   1      32.149  22.789 -19.944  0.00  0.00     0.032 A 
ATOM     13  C   UNL d   1      32.671  22.483 -19.383  0.00  0.00     0.140 A 
ATOM     14  C   UNL d   1      33.156  21.844 -19.576  0.00  0.00     0.032 A 
ATOM     15  F   UNL d   1      32.708  22.819 -18.626  0.00  0.00    -0.204 F 
ATOM     16  C   UNL d   1      33.116  21.514 -20.327  0.00  0.00     0.027 A 
ENDBRANCH   9  10
ENDBRANCH   1   9
TORSDOF 4
ENDMDL
