MODEL 1
REMARK VINA RESULT:      -2.1      0.000      0.000
REMARK  5 active torsions:
REMARK  status: ('A' for Active; 'I' for Inactive)
REMARK    1  A    between atoms: N_2  and  C_1 
REMARK    2  A    between atoms: N_3  and  C_1 
REMARK       I    between atoms: C_4  and  N_2 
REMARK    3  A    between atoms: C_7  and  N_3 
REMARK    4  A    between atoms: C_8  and  C_4 
REMARK    5  A    between atoms: C_9  and  C_8 
ROOT
ATOM      1  C   UNL d   1      32.755  18.440 -23.714  0.00  0.00     0.209 C 
ATOM      2  S   UNL d   1      33.078  19.058 -24.184  0.00  0.00    -0.038 SA
ENDROOT
BRANCH   1   3
ATOM      3  N   UNL d   1      32.959  18.387 -22.951  0.00  0.00    -0.180 NA
ATOM      4  C   UNL d   1      33.025  19.045 -22.487  0.00  0.00     0.281 C 
ATOM      5  O   UNL d   1      33.240  18.983 -21.682  0.00  0.00    -0.265 OA
BRANCH   4   6
ATOM      6  C   UNL d   1      32.880  19.785 -22.798  0.00  0.00     0.063 C 
BRANCH   6   7
ATOM      7  C   UNL d   1      32.855  20.447 -22.306  0.00  0.00     0.005 A 
ATOM      8  C   UNL d   1      33.240  21.134 -22.537  0.00  0.00     0.000 A 
ATOM      9  C   UNL d   1      33.224  21.813 -22.050  0.00  0.00     0.000 A 
ATOM     10  C   UNL d   1      32.815  21.778 -21.332  0.00  0.00     0.000 A 
ATOM     11  C   UNL d   1      32.427  21.093 -21.094  0.00  0.00     0.000 A 
ATOM     12  C   UNL d   1      32.440  20.407 -21.581  0.00  0.00     0.000 A 
ENDBRANCH   6   7
ENDBRANCH   4   6
ENDBRANCH   1   3
BRANCH   1  13
ATOM     13  N   UNL d   1      32.244  17.913 -24.051  0.00  0.00    -0.281 N 
ATOM     14  C   UNL d   1      31.421  18.113 -24.310  0.00  0.00     0.101 C 
BRANCH  13  15
ATOM     15  C   UNL d   1      32.459  17.151 -24.174  0.00  0.00     0.066 A 
ATOM     16  C   UNL d   1      32.469  16.594 -23.565  0.00  0.00     0.018 A 
ATOM     17  C   UNL d   1      32.691  15.815 -23.703  0.00  0.00     0.002 A 
ATOM     18  C   UNL d   1      32.917  15.569 -24.478  0.00  0.00     0.000 A 
ATOM     19  C   UNL d   1      32.907  16.126 -25.087  0.00  0.00     0.002 A 
ATOM     20  C   UNL d   1      32.678  16.916 -24.930  0.00  0.00     0.018 A 
ENDBRANCH  13  15
ENDBRANCH   1  13
TORSDOF 5
ENDMDL
MODEL 2
REMARK VINA RESULT:      -1.8      3.122      6.207
REMARK  5 active torsions:
REMARK  status: ('A' for Active; 'I' for Inactive)
REMARK    1  A    between atoms: N_2  and  C_1 
REMARK    2  A    between atoms: N_3  and  C_1 
REMARK       I    between atoms: C_4  and  N_2 
REMARK    3  A    between atoms: C_7  and  N_3 
REMARK    4  A    between atoms: C_8  and  C_4 
REMARK    5  A    between atoms: C_9  and  C_8 
ROOT
ATOM      1  C   UNL d   1      32.581  22.264 -19.768  0.00  0.00     0.209 C 
ATOM      2  S   UNL d   1      32.981  21.575 -19.499  0.00  0.00    -0.038 SA
ENDROOT
BRANCH   1   3
ATOM      3  N   UNL d   1      32.044  22.199 -20.345  0.00  0.00    -0.180 NA
ATOM      4  C   UNL d   1      32.154  21.697 -20.969  0.00  0.00     0.281 C 
ATOM      5  O   UNL d   1      31.584  21.632 -21.575  0.00  0.00    -0.265 OA
BRANCH   4   6
ATOM      6  C   UNL d   1      32.830  21.241 -21.016  0.00  0.00     0.063 C 
BRANCH   6   7
ATOM      7  C   UNL d   1      32.954  20.746 -21.664  0.00  0.00     0.005 A 
ATOM      8  C   UNL d   1      32.918  19.933 -21.560  0.00  0.00     0.000 A 
ATOM      9  C   UNL d   1      33.041  19.418 -22.207  0.00  0.00     0.000 A 
ATOM     10  C   UNL d   1      33.200  19.743 -22.951  0.00  0.00     0.000 A 
ATOM     11  C   UNL d   1      33.239  20.557 -23.062  0.00  0.00     0.000 A 
ATOM     12  C   UNL d   1      33.115  21.080 -22.413  0.00  0.00     0.000 A 
ENDBRANCH   6   7
ENDBRANCH   4   6
ENDBRANCH   1   3
BRANCH   1  13
ATOM     13  N   UNL d   1      32.754  22.978 -19.432  0.00  0.00    -0.281 N 
ATOM     14  C   UNL d   1      32.979  23.702 -19.890  0.00  0.00     0.101 C 
BRANCH  13  15
ATOM     15  C   UNL d   1      32.731  23.076 -18.637  0.00  0.00     0.066 A 
ATOM     16  C   UNL d   1      32.216  23.610 -18.276  0.00  0.00     0.018 A 
ATOM     17  C   UNL d   1      32.201  23.702 -17.459  0.00  0.00     0.002 A 
ATOM     18  C   UNL d   1      32.717  23.247 -16.971  0.00  0.00     0.000 A 
ATOM     19  C   UNL d   1      33.232  22.714 -17.333  0.00  0.00     0.002 A 
ATOM     20  C   UNL d   1      33.236  22.631 -18.167  0.00  0.00     0.018 A 
ENDBRANCH  13  15
ENDBRANCH   1  13
TORSDOF 5
ENDMDL
MODEL 3
REMARK VINA RESULT:      -1.3      1.298      2.026
REMARK  5 active torsions:
REMARK  status: ('A' for Active; 'I' for Inactive)
REMARK    1  A    between atoms: N_2  and  C_1 
REMARK    2  A    between atoms: N_3  and  C_1 
REMARK       I    between atoms: C_4  and  N_2 
REMARK    3  A    between atoms: C_7  and  N_3 
REMARK    4  A    between atoms: C_8  and  C_4 
REMARK    5  A    between atoms: C_9  and  C_8 
ROOT
ATOM      1  C   UNL d   1      32.402  17.563 -24.027  0.00  0.00     0.209 C 
ATOM      2  S   UNL d   1      32.513  17.350 -23.221  0.00  0.00    -0.038 SA
ENDROOT
BRANCH   1   3
ATOM      3  N   UNL d   1      32.687  18.254 -24.288  0.00  0.00    -0.180 NA
ATOM      4  C   UNL d   1      32.932  18.828 -23.776  0.00  0.00     0.281 C 
ATOM      5  O   UNL d   1      33.232  19.555 -24.057  0.00  0.00    -0.265 OA
BRANCH   4   6
ATOM      6  C   UNL d   1      32.891  18.706 -22.970  0.00  0.00     0.063 C 
BRANCH   6   7
ATOM      7  C   UNL d   1      32.891  19.348 -22.451  0.00  0.00     0.005 A 
ATOM      8  C   UNL d   1      33.232  19.263 -21.709  0.00  0.00     0.000 A 
ATOM      9  C   UNL d   1      33.241  19.904 -21.172  0.00  0.00     0.000 A 
ATOM     10  C   UNL d   1      32.901  20.621 -21.402  0.00  0.00     0.000 A 
ATOM     11  C   UNL d   1      32.558  20.713 -22.143  0.00  0.00     0.000 A 
ATOM     12  C   UNL d   1      32.546  20.071 -22.689  0.00  0.00     0.000 A 
ENDBRANCH   6   7
ENDBRANCH   4   6
ENDBRANCH   1   3
BRANCH   1  13
ATOM     13  N   UNL d   1      32.006  17.059 -24.519  0.00  0.00    -0.281 N 
ATOM     14  C   UNL d   1      32.400  16.511 -25.093  0.00  0.00     0.101 C 
BRANCH  13  15
ATOM     15  C   UNL d   1      31.205  17.024 -24.515  0.00  0.00     0.066 A 
ATOM     16  C   UNL d   1      30.745  17.458 -25.044  0.00  0.00     0.018 A 
ATOM     17  C   UNL d   1      29.924  17.415 -25.032  0.00  0.00     0.002 A 
ATOM     18  C   UNL d   1      29.534  16.919 -24.471  0.00  0.00     0.000 A 
ATOM     19  C   UNL d   1      29.995  16.484 -23.942  0.00  0.00     0.002 A 
ATOM     20  C   UNL d   1      30.831  16.539 -23.968  0.00  0.00     0.018 A 
ENDBRANCH  13  15
ENDBRANCH   1  13
TORSDOF 5
ENDMDL
MODEL 4
REMARK VINA RESULT:      -1.1      1.554      4.983
REMARK  5 active torsions:
REMARK  status: ('A' for Active; 'I' for Inactive)
REMARK    1  A    between atoms: N_2  and  C_1 
REMARK    2  A    between atoms: N_3  and  C_1 
REMARK       I    between atoms: C_4  and  N_2 
REMARK    3  A    between atoms: C_7  and  N_3 
REMARK    4  A    between atoms: C_8  and  C_4 
REMARK    5  A    between atoms: C_9  and  C_8 
ROOT
ATOM      1  C   UNL d   1      32.851  20.944 -21.618  0.00  0.00     0.209 C 
ATOM      2  S   UNL d   1      33.241  21.217 -22.311  0.00  0.00    -0.038 SA
ENDROOT
BRANCH   1   3
ATOM      3  N   UNL d   1      33.017  20.222 -21.339  0.00  0.00    -0.180 NA
ATOM      4  C   UNL d   1      33.065  19.582 -21.830  0.00  0.00     0.281 C 
ATOM      5  O   UNL d   1      33.240  18.822 -21.530  0.00  0.00    -0.265 OA
BRANCH   4   6
ATOM      6  C   UNL d   1      32.942  19.669 -22.632  0.00  0.00     0.063 C 
BRANCH   6   7
ATOM      7  C   UNL d   1      32.868  19.004 -23.116  0.00  0.00     0.005 A 
ATOM      8  C   UNL d   1      33.168  18.285 -22.858  0.00  0.00     0.000 A 
ATOM      9  C   UNL d   1      33.101  17.603 -23.337  0.00  0.00     0.000 A 
ATOM     10  C   UNL d   1      32.729  17.667 -24.072  0.00  0.00     0.000 A 
ATOM     11  C   UNL d   1      32.427  18.384 -24.337  0.00  0.00     0.000 A 
ATOM     12  C   UNL d   1      32.491  19.074 -23.859  0.00  0.00     0.000 A 
ENDBRANCH   6   7
ENDBRANCH   4   6
ENDBRANCH   1   3
BRANCH   1  13
ATOM     13  N   UNL d   1      32.314  21.424 -21.250  0.00  0.00    -0.281 N 
ATOM     14  C   UNL d   1      31.462  21.215 -21.125  0.00  0.00     0.101 C 
BRANCH  13  15
ATOM     15  C   UNL d   1      32.530  22.142 -20.968  0.00  0.00     0.066 A 
ATOM     16  C   UNL d   1      32.596  22.804 -21.456  0.00  0.00     0.018 A 
ATOM     17  C   UNL d   1      32.818  23.535 -21.155  0.00  0.00     0.002 A 
ATOM     18  C   UNL d   1      32.983  23.623 -20.332  0.00  0.00     0.000 A 
ATOM     19  C   UNL d   1      32.917  22.961 -19.844  0.00  0.00     0.002 A 
ATOM     20  C   UNL d   1      32.690  22.222 -20.166  0.00  0.00     0.018 A 
ENDBRANCH  13  15
ENDBRANCH   1  13
TORSDOF 5
ENDMDL
MODEL 5
REMARK VINA RESULT:      -0.1      1.391      4.394
REMARK  5 active torsions:
REMARK  status: ('A' for Active; 'I' for Inactive)
REMARK    1  A    between atoms: N_2  and  C_1 
REMARK    2  A    between atoms: N_3  and  C_1 
REMARK       I    between atoms: C_4  and  N_2 
REMARK    3  A    between atoms: C_7  and  N_3 
REMARK    4  A    between atoms: C_8  and  C_4 
REMARK    5  A    between atoms: C_9  and  C_8 
ROOT
ATOM      1  C   UNL d   1      33.098  18.840 -23.530  0.00  0.00     0.209 C 
ATOM      2  S   UNL d   1      32.875  18.416 -22.839  0.00  0.00    -0.038 SA
ENDROOT
BRANCH   1   3
ATOM      3  N   UNL d   1      33.241  18.442 -24.199  0.00  0.00    -0.180 NA
ATOM      4  C   UNL d   1      32.846  17.760 -24.375  0.00  0.00     0.281 C 
ATOM      5  O   UNL d   1      33.000  17.344 -25.083  0.00  0.00    -0.265 OA
BRANCH   4   6
ATOM      6  C   UNL d   1      32.286  17.463 -23.860  0.00  0.00     0.063 C 
BRANCH   6   7
ATOM      7  C   UNL d   1      31.771  16.866 -24.103  0.00  0.00     0.005 A 
ATOM      8  C   UNL d   1      31.155  17.050 -24.613  0.00  0.00     0.000 A 
ATOM      9  C   UNL d   1      30.625  16.456 -24.869  0.00  0.00     0.000 A 
ATOM     10  C   UNL d   1      30.734  15.683 -24.599  0.00  0.00     0.000 A 
ATOM     11  C   UNL d   1      31.349  15.490 -24.089  0.00  0.00     0.000 A 
ATOM     12  C   UNL d   1      31.886  16.085 -23.828  0.00  0.00     0.000 A 
ENDBRANCH   6   7
ENDBRANCH   4   6
ENDBRANCH   1   3
BRANCH   1  13
ATOM     13  N   UNL d   1      33.163  19.645 -23.497  0.00  0.00    -0.281 N 
ATOM     14  C   UNL d   1      33.211  20.170 -24.209  0.00  0.00     0.101 C 
BRANCH  13  15
ATOM     15  C   UNL d   1      33.187  20.027 -22.793  0.00  0.00     0.066 A 
ATOM     16  C   UNL d   1      33.195  19.624 -22.074  0.00  0.00     0.018 A 
ATOM     17  C   UNL d   1      33.220  20.027 -21.358  0.00  0.00     0.002 A 
ATOM     18  C   UNL d   1      33.239  20.871 -21.347  0.00  0.00     0.000 A 
ATOM     19  C   UNL d   1      33.232  21.275 -22.067  0.00  0.00     0.002 A 
ATOM     20  C   UNL d   1      33.206  20.849 -22.788  0.00  0.00     0.018 A 
ENDBRANCH  13  15
ENDBRANCH   1  13
TORSDOF 5
ENDMDL
