MODEL 1
REMARK VINA RESULT:      -7.5      0.000      0.000
REMARK  4 active torsions:
REMARK  status: ('A' for Active; 'I' for Inactive)
REMARK    1  A    between atoms: N_2  and  S_1 
REMARK    2  A    between atoms: C_4  and  S_1 
REMARK       I    between atoms: C_3  and  N_7 
REMARK    3  A    between atoms: C_6  and  C_3 
REMARK    4  A    between atoms: N_7  and  C_12 
ROOT
ATOM      1  N   UNL d   1     -40.148  14.750  17.724  0.00  0.00    -0.230 N 
ATOM      2  C   UNL d   1     -40.189  15.042  18.494  0.00  0.00     0.076 A 
ATOM      3  C   UNL d   1     -39.673  14.769  19.074  0.00  0.00     0.037 A 
ATOM      4  C   UNL d   1     -39.725  15.074  19.847  0.00  0.00     0.086 A 
ATOM      5  C   UNL d   1     -40.758  15.620  18.688  0.00  0.00     0.017 A 
ATOM      6  C   UNL d   1     -40.807  15.921  19.458  0.00  0.00     0.003 A 
ATOM      7  C   UNL d   1     -40.671  15.029  17.146  0.00  0.00     0.092 A 
ATOM      8  C   UNL d   1     -40.287  15.642  20.032  0.00  0.00     0.019 A 
ATOM      9  C   UNL d   1     -41.235  15.601  17.334  0.00  0.00     0.020 A 
ATOM     10  C   UNL d   1     -41.279  15.895  18.102  0.00  0.00     0.003 A 
ENDROOT
BRANCH   4  11
ATOM     11  N   UNL d   1     -39.207  14.799  20.430  0.00  0.00    -0.208 NA
ATOM     12  C   UNL d   1     -39.486  14.322  21.039  0.00  0.00     0.282 C 
ATOM     13  O   UNL d   1     -40.285  14.110  21.078  0.00  0.00    -0.265 OA
BRANCH  12  14
ATOM     14  C   UNL d   1     -38.984  14.046  21.619  0.00  0.00     0.096 A 
ATOM     15  C   UNL d   1     -38.946  14.441  22.354  0.00  0.00     0.065 A 
ATOM     16 CL   UNL d   1     -39.417  15.106  22.483  0.00  0.00    -0.082 Cl
ATOM     17  C   UNL d   1     -38.441  14.165  22.942  0.00  0.00     0.012 A 
ATOM     18  C   UNL d   1     -37.971  13.495  22.805  0.00  0.00     0.003 A 
ATOM     19  C   UNL d   1     -38.010  13.105  22.078  0.00  0.00     0.030 A 
ATOM     20  C   UNL d   1     -38.516  13.384  21.492  0.00  0.00     0.146 A 
ATOM     21  F   UNL d   1     -38.550  12.994  20.774  0.00  0.00    -0.204 F 
ENDBRANCH  12  14
ENDBRANCH   4  11
BRANCH   1  22
ATOM     22  S   UNL d   1     -39.579  14.175  17.543  0.00  0.00     0.277 S 
ATOM     23  O   UNL d   1     -39.033  14.785  17.409  0.00  0.00    -0.199 OA
ATOM     24  O   UNL d   1     -40.120  13.579  17.675  0.00  0.00    -0.199 OA
BRANCH  22  25
ATOM     25  C   UNL d   1     -39.005  13.617  17.360  0.00  0.00     0.133 A 
ATOM     26  S   UNL d   1     -38.377  13.720  16.835  0.00  0.00    -0.074 SA
ATOM     27  C   UNL d   1     -37.940  13.028  16.818  0.00  0.00     0.036 A 
ATOM     28  C   UNL d   1     -38.291  12.487  17.333  0.00  0.00     0.008 A 
ATOM     29  C   UNL d   1     -38.953  12.856  17.669  0.00  0.00     0.020 A 
ENDBRANCH  22  25
ENDBRANCH   1  22
TORSDOF 4
ENDMDL
MODEL 2
REMARK VINA RESULT:      -6.3      8.577      9.426
REMARK  4 active torsions:
REMARK  status: ('A' for Active; 'I' for Inactive)
REMARK    1  A    between atoms: N_2  and  S_1 
REMARK    2  A    between atoms: C_4  and  S_1 
REMARK       I    between atoms: C_3  and  N_7 
REMARK    3  A    between atoms: C_6  and  C_3 
REMARK    4  A    between atoms: N_7  and  C_12 
ROOT
ATOM      1  N   UNL d   1     -48.939  14.178  22.667  0.00  0.00    -0.230 N 
ATOM      2  C   UNL d   1     -48.118  14.191  22.747  0.00  0.00     0.076 A 
ATOM      3  C   UNL d   1     -47.713  13.526  23.012  0.00  0.00     0.037 A 
ATOM      4  C   UNL d   1     -46.884  13.552  23.088  0.00  0.00     0.086 A 
ATOM      5  C   UNL d   1     -47.695  14.883  22.558  0.00  0.00     0.017 A 
ATOM      6  C   UNL d   1     -46.870  14.907  22.636  0.00  0.00     0.003 A 
ATOM      7  C   UNL d   1     -49.340  14.852  22.400  0.00  0.00     0.092 A 
ATOM      8  C   UNL d   1     -46.473  14.237  22.901  0.00  0.00     0.019 A 
ATOM      9  C   UNL d   1     -48.924  15.539  22.212  0.00  0.00     0.020 A 
ATOM     10  C   UNL d   1     -48.104  15.555  22.291  0.00  0.00     0.003 A 
ENDROOT
BRANCH   4  11
ATOM     11  N   UNL d   1     -46.477  12.884  23.355  0.00  0.00    -0.208 NA
ATOM     12  C   UNL d   1     -46.098  12.391  22.817  0.00  0.00     0.282 C 
ATOM     13  O   UNL d   1     -46.117  12.555  22.006  0.00  0.00    -0.265 OA
BRANCH  12  14
ATOM     14  C   UNL d   1     -45.693  11.729  23.067  0.00  0.00     0.096 A 
ATOM     15  C   UNL d   1     -44.867  11.681  22.948  0.00  0.00     0.065 A 
ATOM     16 CL   UNL d   1     -44.473  12.304  22.579  0.00  0.00    -0.082 Cl
ATOM     17  C   UNL d   1     -44.455  11.014  23.199  0.00  0.00     0.012 A 
ATOM     18  C   UNL d   1     -44.860  10.392  23.570  0.00  0.00     0.003 A 
ATOM     19  C   UNL d   1     -45.676  10.440  23.687  0.00  0.00     0.030 A 
ATOM     20  C   UNL d   1     -46.084  11.109  23.434  0.00  0.00     0.146 A 
ATOM     21  F   UNL d   1     -46.892  11.152  23.553  0.00  0.00    -0.204 F 
ENDBRANCH  12  14
ENDBRANCH   4  11
BRANCH   1  22
ATOM     22  S   UNL d   1     -49.351  13.484  22.857  0.00  0.00     0.277 S 
ATOM     23  O   UNL d   1     -49.357  13.289  22.052  0.00  0.00    -0.199 OA
ATOM     24  O   UNL d   1     -49.341  13.681  23.649  0.00  0.00    -0.199 OA
BRANCH  22  25
ATOM     25  C   UNL d   1     -49.758  12.793  23.032  0.00  0.00     0.133 A 
ATOM     26  S   UNL d   1     -50.225  12.660  23.698  0.00  0.00    -0.074 SA
ATOM     27  C   UNL d   1     -50.528  11.900  23.653  0.00  0.00     0.036 A 
ATOM     28  C   UNL d   1     -50.252  11.553  22.957  0.00  0.00     0.008 A 
ATOM     29  C   UNL d   1     -49.774  12.110  22.573  0.00  0.00     0.020 A 
ENDBRANCH  22  25
ENDBRANCH   1  22
TORSDOF 4
ENDMDL
MODEL 3
REMARK VINA RESULT:      -6.1      1.257      2.643
REMARK  4 active torsions:
REMARK  status: ('A' for Active; 'I' for Inactive)
REMARK    1  A    between atoms: N_2  and  S_1 
REMARK    2  A    between atoms: C_4  and  S_1 
REMARK       I    between atoms: C_3  and  N_7 
REMARK    3  A    between atoms: C_6  and  C_3 
REMARK    4  A    between atoms: N_7  and  C_12 
ROOT
ATOM      1  N   UNL d   1     -38.957  13.346  17.615  0.00  0.00    -0.230 N 
ATOM      2  C   UNL d   1     -38.662  13.261  18.381  0.00  0.00     0.076 A 
ATOM      3  C   UNL d   1     -38.781  13.849  18.944  0.00  0.00     0.037 A 
ATOM      4  C   UNL d   1     -38.477  13.749  19.713  0.00  0.00     0.086 A 
ATOM      5  C   UNL d   1     -38.240  12.572  18.587  0.00  0.00     0.017 A 
ATOM      6  C   UNL d   1     -37.940  12.476  19.353  0.00  0.00     0.003 A 
ATOM      7  C   UNL d   1     -38.834  12.750  17.054  0.00  0.00     0.092 A 
ATOM      8  C   UNL d   1     -38.063  13.069  19.910  0.00  0.00     0.019 A 
ATOM      9  C   UNL d   1     -38.417  12.067  17.255  0.00  0.00     0.020 A 
ATOM     10  C   UNL d   1     -38.121  11.978  18.018  0.00  0.00     0.003 A 
ENDROOT
BRANCH   4  11
ATOM     11  N   UNL d   1     -38.596  14.341  20.279  0.00  0.00    -0.208 NA
ATOM     12  C   UNL d   1     -39.048  14.186  20.947  0.00  0.00     0.282 C 
ATOM     13  O   UNL d   1     -39.390  13.441  21.065  0.00  0.00    -0.265 OA
BRANCH  12  14
ATOM     14  C   UNL d   1     -39.173  14.761  21.512  0.00  0.00     0.096 A 
ATOM     15  C   UNL d   1     -38.686  14.784  22.190  0.00  0.00     0.065 A 
ATOM     16 CL   UNL d   1     -38.086  14.226  22.280  0.00  0.00    -0.082 Cl
ATOM     17  C   UNL d   1     -38.808  15.363  22.763  0.00  0.00     0.012 A 
ATOM     18  C   UNL d   1     -39.414  15.921  22.665  0.00  0.00     0.003 A 
ATOM     19  C   UNL d   1     -39.895  15.897  21.994  0.00  0.00     0.030 A 
ATOM     20  C   UNL d   1     -39.770  15.317  21.424  0.00  0.00     0.146 A 
ATOM     21  F   UNL d   1     -40.249  15.297  20.762  0.00  0.00    -0.204 F 
ENDBRANCH  12  14
ENDBRANCH   4  11
BRANCH   1  22
ATOM     22  S   UNL d   1     -39.376  14.035  17.421  0.00  0.00     0.277 S 
ATOM     23  O   UNL d   1     -40.082  13.625  17.565  0.00  0.00    -0.199 OA
ATOM     24  O   UNL d   1     -38.678  14.435  17.281  0.00  0.00    -0.199 OA
BRANCH  22  25
ATOM     25  C   UNL d   1     -39.803  14.710  17.231  0.00  0.00     0.133 A 
ATOM     26  S   UNL d   1     -39.530  15.348  16.786  0.00  0.00    -0.074 SA
ATOM     27  C   UNL d   1     -40.132  15.901  16.730  0.00  0.00     0.036 A 
ATOM     28  C   UNL d   1     -40.787  15.612  17.141  0.00  0.00     0.008 A 
ATOM     29  C   UNL d   1     -40.579  14.871  17.452  0.00  0.00     0.020 A 
ENDBRANCH  22  25
ENDBRANCH   1  22
TORSDOF 4
ENDMDL
