MODEL 1
REMARK VINA RESULT:      17.2      0.000      0.000
REMARK  3 active torsions:
REMARK  status: ('A' for Active; 'I' for Inactive)
REMARK    1  A    between atoms: C_7  and  C_1 
REMARK    2  A    between atoms: C_13  and  C_7 
REMARK    3  A    between atoms: N_12  and  C_11 
ROOT
ATOM      1  C   UNL d   1      14.010  11.780  -1.721  0.00  0.00     0.010 C 
ENDROOT
BRANCH   1   2
ATOM      2  C   UNL d   1      14.437  12.320  -1.310  0.00  0.00     0.116 A 
ATOM      3  C   UNL d   1      14.080  12.789  -0.732  0.00  0.00     0.288 A 
ATOM      4  N   UNL d   1      14.508  13.345  -0.305  0.00  0.00    -0.152 NA
ATOM      5  O   UNL d   1      13.272  12.695  -0.580  0.00  0.00    -0.265 OA
ATOM      6  C   UNL d   1      15.302  13.437  -0.455  0.00  0.00     0.374 A 
ATOM      7  N   UNL d   1      15.682  12.984  -1.024  0.00  0.00    -0.152 NA
ATOM      8  O   UNL d   1      15.735  14.007  -0.016  0.00  0.00    -0.242 OA
ATOM      9  C   UNL d   1      15.246  12.430  -1.446  0.00  0.00     0.288 A 
ATOM     10  O   UNL d   1      15.625  11.966  -2.026  0.00  0.00    -0.265 OA
ENDBRANCH   1   2
BRANCH   1  11
ATOM     11  C   UNL d   1      13.776  11.941  -2.498  0.00  0.00     0.000 A 
ATOM     12  C   UNL d   1      14.300  12.249  -3.021  0.00  0.00     0.002 A 
ATOM     13  C   UNL d   1      14.093  12.414  -3.785  0.00  0.00     0.018 A 
ATOM     14  C   UNL d   1      13.317  12.256  -4.020  0.00  0.00     0.064 A 
ATOM     15  C   UNL d   1      12.770  11.937  -3.485  0.00  0.00     0.018 A 
ATOM     16  C   UNL d   1      12.999  11.780  -2.726  0.00  0.00     0.002 A 
BRANCH  14  17
ATOM     17  N   UNL d   1      13.097  12.422  -4.801  0.00  0.00    -0.301 N 
ATOM     18  C   UNL d   1      12.907  13.186  -5.013  0.00  0.00     0.100 C 
ATOM     19  C   UNL d   1      13.078  11.800  -5.349  0.00  0.00     0.100 C 
ENDBRANCH  14  17
ENDBRANCH   1  11
TORSDOF 3
ENDMDL
