MODEL 1
REMARK VINA RESULT:      -8.6      0.000      0.000
REMARK  4 active torsions:
REMARK  status: ('A' for Active; 'I' for Inactive)
REMARK    1  A    between atoms: C_21  and  N_5 
REMARK    2  A    between atoms: C_11  and  C_6 
REMARK       I    between atoms: N_15  and  C_11 
REMARK    3  A    between atoms: C_23  and  N_15 
REMARK    4  A    between atoms: C_22  and  C_23 
ROOT
ATOM      1  C   UNL d   1      52.381  33.401  53.746  0.00  0.00     0.155 A 
ATOM      2  C   UNL d   1      52.330  34.227  53.672  0.00  0.00     0.091 A 
ATOM      3  N   UNL d   1      52.999  33.068  54.170  0.00  0.00    -0.210 NA
ATOM      4  N   UNL d   1      53.517  34.361  54.450  0.00  0.00    -0.258 N 
ATOM      5  N   UNL d   1      51.813  32.926  53.393  0.00  0.00    -0.274 N 
ATOM      6  C   UNL d   1      51.139  34.084  52.892  0.00  0.00     0.094 A 
ATOM      7  C   UNL d   1      53.567  33.544  54.523  0.00  0.00     0.152 A 
ATOM      8  C   UNL d   1      52.897  34.711  54.024  0.00  0.00     0.269 A 
ATOM      9  C   UNL d   1      51.189  33.266  52.965  0.00  0.00     0.175 A 
ATOM     10  C   UNL d   1      51.711  34.569  53.247  0.00  0.00     0.016 A 
ATOM     11  C   UNL d   1      54.188  33.210  54.949  0.00  0.00     0.035 A 
ATOM     12  C   UNL d   1      54.087  34.854  54.803  0.00  0.00     0.084 A 
ATOM     13  N   UNL d   1      50.622  32.777  52.613  0.00  0.00    -0.128 N 
ATOM     14  O   UNL d   1      52.853  35.529  53.956  0.00  0.00    -0.266 OA
ATOM     15  C   UNL d   1      54.704  34.503  55.227  0.00  0.00     0.019 A 
ATOM     16  C   UNL d   1      54.754  33.686  55.300  0.00  0.00     0.005 A 
ATOM     17  C   UNL d   1      54.239  32.387  55.022  0.00  0.00     0.003 C 
ENDROOT
BRANCH   6  18
ATOM     18  C   UNL d   1      50.520  34.426  52.467  0.00  0.00     0.282 C 
ATOM     19  N   UNL d   1      49.893  34.777  52.873  0.00  0.00    -0.206 NA
ATOM     20  O   UNL d   1      50.528  34.417  51.645  0.00  0.00    -0.265 OA
BRANCH  19  21
ATOM     21  C   UNL d   1      49.267  35.124  52.448  0.00  0.00     0.104 C 
BRANCH  21  22
ATOM     22  C   UNL d   1      48.674  35.537  52.851  0.00  0.00     0.038 A 
ATOM     23  C   UNL d   1      48.830  35.846  53.600  0.00  0.00     0.101 A 
ATOM     24  N   UNL d   1      48.237  36.258  54.000  0.00  0.00    -0.242 NA
ATOM     25  C   UNL d   1      47.496  36.363  53.661  0.00  0.00     0.099 A 
ATOM     26  C   UNL d   1      47.343  36.050  52.907  0.00  0.00     0.021 A 
ATOM     27  C   UNL d   1      47.934  35.639  52.507  0.00  0.00     0.005 A 
ENDBRANCH  21  22
ENDBRANCH  19  21
ENDBRANCH   6  18
BRANCH   5  28
ATOM     28  C   UNL d   1      51.863  32.102  53.466  0.00  0.00     0.083 C 
ATOM     29  C   UNL d   1      52.062  31.644  52.807  0.00  0.00     0.021 C 
ENDBRANCH   5  28
TORSDOF 4
ENDMDL
MODEL 2
REMARK VINA RESULT:      -7.4      1.431      2.653
REMARK  4 active torsions:
REMARK  status: ('A' for Active; 'I' for Inactive)
REMARK    1  A    between atoms: C_21  and  N_5 
REMARK    2  A    between atoms: C_11  and  C_6 
REMARK       I    between atoms: N_15  and  C_11 
REMARK    3  A    between atoms: C_23  and  N_15 
REMARK    4  A    between atoms: C_22  and  C_23 
ROOT
ATOM      1  C   UNL d   1      52.514  33.068  53.287  0.00  0.00     0.155 A 
ATOM      2  C   UNL d   1      51.747  32.754  53.250  0.00  0.00     0.091 A 
ATOM      3  N   UNL d   1      53.161  32.564  53.301  0.00  0.00    -0.210 NA
ATOM      4  N   UNL d   1      52.296  31.438  53.242  0.00  0.00    -0.258 N 
ATOM      5  N   UNL d   1      52.620  33.882  53.309  0.00  0.00    -0.274 N 
ATOM      6  C   UNL d   1      51.204  34.078  53.259  0.00  0.00     0.094 A 
ATOM      7  C   UNL d   1      53.055  31.750  53.279  0.00  0.00     0.152 A 
ATOM      8  C   UNL d   1      51.633  31.937  53.228  0.00  0.00     0.269 A 
ATOM      9  C   UNL d   1      51.964  34.389  53.295  0.00  0.00     0.175 A 
ATOM     10  C   UNL d   1      51.092  33.256  53.236  0.00  0.00     0.016 A 
ATOM     11  C   UNL d   1      53.703  31.242  53.293  0.00  0.00     0.035 A 
ATOM     12  C   UNL d   1      52.176  30.615  53.219  0.00  0.00     0.084 A 
ATOM     13  N   UNL d   1      52.082  35.208  53.318  0.00  0.00    -0.128 N 
ATOM     14  O   UNL d   1      50.876  31.618  53.191  0.00  0.00    -0.266 OA
ATOM     15  C   UNL d   1      52.837  30.119  53.234  0.00  0.00     0.019 A 
ATOM     16  C   UNL d   1      53.597  30.431  53.270  0.00  0.00     0.005 A 
ATOM     17  C   UNL d   1      54.469  31.556  53.329  0.00  0.00     0.003 C 
ENDROOT
BRANCH   6  18
ATOM     18  C   UNL d   1      50.549  34.579  53.244  0.00  0.00     0.282 C 
ATOM     19  N   UNL d   1      50.022  34.542  52.610  0.00  0.00    -0.206 NA
ATOM     20  O   UNL d   1      50.422  35.112  53.857  0.00  0.00    -0.265 OA
BRANCH  19  21
ATOM     21  C   UNL d   1      49.360  35.046  52.592  0.00  0.00     0.104 C 
BRANCH  21  22
ATOM     22  C   UNL d   1      48.817  34.993  51.969  0.00  0.00     0.038 A 
ATOM     23  C   UNL d   1      49.016  34.565  51.292  0.00  0.00     0.101 A 
ATOM     24  N   UNL d   1      48.474  34.513  50.672  0.00  0.00    -0.242 NA
ATOM     25  C   UNL d   1      47.741  34.881  50.723  0.00  0.00     0.099 A 
ATOM     26  C   UNL d   1      47.545  35.310  51.406  0.00  0.00     0.021 A 
ATOM     27  C   UNL d   1      48.086  35.363  52.025  0.00  0.00     0.005 A 
ENDBRANCH  21  22
ENDBRANCH  19  21
ENDBRANCH   6  18
BRANCH   5  28
ATOM     28  C   UNL d   1      53.385  34.196  53.346  0.00  0.00     0.083 C 
ATOM     29  C   UNL d   1      53.608  34.657  53.995  0.00  0.00     0.021 C 
ENDBRANCH   5  28
TORSDOF 4
ENDMDL
MODEL 3
REMARK VINA RESULT:      -6.7      9.800     10.884
REMARK  4 active torsions:
REMARK  status: ('A' for Active; 'I' for Inactive)
REMARK    1  A    between atoms: C_21  and  N_5 
REMARK    2  A    between atoms: C_11  and  C_6 
REMARK       I    between atoms: N_15  and  C_11 
REMARK    3  A    between atoms: C_23  and  N_15 
REMARK    4  A    between atoms: C_22  and  C_23 
ROOT
ATOM      1  C   UNL d   1      44.884  28.001  57.735  0.00  0.00     0.155 A 
ATOM      2  C   UNL d   1      44.956  27.927  58.559  0.00  0.00     0.091 A 
ATOM      3  N   UNL d   1      44.795  27.330  57.272  0.00  0.00    -0.210 NA
ATOM      4  N   UNL d   1      44.849  26.512  58.433  0.00  0.00    -0.258 N 
ATOM      5  N   UNL d   1      44.901  28.746  57.391  0.00  0.00    -0.274 N 
ATOM      6  C   UNL d   1      45.063  29.349  58.677  0.00  0.00     0.094 A 
ATOM      7  C   UNL d   1      44.778  26.585  57.617  0.00  0.00     0.152 A 
ATOM      8  C   UNL d   1      44.939  27.183  58.912  0.00  0.00     0.269 A 
ATOM      9  C   UNL d   1      44.991  29.423  57.862  0.00  0.00     0.175 A 
ATOM     10  C   UNL d   1      45.045  28.599  59.031  0.00  0.00     0.016 A 
ATOM     11  C   UNL d   1      44.689  25.910  57.154  0.00  0.00     0.035 A 
ATOM     12  C   UNL d   1      44.833  25.762  58.794  0.00  0.00     0.084 A 
ATOM     13  N   UNL d   1      45.007  30.169  57.503  0.00  0.00    -0.128 N 
ATOM     14  O   UNL d   1      45.010  27.101  59.727  0.00  0.00    -0.266 OA
ATOM     15  C   UNL d   1      44.743  25.095  58.314  0.00  0.00     0.019 A 
ATOM     16  C   UNL d   1      44.671  25.168  57.499  0.00  0.00     0.005 A 
ATOM     17  C   UNL d   1      44.617  25.984  56.332  0.00  0.00     0.003 C 
ENDROOT
BRANCH   6  18
ATOM     18  C   UNL d   1      45.152  30.021  59.149  0.00  0.00     0.282 C 
ATOM     19  N   UNL d   1      44.818  30.034  59.904  0.00  0.00    -0.206 NA
ATOM     20  O   UNL d   1      45.570  30.671  58.870  0.00  0.00    -0.265 OA
BRANCH  19  21
ATOM     21  C   UNL d   1      44.906  30.709  60.383  0.00  0.00     0.104 C 
BRANCH  21  22
ATOM     22  C   UNL d   1      44.708  30.674  61.186  0.00  0.00     0.038 A 
ATOM     23  C   UNL d   1      44.702  29.945  61.572  0.00  0.00     0.101 A 
ATOM     24  N   UNL d   1      44.504  29.911  62.372  0.00  0.00    -0.242 NA
ATOM     25  C   UNL d   1      44.314  30.595  62.787  0.00  0.00     0.099 A 
ATOM     26  C   UNL d   1      44.321  31.327  62.395  0.00  0.00     0.021 A 
ATOM     27  C   UNL d   1      44.519  31.361  61.596  0.00  0.00     0.005 A 
ENDBRANCH  21  22
ENDBRANCH  19  21
ENDBRANCH   6  18
BRANCH   5  28
ATOM     28  C   UNL d   1      44.829  28.820  56.569  0.00  0.00     0.083 C 
ATOM     29  C   UNL d   1      44.389  29.443  56.251  0.00  0.00     0.021 C 
ENDBRANCH   5  28
TORSDOF 4
ENDMDL
MODEL 4
REMARK VINA RESULT:      -5.8      1.548      5.211
REMARK  4 active torsions:
REMARK  status: ('A' for Active; 'I' for Inactive)
REMARK    1  A    between atoms: C_21  and  N_5 
REMARK    2  A    between atoms: C_11  and  C_6 
REMARK       I    between atoms: N_15  and  C_11 
REMARK    3  A    between atoms: C_23  and  N_15 
REMARK    4  A    between atoms: C_22  and  C_23 
ROOT
ATOM      1  C   UNL d   1      50.818  34.540  53.246  0.00  0.00     0.155 A 
ATOM      2  C   UNL d   1      50.752  34.018  52.605  0.00  0.00     0.091 A 
ATOM      3  N   UNL d   1      50.217  35.078  53.397  0.00  0.00    -0.210 NA
ATOM      4  N   UNL d   1      49.485  34.585  52.283  0.00  0.00    -0.258 N 
ATOM      5  N   UNL d   1      51.485  34.515  53.725  0.00  0.00    -0.274 N 
ATOM      6  C   UNL d   1      52.025  33.452  52.935  0.00  0.00     0.094 A 
ATOM      7  C   UNL d   1      49.551  35.103  52.918  0.00  0.00     0.152 A 
ATOM      8  C   UNL d   1      50.086  34.037  52.120  0.00  0.00     0.269 A 
ATOM      9  C   UNL d   1      52.090  33.970  53.570  0.00  0.00     0.175 A 
ATOM     10  C   UNL d   1      51.353  33.474  52.448  0.00  0.00     0.016 A 
ATOM     11  C   UNL d   1      48.946  35.642  53.068  0.00  0.00     0.035 A 
ATOM     12  C   UNL d   1      48.815  34.601  51.790  0.00  0.00     0.084 A 
ATOM     13  N   UNL d   1      52.758  33.954  54.060  0.00  0.00    -0.128 N 
ATOM     14  O   UNL d   1      50.013  33.522  51.483  0.00  0.00    -0.266 OA
ATOM     15  C   UNL d   1      48.217  35.148  51.954  0.00  0.00     0.019 A 
ATOM     16  C   UNL d   1      48.283  35.666  52.589  0.00  0.00     0.005 A 
ATOM     17  C   UNL d   1      49.012  36.164  53.707  0.00  0.00     0.003 C 
ENDROOT
BRANCH   6  18
ATOM     18  C   UNL d   1      52.626  32.909  52.778  0.00  0.00     0.282 C 
ATOM     19  N   UNL d   1      52.545  32.128  53.034  0.00  0.00    -0.206 NA
ATOM     20  O   UNL d   1      53.300  33.143  52.369  0.00  0.00    -0.265 OA
BRANCH  19  21
ATOM     21  C   UNL d   1      53.149  31.577  52.877  0.00  0.00     0.104 C 
BRANCH  21  22
ATOM     22  C   UNL d   1      53.113  30.820  53.211  0.00  0.00     0.038 A 
ATOM     23  C   UNL d   1      52.536  30.290  52.954  0.00  0.00     0.101 A 
ATOM     24  N   UNL d   1      52.502  29.535  53.288  0.00  0.00    -0.242 NA
ATOM     25  C   UNL d   1      53.035  29.310  53.871  0.00  0.00     0.099 A 
ATOM     26  C   UNL d   1      53.614  29.847  54.127  0.00  0.00     0.021 A 
ATOM     27  C   UNL d   1      53.649  30.600  53.795  0.00  0.00     0.005 A 
ENDBRANCH  21  22
ENDBRANCH  19  21
ENDBRANCH   6  18
BRANCH   5  28
ATOM     28  C   UNL d   1      51.550  35.037  54.365  0.00  0.00     0.083 C 
ATOM     29  C   UNL d   1      52.260  35.441  54.493  0.00  0.00     0.021 C 
ENDBRANCH   5  28
TORSDOF 4
ENDMDL
MODEL 5
REMARK VINA RESULT:      -5.8      9.898     11.086
REMARK  4 active torsions:
REMARK  status: ('A' for Active; 'I' for Inactive)
REMARK    1  A    between atoms: C_21  and  N_5 
REMARK    2  A    between atoms: C_11  and  C_6 
REMARK       I    between atoms: N_15  and  C_11 
REMARK    3  A    between atoms: C_23  and  N_15 
REMARK    4  A    between atoms: C_22  and  C_23 
ROOT
ATOM      1  C   UNL d   1      44.758  29.657  59.375  0.00  0.00     0.155 A 
ATOM      2  C   UNL d   1      44.749  28.830  59.445  0.00  0.00     0.091 A 
ATOM      3  N   UNL d   1      44.657  30.123  60.042  0.00  0.00    -0.210 NA
ATOM      4  N   UNL d   1      44.539  28.960  60.849  0.00  0.00    -0.258 N 
ATOM      5  N   UNL d   1      44.867  30.002  58.638  0.00  0.00    -0.274 N 
ATOM      6  C   UNL d   1      44.959  28.708  58.035  0.00  0.00     0.094 A 
ATOM      7  C   UNL d   1      44.548  29.779  60.779  0.00  0.00     0.152 A 
ATOM      8  C   UNL d   1      44.640  28.476  60.182  0.00  0.00     0.269 A 
ATOM      9  C   UNL d   1      44.968  29.527  57.966  0.00  0.00     0.175 A 
ATOM     10  C   UNL d   1      44.849  28.355  58.778  0.00  0.00     0.016 A 
ATOM     11  C   UNL d   1      44.447  30.245  61.450  0.00  0.00     0.035 A 
ATOM     12  C   UNL d   1      44.429  28.598  61.590  0.00  0.00     0.084 A 
ATOM     13  N   UNL d   1      45.077  29.886  57.227  0.00  0.00    -0.128 N 
ATOM     14  O   UNL d   1      44.630  27.658  60.259  0.00  0.00    -0.266 OA
ATOM     15  C   UNL d   1      44.329  29.081  62.254  0.00  0.00     0.019 A 
ATOM     16  C   UNL d   1      44.338  29.900  62.184  0.00  0.00     0.005 A 
ATOM     17  C   UNL d   1      44.456  31.070  61.380  0.00  0.00     0.003 C 
ENDROOT
BRANCH   6  18
ATOM     18  C   UNL d   1      45.060  28.233  57.368  0.00  0.00     0.282 C 
ATOM     19  N   UNL d   1      44.855  27.434  57.403  0.00  0.00    -0.206 NA
ATOM     20  O   UNL d   1      45.362  28.553  56.673  0.00  0.00    -0.265 OA
BRANCH  19  21
ATOM     21  C   UNL d   1      44.955  26.952  56.732  0.00  0.00     0.104 C 
BRANCH  21  22
ATOM     22  C   UNL d   1      44.741  26.153  56.764  0.00  0.00     0.038 A 
ATOM     23  C   UNL d   1      44.534  25.815  57.487  0.00  0.00     0.101 A 
ATOM     24  N   UNL d   1      44.321  25.018  57.517  0.00  0.00    -0.242 NA
ATOM     25  C   UNL d   1      44.314  24.560  56.834  0.00  0.00     0.099 A 
ATOM     26  C   UNL d   1      44.524  24.904  56.108  0.00  0.00     0.021 A 
ATOM     27  C   UNL d   1      44.736  25.699  56.078  0.00  0.00     0.005 A 
ENDBRANCH  21  22
ENDBRANCH  19  21
ENDBRANCH   6  18
BRANCH   5  28
ATOM     28  C   UNL d   1      44.876  30.827  58.568  0.00  0.00     0.083 C 
ATOM     29  C   UNL d   1      44.344  31.201  58.057  0.00  0.00     0.021 C 
ENDBRANCH   5  28
TORSDOF 4
ENDMDL
MODEL 6
REMARK VINA RESULT:      -5.7      2.255      4.884
REMARK  4 active torsions:
REMARK  status: ('A' for Active; 'I' for Inactive)
REMARK    1  A    between atoms: C_21  and  N_5 
REMARK    2  A    between atoms: C_11  and  C_6 
REMARK       I    between atoms: N_15  and  C_11 
REMARK    3  A    between atoms: C_23  and  N_15 
REMARK    4  A    between atoms: C_22  and  C_23 
ROOT
ATOM      1  C   UNL d   1      52.667  33.534  53.648  0.00  0.00     0.155 A 
ATOM      2  C   UNL d   1      53.328  33.118  53.928  0.00  0.00     0.091 A 
ATOM      3  N   UNL d   1      52.573  34.326  53.840  0.00  0.00    -0.210 NA
ATOM      4  N   UNL d   1      53.783  34.298  54.585  0.00  0.00    -0.258 N 
ATOM      5  N   UNL d   1      52.112  33.150  53.181  0.00  0.00    -0.274 N 
ATOM      6  C   UNL d   1      52.865  31.937  53.265  0.00  0.00     0.094 A 
ATOM      7  C   UNL d   1      53.128  34.710  54.308  0.00  0.00     0.152 A 
ATOM      8  C   UNL d   1      53.890  33.497  54.398  0.00  0.00     0.269 A 
ATOM      9  C   UNL d   1      52.210  32.350  52.988  0.00  0.00     0.175 A 
ATOM     10  C   UNL d   1      53.428  32.321  53.738  0.00  0.00     0.016 A 
ATOM     11  C   UNL d   1      53.036  35.505  54.502  0.00  0.00     0.035 A 
ATOM     12  C   UNL d   1      54.352  34.676  55.060  0.00  0.00     0.084 A 
ATOM     13  N   UNL d   1      51.644  31.973  52.516  0.00  0.00    -0.128 N 
ATOM     14  O   UNL d   1      54.547  33.091  54.679  0.00  0.00    -0.266 OA
ATOM     15  C   UNL d   1      54.244  35.475  55.245  0.00  0.00     0.019 A 
ATOM     16  C   UNL d   1      53.590  35.887  54.968  0.00  0.00     0.005 A 
ATOM     17  C   UNL d   1      52.376  35.921  54.223  0.00  0.00     0.003 C 
ENDROOT
BRANCH   6  18
ATOM     18  C   UNL d   1      52.965  31.140  53.076  0.00  0.00     0.282 C 
ATOM     19  N   UNL d   1      53.018  30.582  53.681  0.00  0.00    -0.206 NA
ATOM     20  O   UNL d   1      53.012  30.904  52.290  0.00  0.00    -0.265 OA
BRANCH  19  21
ATOM     21  C   UNL d   1      53.119  29.777  53.494  0.00  0.00     0.104 C 
BRANCH  21  22
ATOM     22  C   UNL d   1      53.258  29.228  54.098  0.00  0.00     0.038 A 
ATOM     23  C   UNL d   1      52.772  29.225  54.764  0.00  0.00     0.101 A 
ATOM     24  N   UNL d   1      52.911  28.676  55.365  0.00  0.00    -0.242 NA
ATOM     25  C   UNL d   1      53.527  28.135  55.305  0.00  0.00     0.099 A 
ATOM     26  C   UNL d   1      54.013  28.141  54.632  0.00  0.00     0.021 A 
ATOM     27  C   UNL d   1      53.875  28.689  54.032  0.00  0.00     0.005 A 
ENDBRANCH  21  22
ENDBRANCH  19  21
ENDBRANCH   6  18
BRANCH   5  28
ATOM     28  C   UNL d   1      51.452  33.566  52.901  0.00  0.00     0.083 C 
ATOM     29  C   UNL d   1      50.694  33.340  53.141  0.00  0.00     0.021 C 
ENDBRANCH   5  28
TORSDOF 4
ENDMDL
MODEL 7
REMARK VINA RESULT:      -5.6      9.942     11.033
REMARK  4 active torsions:
REMARK  status: ('A' for Active; 'I' for Inactive)
REMARK    1  A    between atoms: C_21  and  N_5 
REMARK    2  A    between atoms: C_11  and  C_6 
REMARK       I    between atoms: N_15  and  C_11 
REMARK    3  A    between atoms: C_23  and  N_15 
REMARK    4  A    between atoms: C_22  and  C_23 
ROOT
ATOM      1  C   UNL d   1      44.663  28.974  57.978  0.00  0.00     0.155 A 
ATOM      2  C   UNL d   1      44.624  29.426  58.673  0.00  0.00     0.091 A 
ATOM      3  N   UNL d   1      44.655  29.347  57.248  0.00  0.00    -0.210 NA
ATOM      4  N   UNL d   1      44.569  30.614  57.887  0.00  0.00    -0.258 N 
ATOM      5  N   UNL d   1      44.710  28.156  58.027  0.00  0.00    -0.274 N 
ATOM      6  C   UNL d   1      44.679  28.229  59.455  0.00  0.00     0.094 A 
ATOM      7  C   UNL d   1      44.608  30.166  57.199  0.00  0.00     0.152 A 
ATOM      8  C   UNL d   1      44.577  30.249  58.631  0.00  0.00     0.269 A 
ATOM      9  C   UNL d   1      44.718  27.781  58.767  0.00  0.00     0.175 A 
ATOM     10  C   UNL d   1      44.632  29.057  59.411  0.00  0.00     0.016 A 
ATOM     11  C   UNL d   1      44.600  30.543  56.466  0.00  0.00     0.035 A 
ATOM     12  C   UNL d   1      44.522  31.444  57.850  0.00  0.00     0.084 A 
ATOM     13  N   UNL d   1      44.765  26.956  58.805  0.00  0.00    -0.128 N 
ATOM     14  O   UNL d   1      44.538  30.703  59.315  0.00  0.00    -0.266 OA
ATOM     15  C   UNL d   1      44.514  31.806  57.107  0.00  0.00     0.019 A 
ATOM     16  C   UNL d   1      44.553  31.358  56.419  0.00  0.00     0.005 A 
ATOM     17  C   UNL d   1      44.639  30.091  55.773  0.00  0.00     0.003 C 
ENDROOT
BRANCH   6  18
ATOM     18  C   UNL d   1      44.687  27.860  60.193  0.00  0.00     0.282 C 
ATOM     19  N   UNL d   1      44.638  28.319  60.878  0.00  0.00    -0.206 NA
ATOM     20  O   UNL d   1      44.743  27.042  60.246  0.00  0.00    -0.265 OA
BRANCH  19  21
ATOM     21  C   UNL d   1      44.646  27.950  61.624  0.00  0.00     0.104 C 
BRANCH  21  22
ATOM     22  C   UNL d   1      44.536  28.402  62.309  0.00  0.00     0.038 A 
ATOM     23  C   UNL d   1      44.488  29.223  62.250  0.00  0.00     0.101 A 
ATOM     24  N   UNL d   1      44.378  29.673  62.934  0.00  0.00    -0.242 NA
ATOM     25  C   UNL d   1      44.315  29.310  63.669  0.00  0.00     0.099 A 
ATOM     26  C   UNL d   1      44.364  28.483  63.723  0.00  0.00     0.021 A 
ATOM     27  C   UNL d   1      44.473  28.034  63.041  0.00  0.00     0.005 A 
ENDBRANCH  21  22
ENDBRANCH  19  21
ENDBRANCH   6  18
BRANCH   5  28
ATOM     28  C   UNL d   1      44.749  27.704  57.334  0.00  0.00     0.083 C 
ATOM     29  C   UNL d   1      45.385  27.190  57.215  0.00  0.00     0.021 C 
ENDBRANCH   5  28
TORSDOF 4
ENDMDL
