MODEL 1
REMARK VINA RESULT:      -5.8      0.000      0.000
REMARK  4 active torsions:
REMARK  status: ('A' for Active; 'I' for Inactive)
REMARK    1  A    between atoms: C_6  and  C_1 
REMARK    2  A    between atoms: C_7  and  C_5 
REMARK    3  A    between atoms: O_15  and  C_12 
REMARK    4  A    between atoms: C_16  and  O_15 
ROOT
ATOM      1  C   UNL d   1     -41.391-122.745 -52.340  0.00  0.00     0.020 A 
ATOM      2  C   UNL d   1     -41.489-122.107 -51.807  0.00  0.00     0.004 A 
ATOM      3  C   UNL d   1     -41.210-123.496 -52.051  0.00  0.00     0.004 A 
ATOM      4  C   UNL d   1     -41.218-123.001 -50.707  0.00  0.00     0.100 A 
ATOM      5  C   UNL d   1     -41.403-122.234 -50.997  0.00  0.00     0.025 A 
ATOM      6  C   UNL d   1     -41.124-123.623 -51.241  0.00  0.00     0.025 A 
ENDROOT
BRANCH   1   7
ATOM      7  C   UNL d   1     -41.477-122.620 -53.153  0.00  0.00     0.105 A 
ATOM      8  C   UNL d   1     -42.293-121.852 -53.925  0.00  0.00     0.048 A 
ATOM      9  C   UNL d   1     -41.932-122.132 -54.576  0.00  0.00     0.169 A 
ATOM     10  N   UNL d   1     -41.345-122.653 -54.517  0.00  0.00    -0.142 NA
ATOM     11  N   UNL d   1     -41.123-122.894 -53.800  0.00  0.00    -0.148 NA
BRANCH   9  12
ATOM     12  C   UNL d   1     -42.168-121.880 -55.290  0.00  0.00     0.231 C 
ATOM     13  O   UNL d   1     -41.639-121.583 -55.796  0.00  0.00    -0.643 OA
ATOM     14  O   UNL d   1     -42.964-121.930 -55.499  0.00  0.00    -0.643 OA
ENDBRANCH   9  12
ENDBRANCH   1   7
BRANCH   4  15
ATOM     15  O   UNL d   1     -41.134-123.121 -49.887  0.00  0.00    -0.305 OA
BRANCH  15  16
ATOM     16  C   UNL d   1     -41.809-123.188 -49.416  0.00  0.00     0.123 C 
ATOM     17  C   UNL d   1     -41.736-123.382 -48.611  0.00  0.00     0.029 C 
ENDBRANCH  15  16
ENDBRANCH   4  15
TORSDOF 4
ENDMDL
MODEL 2
REMARK VINA RESULT:      -5.2      0.952      1.438
REMARK  4 active torsions:
REMARK  status: ('A' for Active; 'I' for Inactive)
REMARK    1  A    between atoms: C_6  and  C_1 
REMARK    2  A    between atoms: C_7  and  C_5 
REMARK    3  A    between atoms: O_15  and  C_12 
REMARK    4  A    between atoms: C_16  and  O_15 
ROOT
ATOM      1  C   UNL d   1     -41.389-122.759 -51.418  0.00  0.00     0.020 A 
ATOM      2  C   UNL d   1     -41.124-123.487 -51.102  0.00  0.00     0.004 A 
ATOM      3  C   UNL d   1     -41.717-122.190 -50.918  0.00  0.00     0.004 A 
ATOM      4  C   UNL d   1     -41.527-123.050 -49.788  0.00  0.00     0.100 A 
ATOM      5  C   UNL d   1     -41.192-123.631 -50.293  0.00  0.00     0.025 A 
ATOM      6  C   UNL d   1     -41.785-122.334 -50.109  0.00  0.00     0.025 A 
ENDROOT
BRANCH   1   7
ATOM      7  C   UNL d   1     -41.321-122.612 -52.229  0.00  0.00     0.105 A 
ATOM      8  C   UNL d   1     -41.471-123.362 -53.356  0.00  0.00     0.048 A 
ATOM      9  C   UNL d   1     -41.292-122.725 -53.797  0.00  0.00     0.169 A 
ATOM     10  N   UNL d   1     -41.128-122.034 -53.457  0.00  0.00    -0.142 NA
ATOM     11  N   UNL d   1     -41.145-121.985 -52.670  0.00  0.00    -0.148 NA
BRANCH   9  12
ATOM     12  C   UNL d   1     -41.280-122.791 -54.587  0.00  0.00     0.231 C 
ATOM     13  O   UNL d   1     -41.128-123.492 -54.919  0.00  0.00    -0.643 OA
ATOM     14  O   UNL d   1     -41.425-122.128 -55.055  0.00  0.00    -0.643 OA
ENDBRANCH   9  12
ENDBRANCH   1   7
BRANCH   4  15
ATOM     15  O   UNL d   1     -41.593-123.203 -48.971  0.00  0.00    -0.305 OA
BRANCH  15  16
ATOM     16  C   UNL d   1     -42.327-123.121 -48.602  0.00  0.00     0.123 C 
ATOM     17  C   UNL d   1     -42.407-123.294 -47.793  0.00  0.00     0.029 C 
ENDBRANCH  15  16
ENDBRANCH   4  15
TORSDOF 4
ENDMDL
MODEL 3
REMARK VINA RESULT:      -5.1      1.919      4.687
REMARK  4 active torsions:
REMARK  status: ('A' for Active; 'I' for Inactive)
REMARK    1  A    between atoms: C_6  and  C_1 
REMARK    2  A    between atoms: C_7  and  C_5 
REMARK    3  A    between atoms: O_15  and  C_12 
REMARK    4  A    between atoms: C_16  and  O_15 
ROOT
ATOM      1  C   UNL d   1     -41.478-122.836 -51.218  0.00  0.00     0.020 A 
ATOM      2  C   UNL d   1     -41.593-122.065 -51.520  0.00  0.00     0.004 A 
ATOM      3  C   UNL d   1     -41.247-123.445 -51.725  0.00  0.00     0.004 A 
ATOM      4  C   UNL d   1     -41.241-122.541 -52.836  0.00  0.00     0.100 A 
ATOM      5  C   UNL d   1     -41.475-121.918 -52.323  0.00  0.00     0.025 A 
ATOM      6  C   UNL d   1     -41.130-123.299 -52.528  0.00  0.00     0.025 A 
ENDROOT
BRANCH   1   7
ATOM      7  C   UNL d   1     -41.595-122.986 -50.413  0.00  0.00     0.105 A 
ATOM      8  C   UNL d   1     -42.623-122.796 -49.542  0.00  0.00     0.048 A 
ATOM      9  C   UNL d   1     -42.182-123.110 -48.960  0.00  0.00     0.169 A 
ATOM     10  N   UNL d   1     -41.449-123.361 -49.103  0.00  0.00    -0.142 NA
ATOM     11  N   UNL d   1     -41.162-123.295 -49.834  0.00  0.00    -0.148 NA
BRANCH   9  12
ATOM     12  C   UNL d   1     -42.486-123.168 -48.230  0.00  0.00     0.231 C 
ATOM     13  O   UNL d   1     -42.332-122.607 -47.695  0.00  0.00    -0.643 OA
ATOM     14  O   UNL d   1     -42.960-123.814 -48.034  0.00  0.00    -0.643 OA
ENDBRANCH   9  12
ENDBRANCH   1   7
BRANCH   4  15
ATOM     15  O   UNL d   1     -41.124-122.385 -53.646  0.00  0.00    -0.305 OA
BRANCH  15  16
ATOM     16  C   UNL d   1     -41.553-122.814 -54.207  0.00  0.00     0.123 C 
ATOM     17  C   UNL d   1     -41.551-122.575 -55.003  0.00  0.00     0.029 C 
ENDBRANCH  15  16
ENDBRANCH   4  15
TORSDOF 4
ENDMDL
MODEL 4
REMARK VINA RESULT:      -4.9      1.565      4.589
REMARK  4 active torsions:
REMARK  status: ('A' for Active; 'I' for Inactive)
REMARK    1  A    between atoms: C_6  and  C_1 
REMARK    2  A    between atoms: C_7  and  C_5 
REMARK    3  A    between atoms: O_15  and  C_12 
REMARK    4  A    between atoms: C_16  and  O_15 
ROOT
ATOM      1  C   UNL d   1     -41.426-122.940 -51.869  0.00  0.00     0.020 A 
ATOM      2  C   UNL d   1     -41.341-123.562 -52.423  0.00  0.00     0.004 A 
ATOM      3  C   UNL d   1     -41.451-122.158 -52.131  0.00  0.00     0.004 A 
ATOM      4  C   UNL d   1     -41.309-122.591 -53.489  0.00  0.00     0.100 A 
ATOM      5  C   UNL d   1     -41.283-123.388 -53.227  0.00  0.00     0.025 A 
ATOM      6  C   UNL d   1     -41.393-121.985 -52.935  0.00  0.00     0.025 A 
ENDROOT
BRANCH   1   7
ATOM      7  C   UNL d   1     -41.485-123.112 -51.062  0.00  0.00     0.105 A 
ATOM      8  C   UNL d   1     -42.254-122.652 -50.037  0.00  0.00     0.048 A 
ATOM      9  C   UNL d   1     -41.885-123.152 -49.542  0.00  0.00     0.169 A 
ATOM     10  N   UNL d   1     -41.317-123.631 -49.805  0.00  0.00    -0.142 NA
ATOM     11  N   UNL d   1     -41.123-123.605 -50.569  0.00  0.00    -0.148 NA
BRANCH   9  12
ATOM     12  C   UNL d   1     -42.093-123.166 -48.777  0.00  0.00     0.231 C 
ATOM     13  O   UNL d   1     -41.539-123.266 -48.222  0.00  0.00    -0.643 OA
ATOM     14  O   UNL d   1     -42.885-123.076 -48.567  0.00  0.00    -0.643 OA
ENDBRANCH   9  12
ENDBRANCH   1   7
BRANCH   4  15
ATOM     15  O   UNL d   1     -41.249-122.424 -54.303  0.00  0.00    -0.305 OA
BRANCH  15  16
ATOM     16  C   UNL d   1     -41.933-122.240 -54.730  0.00  0.00     0.123 C 
ATOM     17  C   UNL d   1     -41.881-122.059 -55.539  0.00  0.00     0.029 C 
ENDBRANCH  15  16
ENDBRANCH   4  15
TORSDOF 4
ENDMDL
MODEL 5
REMARK VINA RESULT:      -4.1      0.819      1.058
REMARK  4 active torsions:
REMARK  status: ('A' for Active; 'I' for Inactive)
REMARK    1  A    between atoms: C_6  and  C_1 
REMARK    2  A    between atoms: C_7  and  C_5 
REMARK    3  A    between atoms: O_15  and  C_12 
REMARK    4  A    between atoms: C_16  and  O_15 
ROOT
ATOM      1  C   UNL d   1     -41.579-122.917 -51.420  0.00  0.00     0.020 A 
ATOM      2  C   UNL d   1     -41.675-122.219 -50.969  0.00  0.00     0.004 A 
ATOM      3  C   UNL d   1     -41.531-123.648 -51.038  0.00  0.00     0.004 A 
ATOM      4  C   UNL d   1     -41.669-123.010 -49.763  0.00  0.00     0.100 A 
ATOM      5  C   UNL d   1     -41.719-122.265 -50.147  0.00  0.00     0.025 A 
ATOM      6  C   UNL d   1     -41.575-123.694 -50.216  0.00  0.00     0.025 A 
ENDROOT
BRANCH   1   7
ATOM      7  C   UNL d   1     -41.535-122.874 -52.245  0.00  0.00     0.105 A 
ATOM      8  C   UNL d   1     -42.075-122.062 -53.193  0.00  0.00     0.048 A 
ATOM      9  C   UNL d   1     -41.699-122.477 -53.757  0.00  0.00     0.169 A 
ATOM     10  N   UNL d   1     -41.242-123.089 -53.566  0.00  0.00    -0.142 NA
ATOM     11  N   UNL d   1     -41.164-123.282 -52.805  0.00  0.00    -0.148 NA
BRANCH   9  12
ATOM     12  C   UNL d   1     -41.788-122.270 -54.517  0.00  0.00     0.231 C 
ATOM     13  O   UNL d   1     -41.903-121.512 -54.705  0.00  0.00    -0.643 OA
ATOM     14  O   UNL d   1     -41.759-122.848 -55.105  0.00  0.00    -0.643 OA
ENDBRANCH   9  12
ENDBRANCH   1   7
BRANCH   4  15
ATOM     15  O   UNL d   1     -41.715-123.048 -48.932  0.00  0.00    -0.305 OA
BRANCH  15  16
ATOM     16  C   UNL d   1     -41.131-123.457 -48.513  0.00  0.00     0.123 C 
ATOM     17  C   UNL d   1     -41.134-123.447 -47.682  0.00  0.00     0.029 C 
ENDBRANCH  15  16
ENDBRANCH   4  15
TORSDOF 4
ENDMDL
MODEL 6
REMARK VINA RESULT:      -3.9      1.148      4.480
REMARK  4 active torsions:
REMARK  status: ('A' for Active; 'I' for Inactive)
REMARK    1  A    between atoms: C_6  and  C_1 
REMARK    2  A    between atoms: C_7  and  C_5 
REMARK    3  A    between atoms: O_15  and  C_12 
REMARK    4  A    between atoms: C_16  and  O_15 
ROOT
ATOM      1  C   UNL d   1     -41.444-122.838 -52.860  0.00  0.00     0.020 A 
ATOM      2  C   UNL d   1     -41.803-122.108 -53.054  0.00  0.00     0.004 A 
ATOM      3  C   UNL d   1     -41.123-123.308 -53.458  0.00  0.00     0.004 A 
ATOM      4  C   UNL d   1     -41.505-122.343 -54.445  0.00  0.00     0.100 A 
ATOM      5  C   UNL d   1     -41.833-121.862 -53.840  0.00  0.00     0.025 A 
ATOM      6  C   UNL d   1     -41.153-123.062 -54.244  0.00  0.00     0.025 A 
ENDROOT
BRANCH   1   7
ATOM      7  C   UNL d   1     -41.413-123.087 -52.072  0.00  0.00     0.105 A 
ATOM      8  C   UNL d   1     -41.609-122.484 -50.867  0.00  0.00     0.048 A 
ATOM      9  C   UNL d   1     -41.452-123.173 -50.503  0.00  0.00     0.169 A 
ATOM     10  N   UNL d   1     -41.275-123.817 -50.920  0.00  0.00    -0.142 NA
ATOM     11  N   UNL d   1     -41.258-123.766 -51.707  0.00  0.00    -0.148 NA
BRANCH   9  12
ATOM     12  C   UNL d   1     -41.474-123.207 -49.711  0.00  0.00     0.231 C 
ATOM     13  O   UNL d   1     -41.832-123.815 -49.355  0.00  0.00    -0.643 OA
ATOM     14  O   UNL d   1     -41.123-122.609 -49.265  0.00  0.00    -0.643 OA
ENDBRANCH   9  12
ENDBRANCH   1   7
BRANCH   4  15
ATOM     15  O   UNL d   1     -41.539-122.088 -55.238  0.00  0.00    -0.305 OA
BRANCH  15  16
ATOM     16  C   UNL d   1     -42.275-121.995 -55.601  0.00  0.00     0.123 C 
ATOM     17  C   UNL d   1     -42.319-121.826 -56.414  0.00  0.00     0.029 C 
ENDBRANCH  15  16
ENDBRANCH   4  15
TORSDOF 4
ENDMDL
