MODEL 1
REMARK VINA RESULT:      -4.1      0.000      0.000
REMARK  2 active torsions:
REMARK  status: ('A' for Active; 'I' for Inactive)
REMARK    1  A    between atoms: CA_3  and  C_1 
REMARK    2  A    between atoms: C_2  and  CA_3 
ROOT
ATOM      1  C   UNL d   1      56.507   0.026  32.873  0.00  0.00     0.026 A 
ATOM      2  C   UNL d   1      56.640   0.027  32.057  0.00  0.00     0.009 A 
ATOM      3  C   UNL d   1      57.332   0.355  31.752  0.00  0.00     0.035 A 
ATOM      4 BR   UNL d   1      57.463   0.355  30.940  0.00  0.00    -0.049 Br
ATOM      5  C   UNL d   1      57.068   0.352  33.382  0.00  0.00     0.002 A 
ATOM      6  C   UNL d   1      57.763   0.681  33.075  0.00  0.00     0.001 A 
ATOM      7  C   UNL d   1      57.893   0.681  32.261  0.00  0.00     0.007 A 
ENDROOT
BRANCH   1   8
ATOM      8  CA  UNL d   1      55.813  -0.303  33.174  0.00  0.00     0.167 C 
ATOM      9  N   UNL d   1      55.612  -1.077  32.991  0.00  0.00    -0.142 N 
BRANCH   8  10
ATOM     10  C   UNL d   1      55.319   0.145  33.658  0.00  0.00     0.231 C 
ATOM     11  O   UNL d   1      54.752   0.650  33.321  0.00  0.00    -0.643 OA
ATOM     12  OXT UNL d   1      55.386   0.096  34.482  0.00  0.00    -0.643 OA
ENDBRANCH   8  10
ENDBRANCH   1   8
TORSDOF 2
ENDMDL
MODEL 2
REMARK VINA RESULT:      -3.8      2.400      2.970
REMARK  2 active torsions:
REMARK  status: ('A' for Active; 'I' for Inactive)
REMARK    1  A    between atoms: CA_3  and  C_1 
REMARK    2  A    between atoms: C_2  and  CA_3 
ROOT
ATOM      1  C   UNL d   1      56.909  -0.174  31.771  0.00  0.00     0.026 A 
ATOM      2  C   UNL d   1      56.857   0.351  32.408  0.00  0.00     0.009 A 
ATOM      3  C   UNL d   1      56.505   0.113  33.113  0.00  0.00     0.035 A 
ATOM      4 BR   UNL d   1      56.455   0.637  33.745  0.00  0.00    -0.049 Br
ATOM      5  C   UNL d   1      56.607  -0.939  31.844  0.00  0.00     0.002 A 
ATOM      6  C   UNL d   1      56.254  -1.177  32.553  0.00  0.00     0.001 A 
ATOM      7  C   UNL d   1      56.203  -0.652  33.186  0.00  0.00     0.007 A 
ENDROOT
BRANCH   1   8
ATOM      8  CA  UNL d   1      57.262   0.069  31.067  0.00  0.00     0.167 C 
ATOM      9  N   UNL d   1      56.933   0.682  30.632  0.00  0.00    -0.142 N 
BRANCH   8  10
ATOM     10  C   UNL d   1      57.947  -0.302  30.799  0.00  0.00     0.231 C 
ATOM     11  O   UNL d   1      57.894  -0.960  30.295  0.00  0.00    -0.643 OA
ATOM     12  OXT UNL d   1      58.692  -0.022  31.029  0.00  0.00    -0.643 OA
ENDBRANCH   8  10
ENDBRANCH   1   8
TORSDOF 2
ENDMDL
MODEL 3
REMARK VINA RESULT:      -3.5      9.475      9.750
REMARK  2 active torsions:
REMARK  status: ('A' for Active; 'I' for Inactive)
REMARK    1  A    between atoms: CA_3  and  C_1 
REMARK    2  A    between atoms: C_2  and  CA_3 
ROOT
ATOM      1  C   UNL d   1      60.335  -8.258  35.440  0.00  0.00     0.026 A 
ATOM      2  C   UNL d   1      60.781  -7.585  35.619  0.00  0.00     0.009 A 
ATOM      3  C   UNL d   1      60.448  -6.975  36.061  0.00  0.00     0.035 A 
ATOM      4 BR   UNL d   1      60.894  -6.306  36.238  0.00  0.00    -0.049 Br
ATOM      5  C   UNL d   1      59.556  -8.318  35.705  0.00  0.00     0.002 A 
ATOM      6  C   UNL d   1      59.223  -7.704  36.149  0.00  0.00     0.001 A 
ATOM      7  C   UNL d   1      59.669  -7.035  36.326  0.00  0.00     0.007 A 
ENDROOT
BRANCH   1   8
ATOM      8  CA  UNL d   1      60.673  -8.867  34.997  0.00  0.00     0.167 C 
ATOM      9  N   UNL d   1      61.116  -9.448  35.368  0.00  0.00    -0.142 N 
BRANCH   8  10
ATOM     10  C   UNL d   1      60.566  -8.892  34.180  0.00  0.00     0.231 C 
ATOM     11  O   UNL d   1      59.890  -9.254  33.860  0.00  0.00    -0.643 OA
ATOM     12  OXT UNL d   1      61.129  -8.556  33.675  0.00  0.00    -0.643 OA
ENDBRANCH   8  10
ENDBRANCH   1   8
TORSDOF 2
ENDMDL
MODEL 4
REMARK VINA RESULT:      -3.4      9.260      9.554
REMARK  2 active torsions:
REMARK  status: ('A' for Active; 'I' for Inactive)
REMARK    1  A    between atoms: CA_3  and  C_1 
REMARK    2  A    between atoms: C_2  and  CA_3 
ROOT
ATOM      1  C   UNL d   1      59.895  -8.207  35.770  0.00  0.00     0.026 A 
ATOM      2  C   UNL d   1      60.030  -8.437  34.987  0.00  0.00     0.009 A 
ATOM      3  C   UNL d   1      59.785  -9.179  34.728  0.00  0.00     0.035 A 
ATOM      4 BR   UNL d   1      59.919  -9.406  33.948  0.00  0.00    -0.049 Br
ATOM      5  C   UNL d   1      59.515  -8.722  36.291  0.00  0.00     0.002 A 
ATOM      6  C   UNL d   1      59.270  -9.467  36.029  0.00  0.00     0.001 A 
ATOM      7  C   UNL d   1      59.405  -9.694  35.248  0.00  0.00     0.007 A 
ENDROOT
BRANCH   1   8
ATOM      8  CA  UNL d   1      60.143  -7.462  36.026  0.00  0.00     0.167 C 
ATOM      9  N   UNL d   1      60.900  -7.361  36.323  0.00  0.00    -0.142 N 
BRANCH   8  10
ATOM     10  C   UNL d   1      59.629  -6.819  35.984  0.00  0.00     0.231 C 
ATOM     11  O   UNL d   1      59.864  -6.122  35.598  0.00  0.00    -0.643 OA
ATOM     12  OXT UNL d   1      58.876  -6.864  36.326  0.00  0.00    -0.643 OA
ENDBRANCH   8  10
ENDBRANCH   1   8
TORSDOF 2
ENDMDL
MODEL 5
REMARK VINA RESULT:      -3.0     10.020     10.274
REMARK  2 active torsions:
REMARK  status: ('A' for Active; 'I' for Inactive)
REMARK    1  A    between atoms: CA_3  and  C_1 
REMARK    2  A    between atoms: C_2  and  CA_3 
ROOT
ATOM      1  C   UNL d   1      59.632  -9.162  34.359  0.00  0.00     0.026 A 
ATOM      2  C   UNL d   1      60.355  -9.139  33.958  0.00  0.00     0.009 A 
ATOM      3  C   UNL d   1      60.407  -9.414  33.184  0.00  0.00     0.035 A 
ATOM      4 BR   UNL d   1      61.128  -9.389  32.787  0.00  0.00    -0.049 Br
ATOM      5  C   UNL d   1      58.963  -9.462  33.981  0.00  0.00     0.002 A 
ATOM      6  C   UNL d   1      59.016  -9.738  33.203  0.00  0.00     0.001 A 
ATOM      7  C   UNL d   1      59.738  -9.714  32.806  0.00  0.00     0.007 A 
ENDROOT
BRANCH   1   8
ATOM      8  CA  UNL d   1      59.585  -8.885  35.135  0.00  0.00     0.167 C 
ATOM      9  N   UNL d   1      59.586  -8.079  35.284  0.00  0.00    -0.142 N 
BRANCH   8  10
ATOM     10  C   UNL d   1      59.536  -9.418  35.761  0.00  0.00     0.231 C 
ATOM     11  O   UNL d   1      58.794  -9.660  36.045  0.00  0.00    -0.643 OA
ATOM     12  OXT UNL d   1      60.225  -9.716  36.111  0.00  0.00    -0.643 OA
ENDBRANCH   8  10
ENDBRANCH   1   8
TORSDOF 2
ENDMDL
MODEL 6
REMARK VINA RESULT:      -2.5      4.291      4.964
REMARK  2 active torsions:
REMARK  status: ('A' for Active; 'I' for Inactive)
REMARK    1  A    between atoms: CA_3  and  C_1 
REMARK    2  A    between atoms: C_2  and  CA_3 
ROOT
ATOM      1  C   UNL d   1      59.185  -1.121  29.066  0.00  0.00     0.026 A 
ATOM      2  C   UNL d   1      58.849  -1.867  28.946  0.00  0.00     0.009 A 
ATOM      3  C   UNL d   1      59.331  -2.531  28.881  0.00  0.00     0.035 A 
ATOM      4 BR   UNL d   1      58.995  -3.272  28.761  0.00  0.00    -0.049 Br
ATOM      5  C   UNL d   1      60.004  -1.043  29.121  0.00  0.00     0.002 A 
ATOM      6  C   UNL d   1      60.488  -1.711  29.056  0.00  0.00     0.001 A 
ATOM      7  C   UNL d   1      60.151  -2.453  28.936  0.00  0.00     0.007 A 
ENDROOT
BRANCH   1   8
ATOM      8  CA  UNL d   1      58.698  -0.458  29.130  0.00  0.00     0.167 C 
ATOM      9  N   UNL d   1      58.446  -0.066  28.455  0.00  0.00    -0.142 N 
BRANCH   8  10
ATOM     10  C   UNL d   1      58.464  -0.188  29.873  0.00  0.00     0.231 C 
ATOM     11  O   UNL d   1      58.953   0.328  30.302  0.00  0.00    -0.643 OA
ATOM     12  OXT UNL d   1      57.740  -0.430  30.196  0.00  0.00    -0.643 OA
ENDBRANCH   8  10
ENDBRANCH   1   8
TORSDOF 2
ENDMDL
MODEL 7
REMARK VINA RESULT:      -2.3      2.937      3.646
REMARK  2 active torsions:
REMARK  status: ('A' for Active; 'I' for Inactive)
REMARK    1  A    between atoms: CA_3  and  C_1 
REMARK    2  A    between atoms: C_2  and  CA_3 
ROOT
ATOM      1  C   UNL d   1      58.406   0.056  30.005  0.00  0.00     0.026 A 
ATOM      2  C   UNL d   1      58.564  -0.745  29.876  0.00  0.00     0.009 A 
ATOM      3  C   UNL d   1      58.802  -1.004  29.132  0.00  0.00     0.035 A 
ATOM      4 BR   UNL d   1      58.959  -1.802  29.005  0.00  0.00    -0.049 Br
ATOM      5  C   UNL d   1      58.488   0.596  29.387  0.00  0.00     0.002 A 
ATOM      6  C   UNL d   1      58.728   0.335  28.639  0.00  0.00     0.001 A 
ATOM      7  C   UNL d   1      58.884  -0.464  28.513  0.00  0.00     0.007 A 
ENDROOT
BRANCH   1   8
ATOM      8  CA  UNL d   1      58.168   0.311  30.753  0.00  0.00     0.167 C 
ATOM      9  N   UNL d   1      58.703   0.682  31.250  0.00  0.00    -0.142 N 
BRANCH   8  10
ATOM     10  C   UNL d   1      57.390   0.194  31.001  0.00  0.00     0.231 C 
ATOM     11  O   UNL d   1      56.783   0.680  30.710  0.00  0.00    -0.643 OA
ATOM     12  OXT UNL d   1      57.211  -0.409  31.540  0.00  0.00    -0.643 OA
ENDBRANCH   8  10
ENDBRANCH   1   8
TORSDOF 2
ENDMDL
MODEL 8
REMARK VINA RESULT:      -2.2      3.573      4.248
REMARK  2 active torsions:
REMARK  status: ('A' for Active; 'I' for Inactive)
REMARK    1  A    between atoms: CA_3  and  C_1 
REMARK    2  A    between atoms: C_2  and  CA_3 
ROOT
ATOM      1  C   UNL d   1      58.594  -0.145  29.950  0.00  0.00     0.026 A 
ATOM      2  C   UNL d   1      57.879  -0.165  30.366  0.00  0.00     0.009 A 
ATOM      3  C   UNL d   1      57.807   0.237  31.081  0.00  0.00     0.035 A 
ATOM      4 BR   UNL d   1      57.095   0.216  31.493  0.00  0.00    -0.049 Br
ATOM      5  C   UNL d   1      59.234   0.278  30.252  0.00  0.00     0.002 A 
ATOM      6  C   UNL d   1      59.160   0.682  30.971  0.00  0.00     0.001 A 
ATOM      7  C   UNL d   1      58.447   0.661  31.383  0.00  0.00     0.007 A 
ENDROOT
BRANCH   1   8
ATOM      8  CA  UNL d   1      58.662  -0.549  29.234  0.00  0.00     0.167 C 
ATOM      9  N   UNL d   1      58.384  -0.209  28.542  0.00  0.00    -0.142 N 
BRANCH   8  10
ATOM     10  C   UNL d   1      59.009  -1.296  29.213  0.00  0.00     0.231 C 
ATOM     11  O   UNL d   1      59.828  -1.372  29.090  0.00  0.00    -0.643 OA
ATOM     12  OXT UNL d   1      58.546  -1.975  29.314  0.00  0.00    -0.643 OA
ENDBRANCH   8  10
ENDBRANCH   1   8
TORSDOF 2
ENDMDL
MODEL 9
REMARK VINA RESULT:      -2.0      1.669      2.231
REMARK  2 active torsions:
REMARK  status: ('A' for Active; 'I' for Inactive)
REMARK    1  A    between atoms: CA_3  and  C_1 
REMARK    2  A    between atoms: C_2  and  CA_3 
ROOT
ATOM      1  C   UNL d   1      57.596   0.384  31.579  0.00  0.00     0.026 A 
ATOM      2  C   UNL d   1      58.418   0.464  31.595  0.00  0.00     0.009 A 
ATOM      3  C   UNL d   1      58.833   0.602  30.897  0.00  0.00     0.035 A 
ATOM      4 BR   UNL d   1      59.652   0.682  30.915  0.00  0.00    -0.049 Br
ATOM      5  C   UNL d   1      57.191   0.441  30.863  0.00  0.00     0.002 A 
ATOM      6  C   UNL d   1      57.608   0.579  30.162  0.00  0.00     0.001 A 
ATOM      7  C   UNL d   1      58.428   0.659  30.181  0.00  0.00     0.007 A 
ENDROOT
BRANCH   1   8
ATOM      8  CA  UNL d   1      57.184   0.246  32.281  0.00  0.00     0.167 C 
ATOM      9  N   UNL d   1      57.362   0.680  32.953  0.00  0.00    -0.142 N 
BRANCH   8  10
ATOM     10  C   UNL d   1      56.593  -0.328  32.307  0.00  0.00     0.231 C 
ATOM     11  O   UNL d   1      56.783  -1.127  32.185  0.00  0.00    -0.643 OA
ATOM     12  OXT UNL d   1      55.808  -0.112  32.456  0.00  0.00    -0.643 OA
ENDBRANCH   8  10
ENDBRANCH   1   8
TORSDOF 2
ENDMDL
