MODEL 1
REMARK VINA RESULT:      -2.0      0.000      0.000
REMARK  4 active torsions:
REMARK  status: ('A' for Active; 'I' for Inactive)
REMARK    1  A    between atoms: C_5  and  N_1 
REMARK    2  A    between atoms: C_7  and  C_5 
REMARK    3  A    between atoms: O_10  and  C_8 
REMARK    4  A    between atoms: C_14  and  O_10 
ROOT
ATOM      1  C   UNL d   1     -42.252-122.723 -51.264  0.00  0.00     0.086 C 
ENDROOT
BRANCH   1   2
ATOM      2  N   UNL d   1     -42.534-122.741 -50.491  0.00  0.00    -0.268 N 
ATOM      3  C   UNL d   1     -43.244-122.403 -50.221  0.00  0.00     0.296 A 
ATOM      4  S   UNL d   1     -43.302-122.555 -49.412  0.00  0.00    -0.025 SA
ATOM      5  O   UNL d   1     -43.791-121.990 -50.679  0.00  0.00    -0.259 OA
ATOM      6  C   UNL d   1     -42.638-122.982 -49.180  0.00  0.00     0.050 A 
ATOM      7  C   UNL d   1     -42.159-123.099 -49.847  0.00  0.00     0.073 A 
ATOM      8  C   UNL d   1     -42.393-123.288 -48.444  0.00  0.00     0.008 A 
ATOM      9  C   UNL d   1     -41.453-123.511 -49.784  0.00  0.00     0.018 A 
ATOM     10  C   UNL d   1     -41.215-123.812 -49.054  0.00  0.00     0.002 A 
ATOM     11  C   UNL d   1     -41.681-123.702 -48.389  0.00  0.00     0.001 A 
ENDBRANCH   1   2
BRANCH   1  12
ATOM     12  C   UNL d   1     -41.874-122.043 -51.545  0.00  0.00     0.040 A 
ATOM     13  C   UNL d   1     -41.781-121.946 -52.355  0.00  0.00     0.101 A 
ATOM     14  C   UNL d   1     -41.408-121.274 -52.635  0.00  0.00     0.025 A 
ATOM     15  C   UNL d   1     -41.125-120.695 -52.108  0.00  0.00     0.002 A 
ATOM     16  C   UNL d   1     -41.224-120.805 -51.297  0.00  0.00     0.000 A 
ATOM     17  C   UNL d   1     -41.602-121.485 -51.015  0.00  0.00     0.004 A 
BRANCH  13  18
ATOM     18  O   UNL d   1     -42.071-122.534 -52.851  0.00  0.00    -0.307 OA
BRANCH  18  19
ATOM     19  C   UNL d   1     -41.861-122.541 -53.652  0.00  0.00     0.100 C 
ATOM     20  C   UNL d   1     -41.279-123.067 -53.918  0.00  0.00     0.027 C 
ATOM     21  C   UNL d   1     -42.225-122.031 -54.180  0.00  0.00     0.027 C 
ENDBRANCH  18  19
ENDBRANCH  13  18
ENDBRANCH   1  12
TORSDOF 4
ENDMDL
MODEL 2
REMARK VINA RESULT:      -1.5      1.260      2.151
REMARK  4 active torsions:
REMARK  status: ('A' for Active; 'I' for Inactive)
REMARK    1  A    between atoms: C_5  and  N_1 
REMARK    2  A    between atoms: C_7  and  C_5 
REMARK    3  A    between atoms: O_10  and  C_8 
REMARK    4  A    between atoms: C_14  and  O_10 
ROOT
ATOM      1  C   UNL d   1     -42.300-122.173 -52.459  0.00  0.00     0.086 C 
ENDROOT
BRANCH   1   2
ATOM      2  N   UNL d   1     -41.986-122.083 -51.704  0.00  0.00    -0.268 N 
ATOM      3  C   UNL d   1     -41.444-121.500 -51.466  0.00  0.00     0.296 A 
ATOM      4  S   UNL d   1     -41.283-121.620 -50.665  0.00  0.00    -0.025 SA
ATOM      5  O   UNL d   1     -41.126-120.908 -51.942  0.00  0.00    -0.259 OA
ATOM      6  C   UNL d   1     -41.718-122.269 -50.407  0.00  0.00     0.050 A 
ATOM      7  C   UNL d   1     -42.155-122.559 -51.049  0.00  0.00     0.073 A 
ATOM      8  C   UNL d   1     -41.781-122.647 -49.667  0.00  0.00     0.008 A 
ATOM      9  C   UNL d   1     -42.645-123.210 -50.958  0.00  0.00     0.018 A 
ATOM     10  C   UNL d   1     -42.704-123.581 -50.223  0.00  0.00     0.002 A 
ATOM     11  C   UNL d   1     -42.276-123.301 -49.583  0.00  0.00     0.001 A 
ENDBRANCH   1   2
BRANCH   1  12
ATOM     12  C   UNL d   1     -41.924-122.674 -53.001  0.00  0.00     0.040 A 
ATOM     13  C   UNL d   1     -41.987-122.511 -53.802  0.00  0.00     0.101 A 
ATOM     14  C   UNL d   1     -41.617-123.004 -54.339  0.00  0.00     0.025 A 
ATOM     15  C   UNL d   1     -41.181-123.664 -54.079  0.00  0.00     0.002 A 
ATOM     16  C   UNL d   1     -41.126-123.817 -53.270  0.00  0.00     0.000 A 
ATOM     17  C   UNL d   1     -41.501-123.317 -52.729  0.00  0.00     0.004 A 
BRANCH  13  18
ATOM     18  O   UNL d   1     -42.424-121.852 -54.031  0.00  0.00    -0.307 OA
BRANCH  18  19
ATOM     19  C   UNL d   1     -42.505-121.667 -54.833  0.00  0.00     0.100 C 
ATOM     20  C   UNL d   1     -43.174-121.926 -55.248  0.00  0.00     0.027 C 
ATOM     21  C   UNL d   1     -41.928-121.229 -55.218  0.00  0.00     0.027 C 
ENDBRANCH  18  19
ENDBRANCH  13  18
ENDBRANCH   1  12
TORSDOF 4
ENDMDL
