MODEL 1
REMARK VINA RESULT:      19.1      0.000      0.000
REMARK  3 active torsions:
REMARK  status: ('A' for Active; 'I' for Inactive)
REMARK    1  A    between atoms: N_2  and  S_1 
REMARK    2  A    between atoms: C_8  and  S_1 
REMARK    3  A    between atoms: C_3  and  N_2 
ROOT
ATOM      1  C   UNL d   1      13.354  12.486  -3.509  0.00  0.00     0.094 A 
ATOM      2  C   UNL d   1      13.190  12.475  -4.332  0.00  0.00     0.021 A 
ATOM      3  C   UNL d   1      13.094  13.182  -4.665  0.00  0.00     0.040 A 
ATOM      4  C   UNL d   1      13.136  13.902  -4.304  0.00  0.00     0.196 A 
ATOM      5  C   UNL d   1      13.409  13.178  -3.088  0.00  0.00     0.023 A 
ATOM      6  C   UNL d   1      13.301  13.913  -3.478  0.00  0.00     0.044 A 
ATOM      7  O   UNL d   1      13.021  14.661  -4.724  0.00  0.00    -0.287 OA
ATOM      8  C   UNL d   1      13.143  11.799  -4.711  0.00  0.00     0.002 A 
ATOM      9  C   UNL d   1      12.929  13.244  -5.482  0.00  0.00     0.003 A 
ATOM     10  C   UNL d   1      12.872  12.522  -5.919  0.00  0.00     0.000 A 
ATOM     11  C   UNL d   1      12.982  11.788  -5.519  0.00  0.00     0.000 A 
ENDROOT
BRANCH   1  12
ATOM     12  N   UNL d   1      13.455  11.814  -3.139  0.00  0.00    -0.158 NA
BRANCH  12  13
ATOM     13  S   UNL d   1      13.697  11.814  -2.337  0.00  0.00     0.285 S 
ATOM     14  O   UNL d   1      14.514  11.851  -2.597  0.00  0.00    -0.198 OA
ATOM     15  O   UNL d   1      12.937  11.779  -2.132  0.00  0.00    -0.198 OA
BRANCH  13  16
ATOM     16  C   UNL d   1      13.949  11.814  -1.532  0.00  0.00     0.105 A 
ATOM     17  C   UNL d   1      14.768  11.783  -1.371  0.00  0.00     0.013 A 
ATOM     18  C   UNL d   1      15.032  11.782  -0.616  0.00  0.00     0.001 A 
ATOM     19  C   UNL d   1      14.519  11.811  -0.016  0.00  0.00     0.000 A 
ATOM     20  C   UNL d   1      13.690  11.842  -0.173  0.00  0.00     0.001 A 
ATOM     21  C   UNL d   1      13.432  11.843  -0.957  0.00  0.00     0.013 A 
ENDBRANCH  13  16
ENDBRANCH  12  13
ENDBRANCH   1  12
TORSDOF 3
ENDMDL
