MODEL 1
REMARK VINA RESULT:      -5.0      0.000      0.000
REMARK  5 active torsions:
REMARK  status: ('A' for Active; 'I' for Inactive)
REMARK    1  A    between atoms: C_6  and  C_1 
REMARK    2  A    between atoms: C_7  and  C_6 
REMARK    3  A    between atoms: C_9  and  C_19 
REMARK       I    between atoms: N_17  and  C_9 
REMARK    4  A    between atoms: O_20  and  C_18 
REMARK    5  A    between atoms: C_19  and  O_20 
ROOT
ATOM      1  C   UNL d   1      58.398  -0.817  29.586  0.00  0.00     0.141 A 
ATOM      2  C   UNL d   1      57.964   0.035  30.515  0.00  0.00     0.064 A 
ATOM      3  C   UNL d   1      58.427  -0.031  29.832  0.00  0.00     0.220 A 
ATOM      4  C   UNL d   1      57.651  -0.714  30.686  0.00  0.00     0.105 A 
ATOM      5  O   UNL d   1      57.922  -1.242  30.108  0.00  0.00    -0.304 OA
ATOM      6  C   UNL d   1      57.164  -0.810  31.344  0.00  0.00     0.050 A 
ATOM      7  C   UNL d   1      57.786   0.681  31.005  0.00  0.00     0.007 A 
ATOM      8  O   UNL d   1      58.841   0.580  29.467  0.00  0.00    -0.284 OA
ATOM      9  C   UNL d   1      56.988  -0.166  31.830  0.00  0.00     0.102 A 
ATOM     10  C   UNL d   1      57.297   0.574  31.661  0.00  0.00     0.025 A 
ENDROOT
BRANCH   1  11
ATOM     11  C   UNL d   1      58.785  -1.129  28.922  0.00  0.00     0.053 C 
BRANCH  11  12
ATOM     12  C   UNL d   1      59.091  -1.900  28.944  0.00  0.00     0.102 A 
ATOM     13  O   UNL d   1      59.837  -2.112  29.222  0.00  0.00    -0.307 OA
ATOM     14  C   UNL d   1      59.908  -2.926  29.142  0.00  0.00     0.100 A 
ATOM     15  C   UNL d   1      60.568  -3.381  29.352  0.00  0.00     0.027 C 
ATOM     16  C   UNL d   1      59.210  -3.222  28.815  0.00  0.00     0.027 A 
ATOM     17  C   UNL d   1      58.701  -2.574  28.693  0.00  0.00     0.027 A 
ENDBRANCH  11  12
ENDBRANCH   1  11
BRANCH   9  18
ATOM     18  O   UNL d   1      56.497  -0.271  32.490  0.00  0.00    -0.300 OA
BRANCH  18  19
ATOM     19  C   UNL d   1      56.087   0.362  32.800  0.00  0.00     0.187 C 
BRANCH  19  20
ATOM     20  C   UNL d   1      55.562   0.247  33.426  0.00  0.00     0.323 C 
ATOM     21  O   UNL d   1      54.935  -0.276  33.347  0.00  0.00    -0.261 OA
ATOM     22  N   UNL d   1      55.670   0.661  34.136  0.00  0.00    -0.083 NA
ATOM     23  N   UNL d   1      55.143   0.547  34.767  0.00  0.00    -0.019 N 
ENDBRANCH  19  20
ENDBRANCH  18  19
ENDBRANCH   9  18
TORSDOF 5
ENDMDL
MODEL 2
REMARK VINA RESULT:      -3.0      2.799      5.046
REMARK  5 active torsions:
REMARK  status: ('A' for Active; 'I' for Inactive)
REMARK    1  A    between atoms: C_6  and  C_1 
REMARK    2  A    between atoms: C_7  and  C_6 
REMARK    3  A    between atoms: C_9  and  C_19 
REMARK       I    between atoms: N_17  and  C_9 
REMARK    4  A    between atoms: O_20  and  C_18 
REMARK    5  A    between atoms: C_19  and  O_20 
ROOT
ATOM      1  C   UNL d   1      57.580   0.085  30.804  0.00  0.00     0.141 A 
ATOM      2  C   UNL d   1      58.160  -0.274  29.659  0.00  0.00     0.064 A 
ATOM      3  C   UNL d   1      57.562   0.195  29.988  0.00  0.00     0.220 A 
ATOM      4  C   UNL d   1      58.544  -0.671  30.278  0.00  0.00     0.105 A 
ATOM      5  O   UNL d   1      58.182  -0.447  30.989  0.00  0.00    -0.304 OA
ATOM      6  C   UNL d   1      59.169  -1.181  30.107  0.00  0.00     0.050 A 
ATOM      7  C   UNL d   1      58.406  -0.392  28.875  0.00  0.00     0.007 A 
ATOM      8  O   UNL d   1      57.045   0.682  29.571  0.00  0.00    -0.284 OA
ATOM      9  C   UNL d   1      59.411  -1.297  29.327  0.00  0.00     0.102 A 
ATOM     10  C   UNL d   1      59.032  -0.905  28.715  0.00  0.00     0.025 A 
ENDROOT
BRANCH   1  11
ATOM     11  C   UNL d   1      57.075   0.451  31.351  0.00  0.00     0.053 C 
BRANCH  11  12
ATOM     12  C   UNL d   1      56.803   0.029  32.011  0.00  0.00     0.102 A 
ATOM     13  O   UNL d   1      56.330  -0.646  31.987  0.00  0.00    -0.307 OA
ATOM     14  C   UNL d   1      56.194  -0.879  32.763  0.00  0.00     0.100 A 
ATOM     15  C   UNL d   1      55.744  -1.534  33.003  0.00  0.00     0.027 C 
ATOM     16  C   UNL d   1      56.579  -0.354  33.269  0.00  0.00     0.027 A 
ATOM     17  C   UNL d   1      56.959   0.213  32.793  0.00  0.00     0.027 A 
ENDBRANCH  11  12
ENDBRANCH   1  11
BRANCH   9  18
ATOM     18  O   UNL d   1      60.040  -1.812  29.163  0.00  0.00    -0.300 OA
BRANCH  18  19
ATOM     19  C   UNL d   1      59.895  -2.549  28.847  0.00  0.00     0.187 C 
BRANCH  19  20
ATOM     20  C   UNL d   1      60.435  -3.162  28.964  0.00  0.00     0.323 C 
ATOM     21  O   UNL d   1      60.975  -3.124  29.580  0.00  0.00    -0.261 OA
ATOM     22  N   UNL d   1      60.430  -3.818  28.456  0.00  0.00    -0.083 NA
ATOM     23  N   UNL d   1      60.972  -4.436  28.572  0.00  0.00    -0.019 N 
ENDBRANCH  19  20
ENDBRANCH  18  19
ENDBRANCH   9  18
TORSDOF 5
ENDMDL
MODEL 3
REMARK VINA RESULT:      -2.8      8.874      9.946
REMARK  5 active torsions:
REMARK  status: ('A' for Active; 'I' for Inactive)
REMARK    1  A    between atoms: C_6  and  C_1 
REMARK    2  A    between atoms: C_7  and  C_6 
REMARK    3  A    between atoms: C_9  and  C_19 
REMARK       I    between atoms: N_17  and  C_9 
REMARK    4  A    between atoms: O_20  and  C_18 
REMARK    5  A    between atoms: C_19  and  O_20 
ROOT
ATOM      1  C   UNL d   1      59.713  -9.403  34.462  0.00  0.00     0.141 A 
ATOM      2  C   UNL d   1      59.914  -9.579  33.156  0.00  0.00     0.064 A 
ATOM      3  C   UNL d   1      60.295  -9.485  33.885  0.00  0.00     0.220 A 
ATOM      4  C   UNL d   1      59.096  -9.554  33.289  0.00  0.00     0.105 A 
ATOM      5  O   UNL d   1      58.972  -9.445  34.101  0.00  0.00    -0.304 OA
ATOM      6  C   UNL d   1      58.578  -9.634  32.652  0.00  0.00     0.050 A 
ATOM      7  C   UNL d   1      60.206  -9.684  32.386  0.00  0.00     0.007 A 
ATOM      8  O   UNL d   1      61.109  -9.476  34.008  0.00  0.00    -0.284 OA
ATOM      9  C   UNL d   1      58.871  -9.738  31.888  0.00  0.00     0.102 A 
ATOM     10  C   UNL d   1      59.680  -9.763  31.756  0.00  0.00     0.025 A 
ENDROOT
BRANCH   1  11
ATOM     11  C   UNL d   1      59.849  -9.297  35.273  0.00  0.00     0.053 C 
BRANCH  11  12
ATOM     12  C   UNL d   1      59.775  -8.543  35.611  0.00  0.00     0.102 A 
ATOM     13  O   UNL d   1      60.373  -7.977  35.656  0.00  0.00    -0.307 OA
ATOM     14  C   UNL d   1      60.059  -7.317  36.031  0.00  0.00     0.100 A 
ATOM     15  C   UNL d   1      60.464  -6.612  36.196  0.00  0.00     0.027 C 
ATOM     16  C   UNL d   1      59.270  -7.468  36.219  0.00  0.00     0.027 A 
ATOM     17  C   UNL d   1      59.097  -8.238  35.954  0.00  0.00     0.027 A 
ENDBRANCH  11  12
ENDBRANCH   1  11
BRANCH   9  18
ATOM     18  O   UNL d   1      58.344  -9.818  31.253  0.00  0.00    -0.300 OA
BRANCH  18  19
ATOM     19  C   UNL d   1      58.587  -9.644  30.494  0.00  0.00     0.187 C 
BRANCH  19  20
ATOM     20  C   UNL d   1      58.033  -9.595  29.884  0.00  0.00     0.323 C 
ATOM     21  O   UNL d   1      57.244  -9.767  30.029  0.00  0.00    -0.261 OA
ATOM     22  N   UNL d   1      58.276  -9.371  29.124  0.00  0.00    -0.083 NA
ATOM     23  N   UNL d   1      57.722  -9.321  28.508  0.00  0.00    -0.019 N 
ENDBRANCH  19  20
ENDBRANCH  18  19
ENDBRANCH   9  18
TORSDOF 5
ENDMDL
MODEL 4
REMARK VINA RESULT:      -2.4      2.720      5.443
REMARK  5 active torsions:
REMARK  status: ('A' for Active; 'I' for Inactive)
REMARK    1  A    between atoms: C_6  and  C_1 
REMARK    2  A    between atoms: C_7  and  C_6 
REMARK    3  A    between atoms: C_9  and  C_19 
REMARK       I    between atoms: N_17  and  C_9 
REMARK    4  A    between atoms: O_20  and  C_18 
REMARK    5  A    between atoms: C_19  and  O_20 
ROOT
ATOM      1  C   UNL d   1      56.032  -0.094  32.569  0.00  0.00     0.141 A 
ATOM      2  C   UNL d   1      56.851  -0.685  31.698  0.00  0.00     0.064 A 
ATOM      3  C   UNL d   1      56.274  -0.825  32.275  0.00  0.00     0.220 A 
ATOM      4  C   UNL d   1      56.962   0.136  31.641  0.00  0.00     0.105 A 
ATOM      5  O   UNL d   1      56.452   0.501  32.183  0.00  0.00    -0.304 OA
ATOM      6  C   UNL d   1      57.511   0.434  31.104  0.00  0.00     0.050 A 
ATOM      7  C   UNL d   1      57.291  -1.197  31.217  0.00  0.00     0.007 A 
ATOM      8  O   UNL d   1      55.994  -1.563  32.510  0.00  0.00    -0.284 OA
ATOM      9  C   UNL d   1      57.947  -0.078  30.626  0.00  0.00     0.102 A 
ATOM     10  C   UNL d   1      57.838  -0.888  30.682  0.00  0.00     0.025 A 
ENDROOT
BRANCH   1  11
ATOM     11  C   UNL d   1      55.460   0.024  33.159  0.00  0.00     0.053 C 
BRANCH  11  12
ATOM     12  C   UNL d   1      55.690   0.261  33.919  0.00  0.00     0.102 A 
ATOM     13  O   UNL d   1      55.197   0.301  34.579  0.00  0.00    -0.307 OA
ATOM     14  C   UNL d   1      55.652   0.560  35.211  0.00  0.00     0.100 A 
ATOM     15  C   UNL d   1      55.384   0.682  35.987  0.00  0.00     0.027 C 
ATOM     16  C   UNL d   1      56.425   0.682  34.950  0.00  0.00     0.027 A 
ATOM     17  C   UNL d   1      56.443   0.492  34.139  0.00  0.00     0.027 A 
ENDBRANCH  11  12
ENDBRANCH   1  11
BRANCH   9  18
ATOM     18  O   UNL d   1      58.498   0.231  30.088  0.00  0.00    -0.300 OA
BRANCH  18  19
ATOM     19  C   UNL d   1      59.279  -0.002  30.121  0.00  0.00     0.187 C 
BRANCH  19  20
ATOM     20  C   UNL d   1      59.775   0.126  29.475  0.00  0.00     0.323 C 
ATOM     21  O   UNL d   1      59.574   0.678  28.902  0.00  0.00    -0.261 OA
ATOM     22  N   UNL d   1      60.480  -0.306  29.405  0.00  0.00    -0.083 NA
ATOM     23  N   UNL d   1      60.982  -0.179  28.756  0.00  0.00    -0.019 N 
ENDBRANCH  19  20
ENDBRANCH  18  19
ENDBRANCH   9  18
TORSDOF 5
ENDMDL
MODEL 5
REMARK VINA RESULT:      -2.1      3.110      5.254
REMARK  5 active torsions:
REMARK  status: ('A' for Active; 'I' for Inactive)
REMARK    1  A    between atoms: C_6  and  C_1 
REMARK    2  A    between atoms: C_7  and  C_6 
REMARK    3  A    between atoms: C_9  and  C_19 
REMARK       I    between atoms: N_17  and  C_9 
REMARK    4  A    between atoms: O_20  and  C_18 
REMARK    5  A    between atoms: C_19  and  O_20 
ROOT
ATOM      1  C   UNL d   1      58.703  -0.274  29.912  0.00  0.00     0.141 A 
ATOM      2  C   UNL d   1      59.820  -0.828  29.441  0.00  0.00     0.064 A 
ATOM      3  C   UNL d   1      59.505  -0.142  29.780  0.00  0.00     0.220 A 
ATOM      4  C   UNL d   1      59.206  -1.381  29.365  0.00  0.00     0.105 A 
ATOM      5  O   UNL d   1      58.512  -1.035  29.659  0.00  0.00    -0.304 OA
ATOM      6  C   UNL d   1      59.365  -2.121  29.040  0.00  0.00     0.050 A 
ATOM      7  C   UNL d   1      60.586  -1.022  29.190  0.00  0.00     0.007 A 
ATOM      8  O   UNL d   1      59.922   0.547  29.954  0.00  0.00    -0.284 OA
ATOM      9  C   UNL d   1      60.128  -2.313  28.791  0.00  0.00     0.102 A 
ATOM     10  C   UNL d   1      60.735  -1.766  28.865  0.00  0.00     0.025 A 
ENDROOT
BRANCH   1  11
ATOM     11  C   UNL d   1      58.173   0.270  30.246  0.00  0.00     0.053 C 
BRANCH  11  12
ATOM     12  C   UNL d   1      57.723   0.058  30.909  0.00  0.00     0.102 A 
ATOM     13  O   UNL d   1      57.335  -0.662  31.015  0.00  0.00    -0.307 OA
ATOM     14  C   UNL d   1      56.960  -0.634  31.746  0.00  0.00     0.100 A 
ATOM     15  C   UNL d   1      56.503  -1.239  32.082  0.00  0.00     0.027 C 
ATOM     16  C   UNL d   1      57.112   0.098  32.095  0.00  0.00     0.027 A 
ATOM     17  C   UNL d   1      57.591   0.528  31.566  0.00  0.00     0.027 A 
ENDBRANCH  11  12
ENDBRANCH   1  11
BRANCH   9  18
ATOM     18  O   UNL d   1      60.280  -3.060  28.465  0.00  0.00    -0.300 OA
BRANCH  18  19
ATOM     19  C   UNL d   1      60.611  -3.648  28.922  0.00  0.00     0.187 C 
BRANCH  19  20
ATOM     20  C   UNL d   1      60.481  -4.440  28.734  0.00  0.00     0.323 C 
ATOM     21  O   UNL d   1      59.729  -4.699  28.533  0.00  0.00    -0.261 OA
ATOM     22  N   UNL d   1      61.114  -4.976  28.748  0.00  0.00    -0.083 NA
ATOM     23  N   UNL d   1      60.986  -5.774  28.559  0.00  0.00    -0.019 N 
ENDBRANCH  19  20
ENDBRANCH  18  19
ENDBRANCH   9  18
TORSDOF 5
ENDMDL
