MODEL 1
REMARK VINA RESULT:      -3.0      0.000      0.000
REMARK  4 active torsions:
REMARK  status: ('A' for Active; 'I' for Inactive)
REMARK    1  A    between atoms: C_6  and  C_2 
REMARK    2  A    between atoms: C_8  and  N_3 
REMARK       I    between atoms: N_7  and  C_6 
REMARK    3  A    between atoms: C_16  and  N_7 
REMARK    4  A    between atoms: C_9  and  C_16 
ROOT
ATOM      1  C   UNL d   1      32.328  18.204 -23.597  0.00  0.00     0.211 A 
ATOM      2  C   UNL d   1      32.868  18.585 -23.095  0.00  0.00     0.199 A 
ATOM      3  N   UNL d   1      32.372  17.394 -23.463  0.00  0.00    -0.191 N 
ATOM      4  N   UNL d   1      32.941  17.276 -22.876  0.00  0.00    -0.058 NA
ATOM      5  N   UNL d   1      33.241  18.014 -22.655  0.00  0.00    -0.122 NA
ATOM      6  N   UNL d   1      31.828  18.570 -24.143  0.00  0.00    -0.125 N 
ENDROOT
BRANCH   2   7
ATOM      7  C   UNL d   1      32.994  19.399 -23.058  0.00  0.00     0.302 C 
ATOM      8  N   UNL d   1      32.876  19.805 -22.355  0.00  0.00    -0.203 NA
ATOM      9  O   UNL d   1      33.241  19.801 -23.735  0.00  0.00    -0.263 OA
BRANCH   8  10
ATOM     10  C   UNL d   1      33.005  20.625 -22.322  0.00  0.00     0.127 C 
BRANCH  10  11
ATOM     11  C   UNL d   1      32.785  21.053 -21.658  0.00  0.00     0.119 A 
ATOM     12  O   UNL d   1      32.129  20.888 -21.166  0.00  0.00    -0.304 OA
ATOM     13  C   UNL d   1      32.117  21.453 -20.570  0.00  0.00     0.123 A 
ATOM     14  C   UNL d   1      32.768  21.972 -20.691  0.00  0.00     0.029 A 
ATOM     15  C   UNL d   1      33.163  21.717 -21.354  0.00  0.00     0.028 A 
ENDBRANCH  10  11
ENDBRANCH   8  10
ENDBRANCH   2   7
BRANCH   3  16
ATOM     16  C   UNL d   1      31.934  16.806 -23.841  0.00  0.00     0.086 A 
ATOM     17  C   UNL d   1      31.173  16.628 -23.572  0.00  0.00     0.019 A 
ATOM     18  C   UNL d   1      30.735  16.040 -23.951  0.00  0.00     0.002 A 
ATOM     19  C   UNL d   1      31.055  15.631 -24.596  0.00  0.00     0.000 A 
ATOM     20  C   UNL d   1      31.816  15.816 -24.858  0.00  0.00     0.002 A 
ATOM     21  C   UNL d   1      32.259  16.404 -24.482  0.00  0.00     0.019 A 
ENDBRANCH   3  16
TORSDOF 4
ENDMDL
MODEL 2
REMARK VINA RESULT:      -2.9      1.318      5.296
REMARK  4 active torsions:
REMARK  status: ('A' for Active; 'I' for Inactive)
REMARK    1  A    between atoms: C_6  and  C_2 
REMARK    2  A    between atoms: C_8  and  N_3 
REMARK       I    between atoms: N_7  and  C_6 
REMARK    3  A    between atoms: C_16  and  N_7 
REMARK    4  A    between atoms: C_9  and  C_16 
ROOT
ATOM      1  C   UNL d   1      32.821  20.950 -21.607  0.00  0.00     0.211 A 
ATOM      2  C   UNL d   1      33.031  20.489 -22.264  0.00  0.00     0.199 A 
ATOM      3  N   UNL d   1      32.903  21.743 -21.806  0.00  0.00    -0.191 N 
ATOM      4  N   UNL d   1      33.165  21.771 -22.589  0.00  0.00    -0.058 NA
ATOM      5  N   UNL d   1      33.241  20.995 -22.863  0.00  0.00    -0.122 NA
ATOM      6  N   UNL d   1      32.571  20.667 -20.873  0.00  0.00    -0.125 N 
ENDROOT
BRANCH   2   7
ATOM      7  C   UNL d   1      33.024  19.665 -22.293  0.00  0.00     0.302 C 
ATOM      8  N   UNL d   1      32.855  19.275 -22.994  0.00  0.00    -0.203 NA
ATOM      9  O   UNL d   1      33.189  19.236 -21.607  0.00  0.00    -0.263 OA
BRANCH   8  10
ATOM     10  C   UNL d   1      32.849  18.445 -23.018  0.00  0.00     0.127 C 
BRANCH  10  11
ATOM     11  C   UNL d   1      32.646  18.052 -23.708  0.00  0.00     0.119 A 
ATOM     12  O   UNL d   1      32.997  18.168 -24.459  0.00  0.00    -0.304 OA
ATOM     13  C   UNL d   1      32.626  17.662 -24.988  0.00  0.00     0.123 A 
ATOM     14  C   UNL d   1      32.041  17.229 -24.566  0.00  0.00     0.029 A 
ATOM     15  C   UNL d   1      32.065  17.475 -23.792  0.00  0.00     0.028 A 
ENDBRANCH  10  11
ENDBRANCH   8  10
ENDBRANCH   2   7
BRANCH   3  16
ATOM     16  C   UNL d   1      32.754  22.393 -21.320  0.00  0.00     0.086 A 
ATOM     17  C   UNL d   1      32.125  22.899 -21.496  0.00  0.00     0.019 A 
ATOM     18  C   UNL d   1      31.976  23.548 -21.009  0.00  0.00     0.002 A 
ATOM     19  C   UNL d   1      32.454  23.692 -20.348  0.00  0.00     0.000 A 
ATOM     20  C   UNL d   1      33.080  23.181 -20.180  0.00  0.00     0.002 A 
ATOM     21  C   UNL d   1      33.233  22.530 -20.664  0.00  0.00     0.019 A 
ENDBRANCH   3  16
TORSDOF 4
ENDMDL
MODEL 3
REMARK VINA RESULT:      -2.7      1.068      4.865
REMARK  4 active torsions:
REMARK  status: ('A' for Active; 'I' for Inactive)
REMARK    1  A    between atoms: C_6  and  C_2 
REMARK    2  A    between atoms: C_8  and  N_3 
REMARK       I    between atoms: N_7  and  C_6 
REMARK    3  A    between atoms: C_16  and  N_7 
REMARK    4  A    between atoms: C_9  and  C_16 
ROOT
ATOM      1  C   UNL d   1      32.731  20.108 -22.444  0.00  0.00     0.211 A 
ATOM      2  C   UNL d   1      32.949  19.308 -22.459  0.00  0.00     0.199 A 
ATOM      3  N   UNL d   1      32.889  20.409 -21.696  0.00  0.00    -0.191 N 
ATOM      4  N   UNL d   1      33.207  19.792 -21.248  0.00  0.00    -0.058 NA
ATOM      5  N   UNL d   1      33.240  19.118 -21.725  0.00  0.00    -0.122 NA
ATOM      6  N   UNL d   1      32.407  20.537 -23.071  0.00  0.00    -0.125 N 
ENDROOT
BRANCH   2   7
ATOM      7  C   UNL d   1      32.880  18.805 -23.108  0.00  0.00     0.302 C 
ATOM      8  N   UNL d   1      32.457  18.105 -23.047  0.00  0.00    -0.203 NA
ATOM      9  O   UNL d   1      33.241  19.013 -23.821  0.00  0.00    -0.263 OA
BRANCH   8  10
ATOM     10  C   UNL d   1      32.389  17.601 -23.704  0.00  0.00     0.127 C 
BRANCH  10  11
ATOM     11  C   UNL d   1      31.925  16.927 -23.663  0.00  0.00     0.119 A 
ATOM     12  O   UNL d   1      31.092  16.902 -23.735  0.00  0.00    -0.304 OA
ATOM     13  C   UNL d   1      30.859  16.118 -23.660  0.00  0.00     0.123 A 
ATOM     14  C   UNL d   1      31.549  15.652 -23.541  0.00  0.00     0.029 A 
ATOM     15  C   UNL d   1      32.187  16.156 -23.545  0.00  0.00     0.028 A 
ENDBRANCH  10  11
ENDBRANCH   8  10
ENDBRANCH   2   7
BRANCH   3  16
ATOM     16  C   UNL d   1      32.757  21.181 -21.436  0.00  0.00     0.086 A 
ATOM     17  C   UNL d   1      33.226  21.796 -21.729  0.00  0.00     0.019 A 
ATOM     18  C   UNL d   1      33.093  22.568 -21.468  0.00  0.00     0.002 A 
ATOM     19  C   UNL d   1      32.495  22.726 -20.918  0.00  0.00     0.000 A 
ATOM     20  C   UNL d   1      32.032  22.105 -20.631  0.00  0.00     0.002 A 
ATOM     21  C   UNL d   1      32.161  21.331 -20.888  0.00  0.00     0.019 A 
ENDBRANCH   3  16
TORSDOF 4
ENDMDL
MODEL 4
REMARK VINA RESULT:      -1.1      4.008      6.411
REMARK  4 active torsions:
REMARK  status: ('A' for Active; 'I' for Inactive)
REMARK    1  A    between atoms: C_6  and  C_2 
REMARK    2  A    between atoms: C_8  and  N_3 
REMARK       I    between atoms: N_7  and  C_6 
REMARK    3  A    between atoms: C_16  and  N_7 
REMARK    4  A    between atoms: C_9  and  C_16 
ROOT
ATOM      1  C   UNL d   1      32.745  22.386 -19.844  0.00  0.00     0.211 A 
ATOM      2  C   UNL d   1      32.830  22.599 -20.642  0.00  0.00     0.199 A 
ATOM      3  N   UNL d   1      32.783  23.066 -19.385  0.00  0.00    -0.191 N 
ATOM      4  N   UNL d   1      32.892  23.702 -19.902  0.00  0.00    -0.058 NA
ATOM      5  N   UNL d   1      32.919  23.405 -20.673  0.00  0.00    -0.122 NA
ATOM      6  N   UNL d   1      32.640  21.620 -19.553  0.00  0.00    -0.125 N 
ENDROOT
BRANCH   2   7
ATOM      7  C   UNL d   1      32.822  22.078 -21.280  0.00  0.00     0.302 C 
ATOM      8  N   UNL d   1      33.134  22.304 -22.004  0.00  0.00    -0.203 NA
ATOM      9  O   UNL d   1      32.498  21.324 -21.182  0.00  0.00    -0.263 OA
BRANCH   8  10
ATOM     10  C   UNL d   1      33.124  21.775 -22.645  0.00  0.00     0.127 C 
BRANCH  10  11
ATOM     11  C   UNL d   1      33.154  22.056 -23.414  0.00  0.00     0.119 A 
ATOM     12  O   UNL d   1      33.122  22.860 -23.643  0.00  0.00    -0.304 OA
ATOM     13  C   UNL d   1      33.169  22.887 -24.462  0.00  0.00     0.123 A 
ATOM     14  C   UNL d   1      33.230  22.098 -24.745  0.00  0.00     0.029 A 
ATOM     15  C   UNL d   1      33.219  21.605 -24.099  0.00  0.00     0.028 A 
ENDBRANCH  10  11
ENDBRANCH   8  10
ENDBRANCH   2   7
BRANCH   3  16
ATOM     16  C   UNL d   1      32.725  23.112 -18.563  0.00  0.00     0.086 A 
ATOM     17  C   UNL d   1      33.207  22.634 -18.092  0.00  0.00     0.019 A 
ATOM     18  C   UNL d   1      33.148  22.681 -17.271  0.00  0.00     0.002 A 
ATOM     19  C   UNL d   1      32.609  23.202 -16.920  0.00  0.00     0.000 A 
ATOM     20  C   UNL d   1      32.130  23.676 -17.398  0.00  0.00     0.002 A 
ATOM     21  C   UNL d   1      32.186  23.633 -18.221  0.00  0.00     0.019 A 
ENDBRANCH   3  16
TORSDOF 4
ENDMDL
MODEL 5
REMARK VINA RESULT:      -0.8      1.417      2.138
REMARK  4 active torsions:
REMARK  status: ('A' for Active; 'I' for Inactive)
REMARK    1  A    between atoms: C_6  and  C_2 
REMARK    2  A    between atoms: C_8  and  N_3 
REMARK       I    between atoms: N_7  and  C_6 
REMARK    3  A    between atoms: C_16  and  N_7 
REMARK    4  A    between atoms: C_9  and  C_16 
ROOT
ATOM      1  C   UNL d   1      31.106  16.975 -24.023  0.00  0.00     0.211 A 
ATOM      2  C   UNL d   1      31.904  16.982 -23.793  0.00  0.00     0.199 A 
ATOM      3  N   UNL d   1      30.797  16.228 -23.877  0.00  0.00    -0.191 N 
ATOM      4  N   UNL d   1      31.406  15.772 -23.556  0.00  0.00    -0.058 NA
ATOM      5  N   UNL d   1      32.083  16.244 -23.507  0.00  0.00    -0.122 NA
ATOM      6  N   UNL d   1      30.688  17.610 -24.346  0.00  0.00    -0.125 N 
ENDROOT
BRANCH   2   7
ATOM      7  C   UNL d   1      32.413  17.627 -23.849  0.00  0.00     0.302 C 
ATOM      8  N   UNL d   1      32.523  18.126 -23.208  0.00  0.00    -0.203 NA
ATOM      9  O   UNL d   1      32.812  17.767 -24.558  0.00  0.00    -0.263 OA
BRANCH   8  10
ATOM     10  C   UNL d   1      33.037  18.776 -23.268  0.00  0.00     0.127 C 
BRANCH  10  11
ATOM     11  C   UNL d   1      33.107  19.308 -22.649  0.00  0.00     0.119 A 
ATOM     12  O   UNL d   1      33.190  19.111 -21.841  0.00  0.00    -0.304 OA
ATOM     13  C   UNL d   1      33.241  19.812 -21.417  0.00  0.00     0.123 A 
ATOM     14  C   UNL d   1      33.189  20.450 -21.963  0.00  0.00     0.029 A 
ATOM     15  C   UNL d   1      33.108  20.129 -22.705  0.00  0.00     0.028 A 
ENDBRANCH  10  11
ENDBRANCH   8  10
ENDBRANCH   2   7
BRANCH   3  16
ATOM     16  C   UNL d   1      30.025  15.976 -24.022  0.00  0.00     0.086 A 
ATOM     17  C   UNL d   1      29.466  16.000 -23.414  0.00  0.00     0.019 A 
ATOM     18  C   UNL d   1      28.695  15.748 -23.560  0.00  0.00     0.002 A 
ATOM     19  C   UNL d   1      28.480  15.473 -24.311  0.00  0.00     0.000 A 
ATOM     20  C   UNL d   1      29.045  15.452 -24.913  0.00  0.00     0.002 A 
ATOM     21  C   UNL d   1      29.819  15.704 -24.772  0.00  0.00     0.019 A 
ENDBRANCH   3  16
TORSDOF 4
ENDMDL
MODEL 6
REMARK VINA RESULT:      -0.4      2.478      3.596
REMARK  4 active torsions:
REMARK  status: ('A' for Active; 'I' for Inactive)
REMARK    1  A    between atoms: C_6  and  C_2 
REMARK    2  A    between atoms: C_8  and  N_3 
REMARK       I    between atoms: N_7  and  C_6 
REMARK    3  A    between atoms: C_16  and  N_7 
REMARK    4  A    between atoms: C_9  and  C_16 
ROOT
ATOM      1  C   UNL d   1      32.537  21.130 -21.847  0.00  0.00     0.211 A 
ATOM      2  C   UNL d   1      32.586  21.958 -21.862  0.00  0.00     0.199 A 
ATOM      3  N   UNL d   1      32.941  20.831 -22.497  0.00  0.00    -0.191 N 
ATOM      4  N   UNL d   1      33.241  21.478 -22.914  0.00  0.00    -0.058 NA
ATOM      5  N   UNL d   1      33.018  22.167 -22.517  0.00  0.00    -0.122 NA
ATOM      6  N   UNL d   1      32.148  20.676 -21.277  0.00  0.00    -0.125 N 
ENDROOT
BRANCH   2   7
ATOM      7  C   UNL d   1      32.252  22.468 -21.307  0.00  0.00     0.302 C 
ATOM      8  N   UNL d   1      32.718  22.813 -20.727  0.00  0.00    -0.203 NA
ATOM      9  O   UNL d   1      31.443  22.628 -21.340  0.00  0.00    -0.263 OA
BRANCH   8  10
ATOM     10  C   UNL d   1      32.378  23.327 -20.170  0.00  0.00     0.127 C 
BRANCH  10  11
ATOM     11  C   UNL d   1      32.585  23.275 -19.379  0.00  0.00     0.119 A 
ATOM     12  O   UNL d   1      32.163  23.613 -18.740  0.00  0.00    -0.304 OA
ATOM     13  C   UNL d   1      32.565  23.426 -18.049  0.00  0.00     0.123 A 
ATOM     14  C   UNL d   1      33.240  22.969 -18.258  0.00  0.00     0.029 A 
ATOM     15  C   UNL d   1      33.239  22.887 -19.066  0.00  0.00     0.028 A 
ENDBRANCH  10  11
ENDBRANCH   8  10
ENDBRANCH   2   7
BRANCH   3  16
ATOM     16  C   UNL d   1      33.033  20.037 -22.698  0.00  0.00     0.086 A 
ATOM     17  C   UNL d   1      33.127  19.472 -22.102  0.00  0.00     0.019 A 
ATOM     18  C   UNL d   1      33.219  18.678 -22.305  0.00  0.00     0.002 A 
ATOM     19  C   UNL d   1      33.218  18.447 -23.100  0.00  0.00     0.000 A 
ATOM     20  C   UNL d   1      33.124  19.018 -23.689  0.00  0.00     0.002 A 
ATOM     21  C   UNL d   1      33.031  19.814 -23.491  0.00  0.00     0.019 A 
ENDBRANCH   3  16
TORSDOF 4
ENDMDL
