MODEL 1
REMARK VINA RESULT:      50.7      0.000      0.000
REMARK  5 active torsions:
REMARK  status: ('A' for Active; 'I' for Inactive)
REMARK    1  A    between atoms: N_2  and  S_1 
REMARK    2  A    between atoms: C_4  and  S_1 
REMARK    3  A    between atoms: C_5  and  N_3 
REMARK    4  A    between atoms: C_11  and  C_4 
REMARK    5  A    between atoms: C_15  and  C_11 
ROOT
ATOM      1  N   UNL d   1      13.925  15.692  -4.784  0.00  0.00    -0.226 N 
ATOM      2  N   UNL d   1      13.569  14.137  -4.406  0.00  0.00    -0.301 N 
ATOM      3  C   UNL d   1      13.399  15.273  -5.249  0.00  0.00     0.111 A 
ATOM      4  C   UNL d   1      14.275  15.335  -4.129  0.00  0.00     0.111 A 
ATOM      5  C   UNL d   1      14.094  14.562  -3.946  0.00  0.00     0.100 A 
ATOM      6  C   UNL d   1      13.219  14.494  -5.061  0.00  0.00     0.100 A 
ENDROOT
BRANCH   1   7
ATOM      7  S   UNL d   1      14.106  16.488  -4.980  0.00  0.00     0.272 S 
ATOM      8  O   UNL d   1      14.365  16.619  -4.197  0.00  0.00    -0.200 OA
ATOM      9  O   UNL d   1      13.848  16.353  -5.755  0.00  0.00    -0.200 OA
BRANCH   7  10
ATOM     10  C   UNL d   1      14.285  17.272  -5.170  0.00  0.00     0.116 C 
BRANCH  10  11
ATOM     11  C   UNL d   1      13.933  17.625  -5.842  0.00  0.00     0.014 C 
BRANCH  11  12
ATOM     12  C   UNL d   1      13.953  18.449  -5.934  0.00  0.00     0.001 A 
ATOM     13  C   UNL d   1      13.307  18.841  -6.292  0.00  0.00     0.000 A 
ATOM     14  C   UNL d   1      13.322  19.670  -6.387  0.00  0.00     0.000 A 
ATOM     15  C   UNL d   1      13.978  20.104  -6.127  0.00  0.00     0.000 A 
ATOM     16  C   UNL d   1      14.631  19.716  -5.767  0.00  0.00     0.000 A 
ATOM     17  C   UNL d   1      14.615  18.886  -5.671  0.00  0.00     0.000 A 
ENDBRANCH  11  12
ENDBRANCH  10  11
ENDBRANCH   7  10
ENDBRANCH   1   7
BRANCH   2  18
ATOM     18  C   UNL d   1      13.393  13.363  -4.216  0.00  0.00     0.065 A 
ATOM     19  C   UNL d   1      13.665  13.047  -3.515  0.00  0.00     0.029 A 
ATOM     20  C   UNL d   1      13.492  12.277  -3.323  0.00  0.00     0.059 A 
ATOM     21 CL   UNL d   1      13.768  11.953  -2.611  0.00  0.00    -0.082 Cl
ATOM     22  C   UNL d   1      13.041  11.815  -3.835  0.00  0.00     0.011 A 
ATOM     23  C   UNL d   1      12.771  12.136  -4.536  0.00  0.00     0.002 A 
ATOM     24  C   UNL d   1      12.946  12.909  -4.727  0.00  0.00     0.018 A 
ENDBRANCH   2  18
TORSDOF 5
ENDMDL
MODEL 2
REMARK VINA RESULT:      52.1      2.486      5.772
REMARK  5 active torsions:
REMARK  status: ('A' for Active; 'I' for Inactive)
REMARK    1  A    between atoms: N_2  and  S_1 
REMARK    2  A    between atoms: C_4  and  S_1 
REMARK    3  A    between atoms: C_5  and  N_3 
REMARK    4  A    between atoms: C_11  and  C_4 
REMARK    5  A    between atoms: C_15  and  C_11 
ROOT
ATOM      1  N   UNL d   1      13.620  13.251  -3.784  0.00  0.00    -0.226 N 
ATOM      2  N   UNL d   1      13.615  14.647  -4.645  0.00  0.00    -0.301 N 
ATOM      3  C   UNL d   1      13.627  13.222  -4.601  0.00  0.00     0.111 A 
ATOM      4  C   UNL d   1      13.610  13.977  -3.395  0.00  0.00     0.111 A 
ATOM      5  C   UNL d   1      13.608  14.667  -3.827  0.00  0.00     0.100 A 
ATOM      6  C   UNL d   1      13.625  13.920  -5.034  0.00  0.00     0.100 A 
ENDROOT
BRANCH   1   7
ATOM      7  S   UNL d   1      13.623  12.535  -3.346  0.00  0.00     0.272 S 
ATOM      8  O   UNL d   1      13.022  12.232  -3.841  0.00  0.00    -0.200 OA
ATOM      9  O   UNL d   1      14.218  12.840  -2.857  0.00  0.00    -0.200 OA
BRANCH   7  10
ATOM     10  C   UNL d   1      13.624  11.829  -2.916  0.00  0.00     0.116 C 
BRANCH  10  11
ATOM     11  C   UNL d   1      13.198  11.782  -2.197  0.00  0.00     0.014 C 
BRANCH  11  12
ATOM     12  C   UNL d   1      13.605  11.783  -1.475  0.00  0.00     0.001 A 
ATOM     13  C   UNL d   1      13.175  11.780  -0.757  0.00  0.00     0.000 A 
ATOM     14  C   UNL d   1      13.581  11.780  -0.028  0.00  0.00     0.000 A 
ATOM     15  C   UNL d   1      14.409  11.783  -0.015  0.00  0.00     0.000 A 
ATOM     16  C   UNL d   1      14.847  11.786  -0.732  0.00  0.00     0.000 A 
ATOM     17  C   UNL d   1      14.441  11.786  -1.463  0.00  0.00     0.000 A 
ENDBRANCH  11  12
ENDBRANCH  10  11
ENDBRANCH   7  10
ENDBRANCH   1   7
BRANCH   2  18
ATOM     18  C   UNL d   1      13.612  15.342  -5.071  0.00  0.00     0.065 A 
ATOM     19  C   UNL d   1      14.294  15.788  -5.122  0.00  0.00     0.029 A 
ATOM     20  C   UNL d   1      14.294  16.481  -5.546  0.00  0.00     0.059 A 
ATOM     21 CL   UNL d   1      14.986  16.936  -5.599  0.00  0.00    -0.082 Cl
ATOM     22  C   UNL d   1      13.608  16.735  -5.924  0.00  0.00     0.011 A 
ATOM     23  C   UNL d   1      12.928  16.285  -5.870  0.00  0.00     0.002 A 
ATOM     24  C   UNL d   1      12.930  15.589  -5.444  0.00  0.00     0.018 A 
ENDBRANCH   2  18
TORSDOF 5
ENDMDL
MODEL 3
REMARK VINA RESULT:      53.1      2.034      5.660
REMARK  5 active torsions:
REMARK  status: ('A' for Active; 'I' for Inactive)
REMARK    1  A    between atoms: N_2  and  S_1 
REMARK    2  A    between atoms: C_4  and  S_1 
REMARK    3  A    between atoms: C_5  and  N_3 
REMARK    4  A    between atoms: C_11  and  C_4 
REMARK    5  A    between atoms: C_15  and  C_11 
ROOT
ATOM      1  N   UNL d   1      13.728  16.195  -5.306  0.00  0.00    -0.226 N 
ATOM      2  N   UNL d   1      13.688  17.780  -5.726  0.00  0.00    -0.301 N 
ATOM      3  C   UNL d   1      13.241  16.440  -5.916  0.00  0.00     0.111 A 
ATOM      4  C   UNL d   1      14.196  16.742  -4.905  0.00  0.00     0.111 A 
ATOM      5  C   UNL d   1      14.172  17.527  -5.118  0.00  0.00     0.100 A 
ATOM      6  C   UNL d   1      13.219  17.233  -6.127  0.00  0.00     0.100 A 
ENDROOT
BRANCH   1   7
ATOM      7  S   UNL d   1      13.747  15.384  -5.093  0.00  0.00     0.272 S 
ATOM      8  O   UNL d   1      12.946  15.429  -4.859  0.00  0.00    -0.200 OA
ATOM      9  O   UNL d   1      14.540  15.344  -5.326  0.00  0.00    -0.200 OA
BRANCH   7  10
ATOM     10  C   UNL d   1      13.763  14.584  -4.883  0.00  0.00     0.116 C 
BRANCH  10  11
ATOM     11  C   UNL d   1      13.099  14.243  -4.505  0.00  0.00     0.014 C 
BRANCH  11  12
ATOM     12  C   UNL d   1      13.098  13.434  -4.324  0.00  0.00     0.001 A 
ATOM     13  C   UNL d   1      13.404  13.174  -3.590  0.00  0.00     0.000 A 
ATOM     14  C   UNL d   1      13.405  12.360  -3.403  0.00  0.00     0.000 A 
ATOM     15  C   UNL d   1      13.101  11.811  -3.944  0.00  0.00     0.000 A 
ATOM     16  C   UNL d   1      12.792  12.066  -4.683  0.00  0.00     0.000 A 
ATOM     17  C   UNL d   1      12.791  12.880  -4.870  0.00  0.00     0.000 A 
ENDBRANCH  11  12
ENDBRANCH  10  11
ENDBRANCH   7  10
ENDBRANCH   1   7
BRANCH   2  18
ATOM     18  C   UNL d   1      13.669  18.569  -5.933  0.00  0.00     0.065 A 
ATOM     19  C   UNL d   1      14.352  19.014  -5.890  0.00  0.00     0.029 A 
ATOM     20  C   UNL d   1      14.337  19.800  -6.096  0.00  0.00     0.059 A 
ATOM     21 CL   UNL d   1      15.029  20.255  -6.054  0.00  0.00    -0.082 Cl
ATOM     22  C   UNL d   1      13.634  20.148  -6.348  0.00  0.00     0.011 A 
ATOM     23  C   UNL d   1      12.953  19.697  -6.389  0.00  0.00     0.002 A 
ATOM     24  C   UNL d   1      12.971  18.909  -6.182  0.00  0.00     0.018 A 
ENDBRANCH   2  18
TORSDOF 5
ENDMDL
