MODEL 1
REMARK VINA RESULT:      -4.0      0.000      0.000
REMARK  3 active torsions:
REMARK  status: ('A' for Active; 'I' for Inactive)
REMARK    1  A    between atoms: C_9  and  C_1 
REMARK    2  A    between atoms: C_11  and  N_5 
REMARK    3  A    between atoms: N_8  and  C_9 
ROOT
ATOM      1  N   UNL d   1      33.000  20.340 -22.206  0.00  0.00    -0.301 N 
ATOM      2  N   UNL d   1      33.161  18.920 -23.042  0.00  0.00    -0.300 N 
ATOM      3  C   UNL d   1      33.084  19.621 -21.797  0.00  0.00     0.100 A 
ATOM      4  C   UNL d   1      32.997  20.343 -23.035  0.00  0.00     0.100 A 
ATOM      5  C   UNL d   1      33.165  18.903 -22.217  0.00  0.00     0.100 A 
ATOM      6  C   UNL d   1      33.077  19.638 -23.438  0.00  0.00     0.100 A 
ENDROOT
BRANCH   2   7
ATOM      7  C   UNL d   1      33.241  18.213 -23.466  0.00  0.00     0.084 C 
BRANCH   7   8
ATOM      8  C   UNL d   1      32.562  17.814 -23.695  0.00  0.00     0.059 A 
ATOM      9  C   UNL d   1      32.442  17.044 -23.413  0.00  0.00     0.214 A 
ATOM     10  C   UNL d   1      31.754  16.631 -23.641  0.00  0.00     0.121 A 
ATOM     11  O   UNL d   1      32.985  16.686 -22.919  0.00  0.00    -0.285 OA
ATOM     12  N   UNL d   1      31.634  15.862 -23.359  0.00  0.00    -0.241 NA
ATOM     13  C   UNL d   1      31.201  16.987 -24.140  0.00  0.00     0.032 A 
ATOM     14  C   UNL d   1      30.948  15.453 -23.587  0.00  0.00     0.099 A 
ATOM     15  C   UNL d   1      30.395  15.808 -24.086  0.00  0.00     0.021 A 
ATOM     16  C   UNL d   1      30.528  16.572 -24.357  0.00  0.00     0.004 A 
ATOM     17  C   UNL d   1      31.332  17.748 -24.410  0.00  0.00     0.059 A 
ATOM     18  C   UNL d   1      32.009  18.169 -24.193  0.00  0.00     0.016 A 
ATOM     19 CL   UNL d   1      30.773  18.107 -24.914  0.00  0.00    -0.082 Cl
ENDBRANCH   7   8
ENDBRANCH   2   7
BRANCH   1  20
ATOM     20  C   UNL d   1      32.921  21.037 -21.790  0.00  0.00     0.064 A 
ATOM     21  C   UNL d   1      32.539  21.033 -21.060  0.00  0.00     0.020 A 
ATOM     22  C   UNL d   1      32.455  21.738 -20.630  0.00  0.00     0.031 A 
ATOM     23  C   UNL d   1      32.757  22.450 -20.939  0.00  0.00     0.140 A 
ATOM     24  C   UNL d   1      33.138  22.443 -21.672  0.00  0.00     0.031 A 
ATOM     25  F   UNL d   1      32.672  23.145 -20.512  0.00  0.00    -0.204 F 
ATOM     26  C   UNL d   1      33.219  21.738 -22.094  0.00  0.00     0.020 A 
ENDBRANCH   1  20
TORSDOF 3
ENDMDL
MODEL 2
REMARK VINA RESULT:      -2.4      1.092      1.288
REMARK  3 active torsions:
REMARK  status: ('A' for Active; 'I' for Inactive)
REMARK    1  A    between atoms: C_9  and  C_1 
REMARK    2  A    between atoms: C_11  and  N_5 
REMARK    3  A    between atoms: N_8  and  C_9 
ROOT
ATOM      1  N   UNL d   1      32.939  19.980 -22.358  0.00  0.00    -0.301 N 
ATOM      2  N   UNL d   1      32.945  18.746 -23.462  0.00  0.00    -0.300 N 
ATOM      3  C   UNL d   1      33.237  19.233 -22.148  0.00  0.00     0.100 A 
ATOM      4  C   UNL d   1      32.645  20.106 -23.122  0.00  0.00     0.100 A 
ATOM      5  C   UNL d   1      33.241  18.609 -22.705  0.00  0.00     0.100 A 
ATOM      6  C   UNL d   1      32.652  19.491 -23.660  0.00  0.00     0.100 A 
ENDROOT
BRANCH   2   7
ATOM      7  C   UNL d   1      32.945  18.134 -24.020  0.00  0.00     0.084 C 
BRANCH   7   8
ATOM      8  C   UNL d   1      32.380  17.543 -23.953  0.00  0.00     0.059 A 
ATOM      9  C   UNL d   1      31.759  17.525 -24.501  0.00  0.00     0.214 A 
ATOM     10  C   UNL d   1      31.181  16.927 -24.439  0.00  0.00     0.121 A 
ATOM     11  O   UNL d   1      31.706  18.081 -25.097  0.00  0.00    -0.285 OA
ATOM     12  N   UNL d   1      30.560  16.909 -24.987  0.00  0.00    -0.241 NA
ATOM     13  C   UNL d   1      31.228  16.362 -23.840  0.00  0.00     0.032 A 
ATOM     14  C   UNL d   1      29.985  16.313 -24.924  0.00  0.00     0.099 A 
ATOM     15  C   UNL d   1      30.033  15.748 -24.325  0.00  0.00     0.021 A 
ATOM     16  C   UNL d   1      30.655  15.779 -23.789  0.00  0.00     0.004 A 
ATOM     17  C   UNL d   1      31.847  16.391 -23.305  0.00  0.00     0.059 A 
ATOM     18  C   UNL d   1      32.427  16.978 -23.354  0.00  0.00     0.016 A 
ATOM     19 CL   UNL d   1      31.895  15.821 -22.700  0.00  0.00    -0.082 Cl
ENDBRANCH   7   8
ENDBRANCH   2   7
BRANCH   1  20
ATOM     20  C   UNL d   1      32.939  20.584 -21.810  0.00  0.00     0.064 A 
ATOM     21  C   UNL d   1      32.632  20.450 -21.057  0.00  0.00     0.020 A 
ATOM     22  C   UNL d   1      32.628  21.060 -20.494  0.00  0.00     0.031 A 
ATOM     23  C   UNL d   1      32.934  21.809 -20.693  0.00  0.00     0.140 A 
ATOM     24  C   UNL d   1      33.239  21.933 -21.450  0.00  0.00     0.031 A 
ATOM     25  F   UNL d   1      32.928  22.409 -20.134  0.00  0.00    -0.204 F 
ATOM     26  C   UNL d   1      33.240  21.322 -22.005  0.00  0.00     0.020 A 
ENDBRANCH   1  20
TORSDOF 3
ENDMDL
MODEL 3
REMARK VINA RESULT:      -1.9      2.533      5.248
REMARK  3 active torsions:
REMARK  status: ('A' for Active; 'I' for Inactive)
REMARK    1  A    between atoms: C_9  and  C_1 
REMARK    2  A    between atoms: C_11  and  N_5 
REMARK    3  A    between atoms: N_8  and  C_9 
ROOT
ATOM      1  N   UNL d   1      30.594  16.865 -24.236  0.00  0.00    -0.301 N 
ATOM      2  N   UNL d   1      32.104  17.541 -24.177  0.00  0.00    -0.300 N 
ATOM      3  C   UNL d   1      31.095  16.712 -23.591  0.00  0.00     0.100 A 
ATOM      4  C   UNL d   1      30.853  17.358 -24.851  0.00  0.00     0.100 A 
ATOM      5  C   UNL d   1      31.858  17.053 -23.559  0.00  0.00     0.100 A 
ATOM      6  C   UNL d   1      31.599  17.687 -24.812  0.00  0.00     0.100 A 
ENDROOT
BRANCH   2   7
ATOM      7  C   UNL d   1      32.858  17.883 -24.154  0.00  0.00     0.084 C 
BRANCH   7   8
ATOM      8  C   UNL d   1      32.947  18.611 -23.787  0.00  0.00     0.059 A 
ATOM      9  C   UNL d   1      32.971  19.292 -24.258  0.00  0.00     0.214 A 
ATOM     10  C   UNL d   1      33.062  20.036 -23.893  0.00  0.00     0.121 A 
ATOM     11  O   UNL d   1      32.907  19.244 -25.071  0.00  0.00    -0.285 OA
ATOM     12  N   UNL d   1      33.085  20.716 -24.364  0.00  0.00    -0.241 NA
ATOM     13  C   UNL d   1      33.127  20.091 -23.072  0.00  0.00     0.032 A 
ATOM     14  C   UNL d   1      33.175  21.456 -23.998  0.00  0.00     0.099 A 
ATOM     15  C   UNL d   1      33.241  21.512 -23.178  0.00  0.00     0.021 A 
ATOM     16  C   UNL d   1      33.216  20.827 -22.723  0.00  0.00     0.004 A 
ATOM     17  C   UNL d   1      33.102  19.411 -22.618  0.00  0.00     0.059 A 
ATOM     18  C   UNL d   1      33.013  18.667 -22.966  0.00  0.00     0.016 A 
ATOM     19 CL   UNL d   1      33.168  19.467 -21.789  0.00  0.00    -0.082 Cl
ENDBRANCH   7   8
ENDBRANCH   2   7
BRANCH   1  20
ATOM     20  C   UNL d   1      29.850  16.530 -24.261  0.00  0.00     0.064 A 
ATOM     21  C   UNL d   1      29.742  15.810 -24.647  0.00  0.00     0.020 A 
ATOM     22  C   UNL d   1      28.989  15.462 -24.677  0.00  0.00     0.031 A 
ATOM     23  C   UNL d   1      28.343  15.843 -24.315  0.00  0.00     0.140 A 
ATOM     24  C   UNL d   1      28.462  16.564 -23.931  0.00  0.00     0.031 A 
ATOM     25  F   UNL d   1      27.601  15.497 -24.347  0.00  0.00    -0.204 F 
ATOM     26  C   UNL d   1      29.214  16.904 -23.905  0.00  0.00     0.020 A 
ENDBRANCH   1  20
TORSDOF 3
ENDMDL
MODEL 4
REMARK VINA RESULT:      -1.8      2.281      5.089
REMARK  3 active torsions:
REMARK  status: ('A' for Active; 'I' for Inactive)
REMARK    1  A    between atoms: C_9  and  C_1 
REMARK    2  A    between atoms: C_11  and  N_5 
REMARK    3  A    between atoms: N_8  and  C_9 
ROOT
ATOM      1  N   UNL d   1      30.846  16.898 -24.205  0.00  0.00    -0.301 N 
ATOM      2  N   UNL d   1      32.333  17.591 -23.986  0.00  0.00    -0.300 N 
ATOM      3  C   UNL d   1      31.336  16.646 -23.583  0.00  0.00     0.100 A 
ATOM      4  C   UNL d   1      31.104  17.498 -24.716  0.00  0.00     0.100 A 
ATOM      5  C   UNL d   1      32.088  16.995 -23.471  0.00  0.00     0.100 A 
ATOM      6  C   UNL d   1      31.839  17.834 -24.599  0.00  0.00     0.100 A 
ENDROOT
BRANCH   2   7
ATOM      7  C   UNL d   1      33.076  17.942 -23.881  0.00  0.00     0.084 C 
BRANCH   7   8
ATOM      8  C   UNL d   1      33.110  18.716 -23.613  0.00  0.00     0.059 A 
ATOM      9  C   UNL d   1      33.138  18.851 -22.797  0.00  0.00     0.214 A 
ATOM     10  C   UNL d   1      33.173  19.636 -22.516  0.00  0.00     0.121 A 
ATOM     11  O   UNL d   1      33.134  18.230 -22.265  0.00  0.00    -0.285 OA
ATOM     12  N   UNL d   1      33.202  19.771 -21.699  0.00  0.00    -0.241 NA
ATOM     13  C   UNL d   1      33.178  20.268 -23.046  0.00  0.00     0.032 A 
ATOM     14  C   UNL d   1      33.236  20.553 -21.422  0.00  0.00     0.099 A 
ATOM     15  C   UNL d   1      33.241  21.185 -21.952  0.00  0.00     0.021 A 
ATOM     16  C   UNL d   1      33.212  21.035 -22.760  0.00  0.00     0.004 A 
ATOM     17  C   UNL d   1      33.149  20.121 -23.851  0.00  0.00     0.059 A 
ATOM     18  C   UNL d   1      33.115  19.348 -24.143  0.00  0.00     0.016 A 
ATOM     19 CL   UNL d   1      33.155  20.759 -24.386  0.00  0.00    -0.082 Cl
ENDBRANCH   7   8
ENDBRANCH   2   7
BRANCH   1  20
ATOM     20  C   UNL d   1      30.114  16.553 -24.310  0.00  0.00     0.064 A 
ATOM     21  C   UNL d   1      29.441  16.934 -24.023  0.00  0.00     0.020 A 
ATOM     22  C   UNL d   1      28.693  16.590 -24.126  0.00  0.00     0.031 A 
ATOM     23  C   UNL d   1      28.623  15.859 -24.518  0.00  0.00     0.140 A 
ATOM     24  C   UNL d   1      29.303  15.485 -24.801  0.00  0.00     0.031 A 
ATOM     25  F   UNL d   1      27.883  15.522 -24.617  0.00  0.00    -0.204 F 
ATOM     26  C   UNL d   1      30.045  15.833 -24.696  0.00  0.00     0.020 A 
ENDBRANCH   1  20
TORSDOF 3
ENDMDL
MODEL 5
REMARK VINA RESULT:      -1.7      3.227      4.711
REMARK  3 active torsions:
REMARK  status: ('A' for Active; 'I' for Inactive)
REMARK    1  A    between atoms: C_9  and  C_1 
REMARK    2  A    between atoms: C_11  and  N_5 
REMARK    3  A    between atoms: N_8  and  C_9 
ROOT
ATOM      1  N   UNL d   1      32.599  23.113 -19.247  0.00  0.00    -0.301 N 
ATOM      2  N   UNL d   1      32.594  23.040 -20.901  0.00  0.00    -0.300 N 
ATOM      3  C   UNL d   1      33.241  23.414 -19.680  0.00  0.00     0.100 A 
ATOM      4  C   UNL d   1      31.955  22.775 -19.646  0.00  0.00     0.100 A 
ATOM      5  C   UNL d   1      33.240  23.378 -20.516  0.00  0.00     0.100 A 
ATOM      6  C   UNL d   1      31.962  22.744 -20.462  0.00  0.00     0.100 A 
ENDROOT
BRANCH   2   7
ATOM      7  C   UNL d   1      32.585  23.000 -21.728  0.00  0.00     0.084 C 
BRANCH   7   8
ATOM      8  C   UNL d   1      32.736  22.278 -22.088  0.00  0.00     0.059 A 
ATOM      9  C   UNL d   1      32.784  22.250 -22.914  0.00  0.00     0.214 A 
ATOM     10  C   UNL d   1      32.937  21.519 -23.287  0.00  0.00     0.121 A 
ATOM     11  O   UNL d   1      32.684  22.923 -23.366  0.00  0.00    -0.285 OA
ATOM     12  N   UNL d   1      32.985  21.491 -24.113  0.00  0.00    -0.241 NA
ATOM     13  C   UNL d   1      33.040  20.836 -22.837  0.00  0.00     0.032 A 
ATOM     14  C   UNL d   1      33.138  20.763 -24.482  0.00  0.00     0.099 A 
ATOM     15  C   UNL d   1      33.241  20.079 -24.032  0.00  0.00     0.021 A 
ATOM     16  C   UNL d   1      33.190  20.123 -23.213  0.00  0.00     0.004 A 
ATOM     17  C   UNL d   1      32.990  20.878 -22.021  0.00  0.00     0.059 A 
ATOM     18  C   UNL d   1      32.838  21.594 -21.638  0.00  0.00     0.016 A 
ATOM     19 CL   UNL d   1      33.093  20.187 -21.566  0.00  0.00    -0.082 Cl
ENDBRANCH   7   8
ENDBRANCH   2   7
BRANCH   1  20
ATOM     20  C   UNL d   1      32.606  23.151 -18.432  0.00  0.00     0.064 A 
ATOM     21  C   UNL d   1      33.163  22.716 -18.010  0.00  0.00     0.020 A 
ATOM     22  C   UNL d   1      33.177  22.750 -17.181  0.00  0.00     0.031 A 
ATOM     23  C   UNL d   1      32.625  23.225 -16.776  0.00  0.00     0.140 A 
ATOM     24  C   UNL d   1      32.070  23.657 -17.209  0.00  0.00     0.031 A 
ATOM     25  F   UNL d   1      32.641  23.256 -15.958  0.00  0.00    -0.204 F 
ATOM     26  C   UNL d   1      32.063  23.619 -18.034  0.00  0.00     0.020 A 
ENDBRANCH   1  20
TORSDOF 3
ENDMDL
