MODEL 1
REMARK VINA RESULT:      41.8      0.000      0.000
REMARK  6 active torsions:
REMARK  status: ('A' for Active; 'I' for Inactive)
REMARK    1  A    between atoms: C_7  and  C_1 
REMARK    2  A    between atoms: C_19  and  N_2 
REMARK    3  A    between atoms: C_18  and  N_3 
REMARK    4  A    between atoms: C_13  and  C_9 
REMARK    5  A    between atoms: O_20  and  C_13 
REMARK    6  A    between atoms: C_23  and  O_20 
ROOT
ATOM      1  C   UNL d   1      46.183 -18.083  42.955  0.00  0.00     0.013 A 
ATOM      2  C   UNL d   1      45.952 -17.310  43.150  0.00  0.00     0.030 A 
ATOM      3  C   UNL d   1      45.836 -17.091  43.933  0.00  0.00     0.163 A 
ATOM      4  O   UNL d   1      45.950 -17.646  44.542  0.00  0.00    -0.302 OA
ATOM      5  C   UNL d   1      46.299 -18.641  43.556  0.00  0.00     0.023 A 
ATOM      6  C   UNL d   1      46.182 -18.421  44.351  0.00  0.00     0.100 A 
ATOM      7  C   UNL d   1      46.529 -19.413  43.373  0.00  0.00     0.002 A 
ATOM      8  C   UNL d   1      46.298 -18.982  44.954  0.00  0.00     0.025 A 
ATOM      9  C   UNL d   1      46.644 -19.969  43.971  0.00  0.00     0.000 A 
ATOM     10  C   UNL d   1      46.528 -19.751  44.769  0.00  0.00     0.002 A 
ENDROOT
BRANCH   1  11
ATOM     11  C   UNL d   1      46.298 -18.300  42.169  0.00  0.00     0.113 A 
ATOM     12  C   UNL d   1      46.415 -17.715  41.595  0.00  0.00     0.271 A 
ATOM     13  N   UNL d   1      46.531 -17.926  40.810  0.00  0.00    -0.250 N 
ATOM     14  O   UNL d   1      46.415 -16.919  41.814  0.00  0.00    -0.266 OA
ATOM     15  C   UNL d   1      46.530 -18.719  40.594  0.00  0.00     0.196 A 
ATOM     16  N   UNL d   1      46.414 -19.305  41.168  0.00  0.00    -0.250 N 
ATOM     17  S   UNL d   1      46.646 -18.937  39.803  0.00  0.00    -0.039 SA
ATOM     18  C   UNL d   1      46.297 -19.100  41.960  0.00  0.00     0.271 A 
ATOM     19  O   UNL d   1      46.180 -19.682  42.531  0.00  0.00    -0.266 OA
BRANCH  13  20
ATOM     20  C   UNL d   1      46.647 -17.344  40.239  0.00  0.00     0.085 C 
ATOM     21  C   UNL d   1      46.006 -17.041  39.823  0.00  0.00     0.021 C 
ENDBRANCH  13  20
BRANCH  16  22
ATOM     22  C   UNL d   1      46.414 -20.101  40.944  0.00  0.00     0.085 C 
ATOM     23  C   UNL d   1      46.254 -20.315  40.166  0.00  0.00     0.021 C 
ENDBRANCH  16  22
ENDBRANCH   1  11
BRANCH   3  24
ATOM     24  C   UNL d   1      45.608 -16.324  44.116  0.00  0.00     0.323 C 
ATOM     25  O   UNL d   1      44.833 -16.082  43.974  0.00  0.00    -0.257 OA
BRANCH  24  26
ATOM     26  O   UNL d   1      46.150 -15.799  44.441  0.00  0.00    -0.270 OA
BRANCH  26  27
ATOM     27  C   UNL d   1      45.886 -15.151  44.875  0.00  0.00     0.126 C 
ATOM     28  C   UNL d   1      45.946 -14.391  44.564  0.00  0.00     0.029 C 
ENDBRANCH  26  27
ENDBRANCH  24  26
ENDBRANCH   3  24
TORSDOF 6
ENDMDL
MODEL 2
REMARK VINA RESULT:      44.2      1.618      3.125
REMARK  6 active torsions:
REMARK  status: ('A' for Active; 'I' for Inactive)
REMARK    1  A    between atoms: C_7  and  C_1 
REMARK    2  A    between atoms: C_19  and  N_2 
REMARK    3  A    between atoms: C_18  and  N_3 
REMARK    4  A    between atoms: C_13  and  C_9 
REMARK    5  A    between atoms: O_20  and  C_13 
REMARK    6  A    between atoms: C_23  and  O_20 
ROOT
ATOM      1  C   UNL d   1      45.616 -16.075  43.716  0.00  0.00     0.013 A 
ATOM      2  C   UNL d   1      46.097 -15.458  43.438  0.00  0.00     0.030 A 
ATOM      3  C   UNL d   1      45.891 -14.674  43.568  0.00  0.00     0.163 A 
ATOM      4  O   UNL d   1      45.193 -14.489  43.982  0.00  0.00    -0.302 OA
ATOM      5  C   UNL d   1      44.920 -15.900  44.129  0.00  0.00     0.023 A 
ATOM      6  C   UNL d   1      44.709 -15.105  44.262  0.00  0.00     0.100 A 
ATOM      7  C   UNL d   1      44.434 -16.505  44.409  0.00  0.00     0.002 A 
ATOM      8  C   UNL d   1      44.009 -14.929  44.676  0.00  0.00     0.025 A 
ATOM      9  C   UNL d   1      43.741 -16.331  44.820  0.00  0.00     0.000 A 
ATOM     10  C   UNL d   1      43.527 -15.535  44.955  0.00  0.00     0.002 A 
ENDROOT
BRANCH   1  11
ATOM     11  C   UNL d   1      45.825 -16.861  43.584  0.00  0.00     0.113 A 
ATOM     12  C   UNL d   1      45.728 -17.190  42.831  0.00  0.00     0.271 A 
ATOM     13  N   UNL d   1      45.935 -17.973  42.694  0.00  0.00    -0.250 N 
ATOM     14  O   UNL d   1      45.423 -16.730  42.217  0.00  0.00    -0.266 OA
ATOM     15  C   UNL d   1      46.239 -18.430  43.307  0.00  0.00     0.196 A 
ATOM     16  N   UNL d   1      46.336 -18.101  44.060  0.00  0.00    -0.250 N 
ATOM     17  S   UNL d   1      46.449 -19.220  43.173  0.00  0.00    -0.039 SA
ATOM     18  C   UNL d   1      46.130 -17.313  44.205  0.00  0.00     0.271 A 
ATOM     19  O   UNL d   1      46.226 -16.985  44.955  0.00  0.00    -0.266 OA
BRANCH  13  20
ATOM     20  C   UNL d   1      45.838 -18.301  41.945  0.00  0.00     0.085 C 
ATOM     21  C   UNL d   1      46.173 -17.936  41.289  0.00  0.00     0.021 C 
ENDBRANCH  13  20
BRANCH  16  22
ATOM     22  C   UNL d   1      46.642 -18.565  44.672  0.00  0.00     0.085 C 
ATOM     23  C   UNL d   1      46.347 -19.321  44.808  0.00  0.00     0.021 C 
ENDBRANCH  16  22
ENDBRANCH   1  11
BRANCH   3  24
ATOM     24  C   UNL d   1      46.373 -14.070  43.290  0.00  0.00     0.323 C 
ATOM     25  O   UNL d   1      46.647 -14.089  42.513  0.00  0.00    -0.257 OA
BRANCH  24  26
ATOM     26  O   UNL d   1      46.582 -13.448  43.785  0.00  0.00    -0.270 OA
BRANCH  26  27
ATOM     27  C   UNL d   1      45.998 -13.000  44.153  0.00  0.00     0.126 C 
ATOM     28  C   UNL d   1      46.052 -12.179  44.168  0.00  0.00     0.029 C 
ENDBRANCH  26  27
ENDBRANCH  24  26
ENDBRANCH   3  24
TORSDOF 6
ENDMDL
MODEL 3
REMARK VINA RESULT:      44.4      2.085      4.074
REMARK  6 active torsions:
REMARK  status: ('A' for Active; 'I' for Inactive)
REMARK    1  A    between atoms: C_7  and  C_1 
REMARK    2  A    between atoms: C_19  and  N_2 
REMARK    3  A    between atoms: C_18  and  N_3 
REMARK    4  A    between atoms: C_13  and  C_9 
REMARK    5  A    between atoms: O_20  and  C_13 
REMARK    6  A    between atoms: C_23  and  O_20 
ROOT
ATOM      1  C   UNL d   1      45.653 -17.076  43.251  0.00  0.00     0.013 A 
ATOM      2  C   UNL d   1      45.474 -17.210  42.452  0.00  0.00     0.030 A 
ATOM      3  C   UNL d   1      45.621 -17.940  42.105  0.00  0.00     0.163 A 
ATOM      4  O   UNL d   1      45.953 -18.556  42.555  0.00  0.00    -0.302 OA
ATOM      5  C   UNL d   1      45.983 -17.684  43.706  0.00  0.00     0.023 A 
ATOM      6  C   UNL d   1      46.134 -18.425  43.356  0.00  0.00     0.100 A 
ATOM      7  C   UNL d   1      46.165 -17.562  44.502  0.00  0.00     0.002 A 
ATOM      8  C   UNL d   1      46.466 -19.036  43.813  0.00  0.00     0.025 A 
ATOM      9  C   UNL d   1      46.494 -18.167  44.954  0.00  0.00     0.000 A 
ATOM     10  C   UNL d   1      46.646 -18.911  44.607  0.00  0.00     0.002 A 
ENDROOT
BRANCH   1  11
ATOM     11  C   UNL d   1      45.504 -16.343  43.597  0.00  0.00     0.113 A 
ATOM     12  C   UNL d   1      46.004 -15.704  43.432  0.00  0.00     0.271 A 
ATOM     13  N   UNL d   1      45.860 -14.971  43.774  0.00  0.00    -0.250 N 
ATOM     14  O   UNL d   1      46.647 -15.804  42.924  0.00  0.00    -0.266 OA
ATOM     15  C   UNL d   1      45.219 -14.873  44.280  0.00  0.00     0.196 A 
ATOM     16  N   UNL d   1      44.720 -15.512  44.444  0.00  0.00    -0.250 N 
ATOM     17  S   UNL d   1      45.071 -14.135  44.627  0.00  0.00    -0.039 SA
ATOM     18  C   UNL d   1      44.858 -16.253  44.104  0.00  0.00     0.271 A 
ATOM     19  O   UNL d   1      44.361 -16.889  44.267  0.00  0.00    -0.266 OA
BRANCH  13  20
ATOM     20  C   UNL d   1      46.357 -14.335  43.611  0.00  0.00     0.085 C 
ATOM     21  C   UNL d   1      46.505 -13.768  44.188  0.00  0.00     0.021 C 
ENDBRANCH  13  20
BRANCH  16  22
ATOM     22  C   UNL d   1      44.077 -15.407  44.953  0.00  0.00     0.085 C 
ATOM     23  C   UNL d   1      43.383 -15.059  44.681  0.00  0.00     0.021 C 
ENDBRANCH  16  22
ENDBRANCH   1  11
BRANCH   3  24
ATOM     24  C   UNL d   1      45.441 -18.063  41.313  0.00  0.00     0.323 C 
ATOM     25  O   UNL d   1      44.787 -17.691  40.979  0.00  0.00    -0.257 OA
BRANCH  24  26
ATOM     26  O   UNL d   1      45.913 -18.556  40.855  0.00  0.00    -0.270 OA
BRANCH  26  27
ATOM     27  C   UNL d   1      45.924 -19.366  41.000  0.00  0.00     0.126 C 
ATOM     28  C   UNL d   1      46.579 -19.817  40.785  0.00  0.00     0.029 C 
ENDBRANCH  26  27
ENDBRANCH  24  26
ENDBRANCH   3  24
TORSDOF 6
ENDMDL
