MODEL 1
REMARK VINA RESULT:      -0.7      0.000      0.000
REMARK  8 active torsions:
REMARK  status: ('A' for Active; 'I' for Inactive)
REMARK    1  A    between atoms: C_2  and  S_1 
REMARK    2  A    between atoms: N_3  and  S_1 
REMARK    3  A    between atoms: C_17  and  N_3 
REMARK    4  A    between atoms: O_21  and  C_8 
REMARK    5  A    between atoms: O_22  and  C_16 
REMARK    6  A    between atoms: C_18  and  C_17 
REMARK    7  A    between atoms: C_23  and  O_21 
REMARK    8  A    between atoms: C_24  and  O_22 
ROOT
ATOM      1  S   UNL d   1      32.306  17.701 -23.140  0.00  0.00     0.287 S 
ATOM      2  O   UNL d   1      31.933  17.106 -22.713  0.00  0.00    -0.198 OA
ATOM      3  O   UNL d   1      32.810  17.842 -22.480  0.00  0.00    -0.198 OA
ENDROOT
BRANCH   1   4
ATOM      4  C   UNL d   1      31.808  17.564 -23.800  0.00  0.00     0.130 A 
ATOM      5  C   UNL d   1      31.096  17.974 -23.877  0.00  0.00     0.040 A 
ATOM      6  C   UNL d   1      30.617  17.832 -24.525  0.00  0.00     0.101 A 
ATOM      7  C   UNL d   1      30.842  17.288 -25.096  0.00  0.00     0.027 A 
ATOM      8  C   UNL d   1      31.551  16.870 -25.034  0.00  0.00     0.028 A 
ATOM      9  C   UNL d   1      32.033  17.019 -24.371  0.00  0.00     0.112 A 
BRANCH   6  10
ATOM     10  O   UNL d   1      29.886  18.260 -24.593  0.00  0.00    -0.305 OA
BRANCH  10  11
ATOM     11  C   UNL d   1      29.207  17.903 -24.930  0.00  0.00     0.123 C 
ATOM     12  C   UNL d   1      28.495  18.313 -24.924  0.00  0.00     0.029 C 
ENDBRANCH  10  11
ENDBRANCH   6  10
BRANCH   9  13
ATOM     13  O   UNL d   1      32.777  16.587 -24.298  0.00  0.00    -0.304 OA
BRANCH  13  14
ATOM     14  C   UNL d   1      32.788  15.756 -24.435  0.00  0.00     0.123 C 
ATOM     15  C   UNL d   1      33.238  15.453 -25.060  0.00  0.00     0.029 C 
ENDBRANCH  13  14
ENDBRANCH   9  13
ENDBRANCH   1   4
BRANCH   1  16
ATOM     16  N   UNL d   1      32.697  18.311 -23.565  0.00  0.00    -0.157 NA
BRANCH  16  17
ATOM     17  C   UNL d   1      33.240  18.820 -23.175  0.00  0.00     0.112 C 
BRANCH  17  18
ATOM     18  C   UNL d   1      33.239  19.649 -23.368  0.00  0.00     0.022 A 
ATOM     19  C   UNL d   1      33.238  19.865 -24.169  0.00  0.00     0.028 A 
ATOM     20  C   UNL d   1      33.238  20.668 -24.363  0.00  0.00     0.119 A 
ATOM     21  O   UNL d   1      33.236  21.050 -25.097  0.00  0.00    -0.300 OA
ATOM     22  C   UNL d   1      33.239  21.241 -23.777  0.00  0.00     0.119 A 
ATOM     23  C   UNL d   1      33.237  21.859 -24.947  0.00  0.00     0.304 A 
ATOM     24  O   UNL d   1      33.238  21.978 -24.147  0.00  0.00    -0.300 OA
ATOM     25  C   UNL d   1      33.240  21.022 -22.984  0.00  0.00     0.026 A 
ATOM     26  C   UNL d   1      33.240  20.222 -22.782  0.00  0.00     0.004 A 
ENDBRANCH  17  18
ENDBRANCH  16  17
ENDBRANCH   1  16
TORSDOF 8
ENDMDL
MODEL 2
REMARK VINA RESULT:      -0.6      3.176      5.876
REMARK  8 active torsions:
REMARK  status: ('A' for Active; 'I' for Inactive)
REMARK    1  A    between atoms: C_2  and  S_1 
REMARK    2  A    between atoms: N_3  and  S_1 
REMARK    3  A    between atoms: C_17  and  N_3 
REMARK    4  A    between atoms: O_21  and  C_8 
REMARK    5  A    between atoms: O_22  and  C_16 
REMARK    6  A    between atoms: C_18  and  C_17 
REMARK    7  A    between atoms: C_23  and  O_21 
REMARK    8  A    between atoms: C_24  and  O_22 
ROOT
ATOM      1  S   UNL d   1      31.946  21.638 -20.964  0.00  0.00     0.287 S 
ATOM      2  O   UNL d   1      31.239  21.811 -20.581  0.00  0.00    -0.198 OA
ATOM      3  O   UNL d   1      31.594  20.939 -21.273  0.00  0.00    -0.198 OA
ENDROOT
BRANCH   1   4
ATOM      4  C   UNL d   1      32.301  22.334 -20.659  0.00  0.00     0.130 A 
ATOM      5  C   UNL d   1      32.596  22.347 -19.888  0.00  0.00     0.040 A 
ATOM      6  C   UNL d   1      32.941  23.032 -19.601  0.00  0.00     0.101 A 
ATOM      7  C   UNL d   1      32.994  23.700 -20.073  0.00  0.00     0.027 A 
ATOM      8  C   UNL d   1      32.704  23.702 -20.847  0.00  0.00     0.028 A 
ATOM      9  C   UNL d   1      32.354  23.002 -21.131  0.00  0.00     0.112 A 
BRANCH   6  10
ATOM     10  O   UNL d   1      33.241  23.034 -18.805  0.00  0.00    -0.305 OA
BRANCH  10  11
ATOM     11  C   UNL d   1      32.733  23.171 -18.153  0.00  0.00     0.123 C 
ATOM     12  C   UNL d   1      33.060  23.381 -17.430  0.00  0.00     0.029 C 
ENDBRANCH  10  11
ENDBRANCH   6  10
BRANCH   9  13
ATOM     13  O   UNL d   1      32.047  22.995 -21.940  0.00  0.00    -0.304 OA
BRANCH  13  14
ATOM     14  C   UNL d   1      32.211  23.645 -22.449  0.00  0.00     0.123 C 
ATOM     15  C   UNL d   1      31.879  23.660 -23.208  0.00  0.00     0.029 C 
ENDBRANCH  13  14
ENDBRANCH   9  13
ENDBRANCH   1   4
BRANCH   1  16
ATOM     16  N   UNL d   1      32.663  21.450 -21.360  0.00  0.00    -0.157 NA
BRANCH  16  17
ATOM     17  C   UNL d   1      32.994  20.681 -21.295  0.00  0.00     0.112 C 
BRANCH  17  18
ATOM     18  C   UNL d   1      33.053  20.197 -21.993  0.00  0.00     0.022 A 
ATOM     19  C   UNL d   1      33.082  19.374 -21.898  0.00  0.00     0.028 A 
ATOM     20  C   UNL d   1      33.139  18.899 -22.571  0.00  0.00     0.119 A 
ATOM     21  O   UNL d   1      33.178  18.077 -22.655  0.00  0.00    -0.300 OA
ATOM     22  C   UNL d   1      33.168  19.234 -23.319  0.00  0.00     0.119 A 
ATOM     23  C   UNL d   1      33.230  17.919 -23.460  0.00  0.00     0.304 A 
ATOM     24  O   UNL d   1      33.224  18.619 -23.866  0.00  0.00    -0.300 OA
ATOM     25  C   UNL d   1      33.139  20.050 -23.408  0.00  0.00     0.026 A 
ATOM     26  C   UNL d   1      33.081  20.532 -22.741  0.00  0.00     0.004 A 
ENDBRANCH  17  18
ENDBRANCH  16  17
ENDBRANCH   1  16
TORSDOF 8
ENDMDL
