MODEL 1
REMARK VINA RESULT:      65.0      0.000      0.000
REMARK  4 active torsions:
REMARK  status: ('A' for Active; 'I' for Inactive)
REMARK    1  A    between atoms: N_3  and  S_1 
REMARK    2  A    between atoms: C_5  and  S_1 
REMARK    3  A    between atoms: C_2  and  C_9 
REMARK       I    between atoms: N_4  and  C_2 
REMARK    4  A    between atoms: C_11  and  N_3 
ROOT
ATOM      1  C   UNL d   1      58.745  49.488  50.981  0.00  0.00     0.057 A 
ATOM      2  C   UNL d   1      60.345  49.275  50.652  0.00  0.00     0.094 A 
ATOM      3  C   UNL d   1      59.254  49.210  51.570  0.00  0.00     0.006 A 
ATOM      4  C   UNL d   1      59.033  49.659  50.227  0.00  0.00     0.006 A 
ATOM      5  C   UNL d   1      60.056  49.105  51.402  0.00  0.00     0.020 A 
ATOM      6  C   UNL d   1      59.828  49.555  50.058  0.00  0.00     0.020 A 
ENDROOT
BRANCH   2   7
ATOM      7  N   UNL d   1      61.140  49.171  50.483  0.00  0.00    -0.158 NA
BRANCH   7   8
ATOM      8  S   UNL d   1      61.428  48.416  50.306  0.00  0.00     0.285 S 
ATOM      9  O   UNL d   1      61.209  48.511  49.516  0.00  0.00    -0.198 OA
ATOM     10  O   UNL d   1      61.646  48.323  51.097  0.00  0.00    -0.198 OA
BRANCH   8  11
ATOM     11  C   UNL d   1      61.716  47.664  50.133  0.00  0.00     0.107 A 
ATOM     12  C   UNL d   1      61.273  46.995  50.336  0.00  0.00     0.043 A 
ATOM     13  C   UNL d   1      61.561  46.239  50.163  0.00  0.00     0.141 A 
ATOM     14  F   UNL d   1      61.120  45.561  50.365  0.00  0.00    -0.204 F 
ATOM     15  C   UNL d   1      62.290  46.154  49.788  0.00  0.00     0.030 A 
ATOM     16  C   UNL d   1      62.729  46.819  49.587  0.00  0.00     0.003 A 
ATOM     17  C   UNL d   1      62.445  47.575  49.757  0.00  0.00     0.013 A 
ENDBRANCH   8  11
ENDBRANCH   7   8
ENDBRANCH   2   7
BRANCH   1  18
ATOM     18  C   UNL d   1      57.929  49.597  51.146  0.00  0.00     0.265 C 
ATOM     19  N   UNL d   1      57.383  49.598  50.524  0.00  0.00    -0.272 N 
ATOM     20  C   UNL d   1      56.579  49.706  50.685  0.00  0.00     0.083 A 
ATOM     21  C   UNL d   1      57.634  49.493  49.750  0.00  0.00     0.083 A 
ATOM     22  C   UNL d   1      56.033  49.707  50.067  0.00  0.00     0.019 A 
ATOM     23  C   UNL d   1      56.297  49.601  49.301  0.00  0.00     0.003 A 
ATOM     24  C   UNL d   1      57.092  49.495  49.140  0.00  0.00     0.019 A 
ATOM     25  O   UNL d   1      57.677  49.703  51.932  0.00  0.00    -0.267 OA
ENDBRANCH   1  18
TORSDOF 4
ENDMDL
