MODEL 1
REMARK VINA RESULT:      34.9      0.000      0.000
REMARK  4 active torsions:
REMARK  status: ('A' for Active; 'I' for Inactive)
REMARK    1  A    between atoms: C_8  and  C_1 
REMARK    2  A    between atoms: C_10  and  C_7 
REMARK    3  A    between atoms: N_9  and  C_10 
REMARK    4  A    between atoms: O_23  and  C_15 
ROOT
ATOM      1  C   UNL d   1      45.373 -14.446  43.721  0.00  0.00     0.064 A 
ATOM      2  C   UNL d   1      45.873 -16.023  43.763  0.00  0.00     0.107 A 
ATOM      3  C   UNL d   1      45.106 -14.950  44.318  0.00  0.00     0.199 A 
ATOM      4  C   UNL d   1      45.355 -15.741  44.342  0.00  0.00     0.062 A 
ATOM      5  C   UNL d   1      45.897 -14.731  43.136  0.00  0.00     0.103 A 
ATOM      6  O   UNL d   1      46.148 -15.525  43.157  0.00  0.00    -0.307 OA
ATOM      7  C   UNL d   1      46.124 -16.810  43.781  0.00  0.00     0.079 A 
ATOM      8  C   UNL d   1      45.091 -16.247  44.936  0.00  0.00     0.009 A 
ATOM      9  C   UNL d   1      45.858 -17.305  44.374  0.00  0.00     0.199 A 
ATOM     10  O   UNL d   1      44.593 -14.670  44.891  0.00  0.00    -0.286 OA
ATOM     11  C   UNL d   1      45.340 -17.023  44.953  0.00  0.00     0.042 A 
ATOM     12  C   UNL d   1      46.163 -14.228  42.539  0.00  0.00     0.027 C 
ATOM     13  O   UNL d   1      46.109 -18.098  44.395  0.00  0.00    -0.286 OA
ENDROOT
BRANCH   1  14
ATOM     14  C   UNL d   1      45.121 -13.661  43.703  0.00  0.00     0.027 A 
ATOM     15  C   UNL d   1      45.570 -13.074  44.075  0.00  0.00     0.094 A 
ATOM     16  C   UNL d   1      45.312 -12.291  44.053  0.00  0.00     0.024 A 
ATOM     17  C   UNL d   1      44.612 -12.093  43.663  0.00  0.00     0.002 A 
ATOM     18  C   UNL d   1      44.166 -12.682  43.292  0.00  0.00     0.000 A 
ATOM     19  C   UNL d   1      44.417 -13.468  43.310  0.00  0.00     0.002 A 
BRANCH  15  20
ATOM     20  O   UNL d   1      46.269 -13.273  44.465  0.00  0.00    -0.328 OA
ATOM     21  C   UNL d   1      46.642 -12.717  44.950  0.00  0.00     0.181 C 
ENDBRANCH  15  20
ENDBRANCH   1  14
BRANCH   7  22
ATOM     22  C   UNL d   1      46.643 -17.092  43.202  0.00  0.00     0.086 C 
BRANCH  22  23
ATOM     23  N   UNL d   1      46.536 -17.844  42.883  0.00  0.00    -0.300 N 
ATOM     24  C   UNL d   1      46.525 -17.946  42.065  0.00  0.00     0.100 A 
ATOM     25  C   UNL d   1      46.417 -18.707  41.735  0.00  0.00     0.100 A 
ATOM     26  N   UNL d   1      46.322 -19.352  42.230  0.00  0.00    -0.299 N 
ATOM     27  C   UNL d   1      46.334 -19.243  43.058  0.00  0.00     0.100 A 
ATOM     28  C   UNL d   1      46.215 -20.107  41.921  0.00  0.00     0.100 C 
ATOM     29  C   UNL d   1      46.440 -18.490  43.378  0.00  0.00     0.100 A 
ENDBRANCH  22  23
ENDBRANCH   7  22
TORSDOF 4
ENDMDL
