MODEL 1
REMARK VINA RESULT:      -2.8      0.000      0.000
REMARK  4 active torsions:
REMARK  status: ('A' for Active; 'I' for Inactive)
REMARK    1  A    between atoms: C_2  and  C_1 
REMARK    2  A    between atoms: C_3  and  C_1 
REMARK       I    between atoms: N_7  and  C_2 
REMARK    3  A    between atoms: C_4  and  C_3 
REMARK    4  A    between atoms: C_13  and  N_7 
ROOT
ATOM      1  C   UNL d   1     -41.932-122.103 -51.079  0.00  0.00     0.128 C 
ATOM      2  C   UNL d   1     -42.740-121.978 -51.084  0.00  0.00     0.106 C 
ATOM      3  N   UNL d   1     -43.564-121.845 -51.090  0.00  0.00    -0.191 NA
ENDROOT
BRANCH   1   4
ATOM      4  C   UNL d   1     -41.404-121.504 -51.321  0.00  0.00     0.289 C 
ATOM      5  N   UNL d   1     -41.123-121.498 -52.093  0.00  0.00    -0.207 NA
ATOM      6  O   UNL d   1     -41.173-120.927 -50.779  0.00  0.00    -0.264 OA
BRANCH   5   7
ATOM      7  C   UNL d   1     -41.354-122.076 -52.635  0.00  0.00     0.085 A 
ATOM      8  C   UNL d   1     -41.123-122.860 -52.525  0.00  0.00     0.020 A 
ATOM      9  C   UNL d   1     -41.354-123.437 -53.067  0.00  0.00     0.008 A 
ATOM     10  C   UNL d   1     -41.815-123.231 -53.718  0.00  0.00     0.035 A 
ATOM     11  C   UNL d   1     -42.047-122.447 -53.828  0.00  0.00     0.008 A 
ATOM     12 BR   UNL d   1     -42.044-123.817 -54.259  0.00  0.00    -0.049 Br
ATOM     13  C   UNL d   1     -41.816-121.870 -53.287  0.00  0.00     0.020 A 
ENDBRANCH   5   7
ENDBRANCH   1   4
BRANCH   1  14
ATOM     14  C   UNL d   1     -41.632-122.831 -50.833  0.00  0.00     0.040 C 
BRANCH  14  15
ATOM     15  C   UNL d   1     -41.680-123.060 -50.038  0.00  0.00     0.101 A 
ATOM     16  O   UNL d   1     -42.143-122.802 -49.412  0.00  0.00    -0.307 OA
ATOM     17  C   UNL d   1     -41.934-123.249 -48.749  0.00  0.00     0.100 A 
ATOM     18  C   UNL d   1     -42.266-123.175 -47.983  0.00  0.00     0.027 C 
ATOM     19  C   UNL d   1     -41.351-123.776 -48.960  0.00  0.00     0.027 A 
ATOM     20  C   UNL d   1     -41.189-123.662 -49.764  0.00  0.00     0.027 A 
ENDBRANCH  14  15
ENDBRANCH   1  14
TORSDOF 4
ENDMDL
MODEL 2
REMARK VINA RESULT:      -2.2      1.655      3.642
REMARK  4 active torsions:
REMARK  status: ('A' for Active; 'I' for Inactive)
REMARK    1  A    between atoms: C_2  and  C_1 
REMARK    2  A    between atoms: C_3  and  C_1 
REMARK       I    between atoms: N_7  and  C_2 
REMARK    3  A    between atoms: C_4  and  C_3 
REMARK    4  A    between atoms: C_13  and  N_7 
ROOT
ATOM      1  C   UNL d   1     -41.870-122.059 -51.627  0.00  0.00     0.128 C 
ATOM      2  C   UNL d   1     -42.686-122.009 -51.655  0.00  0.00     0.106 C 
ATOM      3  N   UNL d   1     -43.518-121.954 -51.682  0.00  0.00    -0.191 NA
ENDROOT
BRANCH   1   4
ATOM      4  C   UNL d   1     -41.415-121.443 -51.297  0.00  0.00     0.289 C 
ATOM      5  N   UNL d   1     -41.264-121.439 -50.489  0.00  0.00    -0.207 NA
ATOM      6  O   UNL d   1     -41.123-120.848 -51.788  0.00  0.00    -0.264 OA
BRANCH   5   7
ATOM      7  C   UNL d   1     -41.556-122.034 -49.998  0.00  0.00     0.085 A 
ATOM      8  C   UNL d   1     -42.267-121.923 -49.594  0.00  0.00     0.020 A 
ATOM      9  C   UNL d   1     -42.559-122.518 -49.103  0.00  0.00     0.008 A 
ATOM     10  C   UNL d   1     -42.141-123.223 -49.015  0.00  0.00     0.035 A 
ATOM     11  C   UNL d   1     -41.430-123.334 -49.419  0.00  0.00     0.008 A 
ATOM     12 BR   UNL d   1     -42.441-123.817 -48.520  0.00  0.00    -0.049 Br
ATOM     13  C   UNL d   1     -41.138-122.740 -49.910  0.00  0.00     0.020 A 
ENDBRANCH   5   7
ENDBRANCH   1   4
BRANCH   1  14
ATOM     14  C   UNL d   1     -41.490-122.726 -51.929  0.00  0.00     0.040 C 
BRANCH  14  15
ATOM     15  C   UNL d   1     -41.459-122.860 -52.747  0.00  0.00     0.101 A 
ATOM     16  O   UNL d   1     -41.683-122.407 -53.394  0.00  0.00    -0.307 OA
ATOM     17  C   UNL d   1     -41.511-122.844 -54.074  0.00  0.00     0.100 A 
ATOM     18  C   UNL d   1     -41.648-122.598 -54.863  0.00  0.00     0.027 C 
ATOM     19  C   UNL d   1     -41.185-123.556 -53.853  0.00  0.00     0.027 A 
ATOM     20  C   UNL d   1     -41.150-123.570 -53.025  0.00  0.00     0.027 A 
ENDBRANCH  14  15
ENDBRANCH   1  14
TORSDOF 4
ENDMDL
MODEL 3
REMARK VINA RESULT:      -0.9      1.774      3.983
REMARK  4 active torsions:
REMARK  status: ('A' for Active; 'I' for Inactive)
REMARK    1  A    between atoms: C_2  and  C_1 
REMARK    2  A    between atoms: C_3  and  C_1 
REMARK       I    between atoms: N_7  and  C_2 
REMARK    3  A    between atoms: C_4  and  C_3 
REMARK    4  A    between atoms: C_13  and  N_7 
ROOT
ATOM      1  C   UNL d   1     -41.843-122.340 -52.274  0.00  0.00     0.128 C 
ATOM      2  C   UNL d   1     -41.491-123.070 -52.167  0.00  0.00     0.106 C 
ATOM      3  N   UNL d   1     -41.129-123.814 -52.056  0.00  0.00    -0.191 NA
ENDROOT
BRANCH   1   4
ATOM      4  C   UNL d   1     -41.552-121.663 -51.882  0.00  0.00     0.289 C 
ATOM      5  N   UNL d   1     -41.696-121.566 -51.079  0.00  0.00    -0.207 NA
ATOM      6  O   UNL d   1     -41.124-121.102 -52.309  0.00  0.00    -0.264 OA
BRANCH   5   7
ATOM      7  C   UNL d   1     -42.124-122.128 -50.652  0.00  0.00     0.085 A 
ATOM      8  C   UNL d   1     -42.935-122.029 -50.539  0.00  0.00     0.020 A 
ATOM      9  C   UNL d   1     -43.364-122.590 -50.112  0.00  0.00     0.008 A 
ATOM     10  C   UNL d   1     -42.981-123.250 -49.798  0.00  0.00     0.035 A 
ATOM     11  C   UNL d   1     -42.170-123.349 -49.911  0.00  0.00     0.008 A 
ATOM     12 BR   UNL d   1     -43.418-123.810 -49.369  0.00  0.00    -0.049 Br
ATOM     13  C   UNL d   1     -41.742-122.788 -50.337  0.00  0.00     0.020 A 
ENDBRANCH   5   7
ENDBRANCH   1   4
BRANCH   1  14
ATOM     14  C   UNL d   1     -42.495-122.268 -52.774  0.00  0.00     0.040 C 
BRANCH  14  15
ATOM     15  C   UNL d   1     -42.393-122.214 -53.595  0.00  0.00     0.101 A 
ATOM     16  O   UNL d   1     -41.797-122.467 -54.100  0.00  0.00    -0.307 OA
ATOM     17  C   UNL d   1     -42.012-122.248 -54.867  0.00  0.00     0.100 A 
ATOM     18  C   UNL d   1     -41.567-122.395 -55.562  0.00  0.00     0.027 C 
ATOM     19  C   UNL d   1     -42.730-121.865 -54.839  0.00  0.00     0.027 A 
ATOM     20  C   UNL d   1     -42.971-121.841 -54.047  0.00  0.00     0.027 A 
ENDBRANCH  14  15
ENDBRANCH   1  14
TORSDOF 4
ENDMDL
