MODEL 1
REMARK VINA RESULT:      -6.6      0.000      0.000
REMARK  3 active torsions:
REMARK  status: ('A' for Active; 'I' for Inactive)
REMARK       I    between atoms: C_2  and  N_1 
REMARK    1  A    between atoms: C_3  and  C_2 
REMARK    2  A    between atoms: S_5  and  C_3 
REMARK    3  A    between atoms: C_7  and  S_5 
ROOT
ATOM      1  C   UNL d   1     -48.373  12.293  22.995  0.00  0.00     0.125 C 
ENDROOT
BRANCH   1   2
ATOM      2  C   UNL d   1     -47.910  11.707  23.345  0.00  0.00     0.259 C 
ATOM      3  N   UNL d   1     -47.080  11.779  23.350  0.00  0.00    -0.268 N 
ATOM      4  C   UNL d   1     -46.731  12.441  23.002  0.00  0.00     0.110 A 
ATOM      5  C   UNL d   1     -46.609  11.199  23.698  0.00  0.00     0.110 A 
ATOM      6  C   UNL d   1     -45.910  12.521  23.001  0.00  0.00     0.142 A 
ATOM      7  O   UNL d   1     -45.439  11.941  23.349  0.00  0.00    -0.300 OA
ATOM      8  C   UNL d   1     -45.787  11.280  23.697  0.00  0.00     0.142 A 
ATOM      9  O   UNL d   1     -48.263  11.044  23.695  0.00  0.00    -0.267 OA
ENDBRANCH   1   2
BRANCH   1  10
ATOM     10  S   UNL d   1     -49.188  12.213  23.002  0.00  0.00    -0.095 SA
BRANCH  10  11
ATOM     11  C   UNL d   1     -49.658  12.770  22.615  0.00  0.00     0.029 A 
ATOM     12  C   UNL d   1     -50.015  13.377  23.044  0.00  0.00     0.007 A 
ATOM     13  C   UNL d   1     -50.484  13.934  22.658  0.00  0.00     0.012 A 
ATOM     14  C   UNL d   1     -50.597  13.884  21.843  0.00  0.00     0.058 A 
ATOM     15  C   UNL d   1     -50.240  13.277  21.413  0.00  0.00     0.012 A 
ATOM     16 CL   UNL d   1     -51.064  14.435  21.444  0.00  0.00    -0.082 Cl
ATOM     17  C   UNL d   1     -49.770  12.720  21.799  0.00  0.00     0.007 A 
ENDBRANCH  10  11
ENDBRANCH   1  10
TORSDOF 3
ENDMDL
MODEL 2
REMARK VINA RESULT:      -6.2      2.589      4.447
REMARK  3 active torsions:
REMARK  status: ('A' for Active; 'I' for Inactive)
REMARK       I    between atoms: C_2  and  N_1 
REMARK    1  A    between atoms: C_3  and  C_2 
REMARK    2  A    between atoms: S_5  and  C_3 
REMARK    3  A    between atoms: C_7  and  S_5 
ROOT
ATOM      1  C   UNL d   1     -48.290  13.814  22.534  0.00  0.00     0.125 C 
ENDROOT
BRANCH   1   2
ATOM      2  C   UNL d   1     -48.926  14.338  22.562  0.00  0.00     0.259 C 
ATOM      3  N   UNL d   1     -49.647  14.140  22.195  0.00  0.00    -0.268 N 
ATOM      4  C   UNL d   1     -49.714  13.415  21.804  0.00  0.00     0.110 A 
ATOM      5  C   UNL d   1     -50.288  14.657  22.218  0.00  0.00     0.110 A 
ATOM      6  C   UNL d   1     -50.423  13.210  21.437  0.00  0.00     0.142 A 
ATOM      7  O   UNL d   1     -51.064  13.727  21.460  0.00  0.00    -0.300 OA
ATOM      8  C   UNL d   1     -50.998  14.451  21.850  0.00  0.00     0.142 A 
ATOM      9  O   UNL d   1     -48.856  15.064  22.955  0.00  0.00    -0.267 OA
ENDBRANCH   1   2
BRANCH   1  10
ATOM     10  S   UNL d   1     -47.605  13.996  22.943  0.00  0.00    -0.095 SA
BRANCH  10  11
ATOM     11  C   UNL d   1     -46.967  13.473  22.930  0.00  0.00     0.029 A 
ATOM     12  C   UNL d   1     -46.281  13.669  22.519  0.00  0.00     0.007 A 
ATOM     13  C   UNL d   1     -45.643  13.146  22.506  0.00  0.00     0.012 A 
ATOM     14  C   UNL d   1     -45.693  12.426  22.906  0.00  0.00     0.058 A 
ATOM     15  C   UNL d   1     -46.381  12.229  23.318  0.00  0.00     0.012 A 
ATOM     16 CL   UNL d   1     -45.063  11.894  22.901  0.00  0.00    -0.082 Cl
ATOM     17  C   UNL d   1     -47.018  12.753  23.330  0.00  0.00     0.007 A 
ENDBRANCH  10  11
ENDBRANCH   1  10
TORSDOF 3
ENDMDL
MODEL 3
REMARK VINA RESULT:      -5.6      2.188      4.056
REMARK  3 active torsions:
REMARK  status: ('A' for Active; 'I' for Inactive)
REMARK       I    between atoms: C_2  and  N_1 
REMARK    1  A    between atoms: C_3  and  C_2 
REMARK    2  A    between atoms: S_5  and  C_3 
REMARK    3  A    between atoms: C_7  and  S_5 
ROOT
ATOM      1  C   UNL d   1     -48.229  12.894  22.818  0.00  0.00     0.125 C 
ENDROOT
BRANCH   1   2
ATOM      2  C   UNL d   1     -48.950  12.569  23.055  0.00  0.00     0.259 C 
ATOM      3  N   UNL d   1     -49.651  12.770  22.653  0.00  0.00    -0.268 N 
ATOM      4  C   UNL d   1     -49.614  13.297  22.018  0.00  0.00     0.110 A 
ATOM      5  C   UNL d   1     -50.375  12.451  22.882  0.00  0.00     0.110 A 
ATOM      6  C   UNL d   1     -50.303  13.503  21.614  0.00  0.00     0.142 A 
ATOM      7  O   UNL d   1     -51.027  13.184  21.843  0.00  0.00    -0.300 OA
ATOM      8  C   UNL d   1     -51.064  12.657  22.477  0.00  0.00     0.142 A 
ATOM      9  O   UNL d   1     -48.984  12.041  23.692  0.00  0.00    -0.267 OA
ENDBRANCH   1   2
BRANCH   1  10
ATOM     10  S   UNL d   1     -47.550  12.703  23.233  0.00  0.00    -0.095 SA
BRANCH  10  11
ATOM     11  C   UNL d   1     -46.811  12.895  22.921  0.00  0.00     0.029 A 
ATOM     12  C   UNL d   1     -46.627  13.681  22.753  0.00  0.00     0.007 A 
ATOM     13  C   UNL d   1     -45.888  13.874  22.442  0.00  0.00     0.012 A 
ATOM     14  C   UNL d   1     -45.334  13.280  22.298  0.00  0.00     0.058 A 
ATOM     15  C   UNL d   1     -45.518  12.494  22.466  0.00  0.00     0.012 A 
ATOM     16 CL   UNL d   1     -44.591  13.459  21.987  0.00  0.00    -0.082 Cl
ATOM     17  C   UNL d   1     -46.257  12.301  22.777  0.00  0.00     0.007 A 
ENDBRANCH  10  11
ENDBRANCH   1  10
TORSDOF 3
ENDMDL
MODEL 4
REMARK VINA RESULT:      -5.1      1.846      2.140
REMARK  3 active torsions:
REMARK  status: ('A' for Active; 'I' for Inactive)
REMARK       I    between atoms: C_2  and  N_1 
REMARK    1  A    between atoms: C_3  and  C_2 
REMARK    2  A    between atoms: S_5  and  C_3 
REMARK    3  A    between atoms: C_7  and  S_5 
ROOT
ATOM      1  C   UNL d   1     -47.734  13.394  22.765  0.00  0.00     0.125 C 
ENDROOT
BRANCH   1   2
ATOM      2  C   UNL d   1     -47.091  13.878  22.586  0.00  0.00     0.259 C 
ATOM      3  N   UNL d   1     -46.333  13.547  22.489  0.00  0.00    -0.268 N 
ATOM      4  C   UNL d   1     -46.237  12.731  22.574  0.00  0.00     0.110 A 
ATOM      5  C   UNL d   1     -45.685  14.022  22.310  0.00  0.00     0.110 A 
ATOM      6  C   UNL d   1     -45.490  12.393  22.479  0.00  0.00     0.142 A 
ATOM      7  O   UNL d   1     -44.842  12.868  22.300  0.00  0.00    -0.300 OA
ATOM      8  C   UNL d   1     -44.938  13.683  22.215  0.00  0.00     0.142 A 
ATOM      9  O   UNL d   1     -47.191  14.696  22.501  0.00  0.00    -0.267 OA
ENDBRANCH   1   2
BRANCH   1  10
ATOM     10  S   UNL d   1     -48.490  13.706  22.728  0.00  0.00    -0.095 SA
BRANCH  10  11
ATOM     11  C   UNL d   1     -49.135  13.247  22.961  0.00  0.00     0.029 A 
ATOM     12  C   UNL d   1     -49.706  13.565  23.464  0.00  0.00     0.007 A 
ATOM     13  C   UNL d   1     -50.351  13.106  23.697  0.00  0.00     0.012 A 
ATOM     14  C   UNL d   1     -50.424  12.331  23.427  0.00  0.00     0.058 A 
ATOM     15  C   UNL d   1     -49.853  12.013  22.924  0.00  0.00     0.012 A 
ATOM     16 CL   UNL d   1     -51.064  11.862  23.653  0.00  0.00    -0.082 Cl
ATOM     17  C   UNL d   1     -49.208  12.471  22.690  0.00  0.00     0.007 A 
ENDBRANCH  10  11
ENDBRANCH   1  10
TORSDOF 3
ENDMDL
MODEL 5
REMARK VINA RESULT:      -4.8      9.327     10.083
REMARK  3 active torsions:
REMARK  status: ('A' for Active; 'I' for Inactive)
REMARK       I    between atoms: C_2  and  N_1 
REMARK    1  A    between atoms: C_3  and  C_2 
REMARK    2  A    between atoms: S_5  and  C_3 
REMARK    3  A    between atoms: C_7  and  S_5 
ROOT
ATOM      1  C   UNL d   1     -40.031  14.883  19.423  0.00  0.00     0.125 C 
ENDROOT
BRANCH   1   2
ATOM      2  C   UNL d   1     -40.385  14.637  18.720  0.00  0.00     0.259 C 
ATOM      3  N   UNL d   1     -40.161  14.983  17.997  0.00  0.00    -0.268 N 
ATOM      4  C   UNL d   1     -39.583  15.573  17.994  0.00  0.00     0.110 A 
ATOM      5  C   UNL d   1     -40.509  14.745  17.289  0.00  0.00     0.110 A 
ATOM      6  C   UNL d   1     -39.354  15.922  17.283  0.00  0.00     0.142 A 
ATOM      7  O   UNL d   1     -39.702  15.683  16.575  0.00  0.00    -0.300 OA
ATOM      8  C   UNL d   1     -40.280  15.095  16.577  0.00  0.00     0.142 A 
ATOM      9  O   UNL d   1     -40.965  14.046  18.725  0.00  0.00    -0.267 OA
ENDBRANCH   1   2
BRANCH   1  10
ATOM     10  S   UNL d   1     -40.338  14.623  20.136  0.00  0.00    -0.095 SA
BRANCH  10  11
ATOM     11  C   UNL d   1     -40.012  14.890  20.845  0.00  0.00     0.029 A 
ATOM     12  C   UNL d   1     -40.172  15.654  21.111  0.00  0.00     0.007 A 
ATOM     13  C   UNL d   1     -39.846  15.921  21.820  0.00  0.00     0.012 A 
ATOM     14  C   UNL d   1     -39.360  15.424  22.263  0.00  0.00     0.058 A 
ATOM     15  C   UNL d   1     -39.199  14.659  21.997  0.00  0.00     0.012 A 
ATOM     16 CL   UNL d   1     -39.027  15.679  22.973  0.00  0.00    -0.082 Cl
ATOM     17  C   UNL d   1     -39.525  14.392  21.288  0.00  0.00     0.007 A 
ENDBRANCH  10  11
ENDBRANCH   1  10
TORSDOF 3
ENDMDL
MODEL 6
REMARK VINA RESULT:      -4.7      9.444     10.477
REMARK  3 active torsions:
REMARK  status: ('A' for Active; 'I' for Inactive)
REMARK       I    between atoms: C_2  and  N_1 
REMARK    1  A    between atoms: C_3  and  C_2 
REMARK    2  A    between atoms: S_5  and  C_3 
REMARK    3  A    between atoms: C_7  and  S_5 
ROOT
ATOM      1  C   UNL d   1     -39.653  14.780  19.144  0.00  0.00     0.125 C 
ENDROOT
BRANCH   1   2
ATOM      2  C   UNL d   1     -40.111  14.971  19.803  0.00  0.00     0.259 C 
ATOM      3  N   UNL d   1     -39.752  15.291  20.482  0.00  0.00    -0.268 N 
ATOM      4  C   UNL d   1     -38.935  15.412  20.487  0.00  0.00     0.110 A 
ATOM      5  C   UNL d   1     -40.201  15.485  21.145  0.00  0.00     0.110 A 
ATOM      6  C   UNL d   1     -38.570  15.727  21.155  0.00  0.00     0.142 A 
ATOM      7  O   UNL d   1     -39.019  15.922  21.818  0.00  0.00    -0.300 OA
ATOM      8  C   UNL d   1     -39.835  15.801  21.814  0.00  0.00     0.142 A 
ATOM      9  O   UNL d   1     -40.931  14.849  19.795  0.00  0.00    -0.267 OA
ENDBRANCH   1   2
BRANCH   1  10
ATOM     10  S   UNL d   1     -40.010  14.419  18.502  0.00  0.00    -0.095 SA
BRANCH  10  11
ATOM     11  C   UNL d   1     -39.563  14.235  17.833  0.00  0.00     0.029 A 
ATOM     12  C   UNL d   1     -39.529  14.764  17.202  0.00  0.00     0.007 A 
ATOM     13  C   UNL d   1     -39.082  14.580  16.533  0.00  0.00     0.012 A 
ATOM     14  C   UNL d   1     -38.669  13.868  16.497  0.00  0.00     0.058 A 
ATOM     15  C   UNL d   1     -38.702  13.338  17.130  0.00  0.00     0.012 A 
ATOM     16 CL   UNL d   1     -38.217  13.672  15.835  0.00  0.00    -0.082 Cl
ATOM     17  C   UNL d   1     -39.149  13.522  17.798  0.00  0.00     0.007 A 
ENDBRANCH  10  11
ENDBRANCH   1  10
TORSDOF 3
ENDMDL
MODEL 7
REMARK VINA RESULT:      -3.9      9.141      9.509
REMARK  3 active torsions:
REMARK  status: ('A' for Active; 'I' for Inactive)
REMARK       I    between atoms: C_2  and  N_1 
REMARK    1  A    between atoms: C_3  and  C_2 
REMARK    2  A    between atoms: S_5  and  C_3 
REMARK    3  A    between atoms: C_7  and  S_5 
ROOT
ATOM      1  C   UNL d   1     -39.851  14.495  20.175  0.00  0.00     0.125 C 
ENDROOT
BRANCH   1   2
ATOM      2  C   UNL d   1     -39.858  14.358  20.988  0.00  0.00     0.259 C 
ATOM      3  N   UNL d   1     -39.218  13.968  21.351  0.00  0.00    -0.268 N 
ATOM      4  C   UNL d   1     -38.581  13.722  20.887  0.00  0.00     0.110 A 
ATOM      5  C   UNL d   1     -39.216  13.827  22.162  0.00  0.00     0.110 A 
ATOM      6  C   UNL d   1     -37.942  13.335  21.236  0.00  0.00     0.142 A 
ATOM      7  O   UNL d   1     -37.940  13.194  22.048  0.00  0.00    -0.300 OA
ATOM      8  C   UNL d   1     -38.576  13.439  22.512  0.00  0.00     0.142 A 
ATOM      9  O   UNL d   1     -40.499  14.606  21.451  0.00  0.00    -0.267 OA
ENDBRANCH   1   2
BRANCH   1  10
ATOM     10  S   UNL d   1     -40.517  14.811  19.819  0.00  0.00    -0.095 SA
BRANCH  10  11
ATOM     11  C   UNL d   1     -40.511  14.977  19.010  0.00  0.00     0.029 A 
ATOM     12  C   UNL d   1     -40.442  15.756  18.750  0.00  0.00     0.007 A 
ATOM     13  C   UNL d   1     -40.435  15.922  17.942  0.00  0.00     0.012 A 
ATOM     14  C   UNL d   1     -40.498  15.308  17.395  0.00  0.00     0.058 A 
ATOM     15  C   UNL d   1     -40.567  14.528  17.655  0.00  0.00     0.012 A 
ATOM     16 CL   UNL d   1     -40.493  15.460  16.584  0.00  0.00    -0.082 Cl
ATOM     17  C   UNL d   1     -40.573  14.363  18.463  0.00  0.00     0.007 A 
ENDBRANCH  10  11
ENDBRANCH   1  10
TORSDOF 3
ENDMDL
