MODEL 1
REMARK VINA RESULT:      24.7      0.000      0.000
REMARK  4 active torsions:
REMARK  status: ('A' for Active; 'I' for Inactive)
REMARK    1  A    between atoms: C_2  and  C_1 
REMARK    2  A    between atoms: C_3  and  C_1 
REMARK       I    between atoms: N_6  and  C_2 
REMARK    3  A    between atoms: C_13  and  C_3 
REMARK    4  A    between atoms: C_8  and  N_6 
ROOT
ATOM      1  C   UNL d   1      13.959  12.314  -1.982  0.00  0.00     0.282 C 
ATOM      2  N   UNL d   1      13.472  12.947  -2.294  0.00  0.00    -0.208 NA
ATOM      3  O   UNL d   1      14.352  11.798  -2.495  0.00  0.00    -0.265 OA
ENDROOT
BRANCH   1   4
ATOM      4  C   UNL d   1      14.031  12.226  -1.173  0.00  0.00     0.104 C 
BRANCH   4   5
ATOM      5  C   UNL d   1      14.761  12.389  -0.809  0.00  0.00     0.200 C 
ATOM      6  O   UNL d   1      15.305  11.782  -0.672  0.00  0.00    -0.286 OA
BRANCH   5   7
ATOM      7  C   UNL d   1      14.934  13.160  -0.588  0.00  0.00     0.039 A 
ATOM      8  C   UNL d   1      14.352  13.628  -0.234  0.00  0.00     0.003 A 
ATOM      9  C   UNL d   1      14.536  14.404  -0.015  0.00  0.00     0.000 A 
ATOM     10  C   UNL d   1      15.287  14.703  -0.148  0.00  0.00     0.000 A 
ATOM     11  C   UNL d   1      15.871  14.227  -0.506  0.00  0.00     0.000 A 
ATOM     12  C   UNL d   1      15.698  13.455  -0.727  0.00  0.00     0.003 A 
ENDBRANCH   5   7
ENDBRANCH   4   5
ENDBRANCH   1   4
BRANCH   2  13
ATOM     13  C   UNL d   1      13.407  13.025  -3.132  0.00  0.00     0.087 A 
ATOM     14  C   UNL d   1      13.293  12.371  -3.597  0.00  0.00     0.046 A 
ATOM     15  C   UNL d   1      13.232  12.445  -4.393  0.00  0.00     0.124 A 
ATOM     16  O   UNL d   1      13.115  11.780  -4.882  0.00  0.00    -0.301 OA
ATOM     17  C   UNL d   1      13.284  13.196  -4.746  0.00  0.00     0.123 A 
ATOM     18  C   UNL d   1      13.052  11.850  -5.687  0.00  0.00     0.149 A 
ATOM     19  C   UNL d   1      13.105  12.601  -6.039  0.00  0.00     0.149 A 
ATOM     20  O   UNL d   1      13.220  13.274  -5.584  0.00  0.00    -0.301 OA
ATOM     21  C   UNL d   1      13.398  13.865  -4.298  0.00  0.00     0.028 A 
ATOM     22  C   UNL d   1      13.459  13.775  -3.485  0.00  0.00     0.021 A 
ENDBRANCH   2  13
TORSDOF 4
ENDMDL
