MODEL 1
REMARK VINA RESULT:      -9.0      0.000      0.000
REMARK  2 active torsions:
REMARK  status: ('A' for Active; 'I' for Inactive)
REMARK    1  A    between atoms: C_11  and  C_1 
REMARK    2  A    between atoms: C_13  and  C_11 
ROOT
ATOM      1  C   UNL d   1      53.609  32.725  53.931  0.00  0.00     0.058 A 
ATOM      2  C   UNL d   1      54.548  33.278  54.738  0.00  0.00    -0.008 A 
ATOM      3  C   UNL d   1      54.269  33.660  54.842  0.00  0.00    -0.008 A 
ATOM      4  C   UNL d   1      53.101  33.880  54.408  0.00  0.00     0.045 A 
ATOM      5  C   UNL d   1      54.118  33.069  54.396  0.00  0.00    -0.019 A 
ATOM      6  C   UNL d   1      54.409  32.634  54.266  0.00  0.00    -0.019 A 
ATOM      7  C   UNL d   1      52.966  33.242  53.941  0.00  0.00     0.021 A 
ATOM      8  C   UNL d   1      55.123  33.620  55.234  0.00  0.00    -0.001 A 
ATOM      9  C   UNL d   1      53.658  34.155  54.853  0.00  0.00    -0.022 A 
ATOM     10  C   UNL d   1      53.890  33.806  54.748  0.00  0.00    -0.022 A 
ENDROOT
BRANCH   1  11
ATOM     11  C   UNL d   1      53.171  32.250  53.418  0.00  0.00     0.004 C 
BRANCH  11  12
ATOM     12  C   UNL d   1      53.325  31.440  53.391  0.00  0.00     0.118 C 
ATOM     13  N   UNL d   1      52.882  30.952  52.886  0.00  0.00    -0.147 N 
ENDBRANCH  11  12
ENDBRANCH   1  11
TORSDOF 2
ENDMDL
MODEL 2
REMARK VINA RESULT:      -9.0      1.379      2.621
REMARK  2 active torsions:
REMARK  status: ('A' for Active; 'I' for Inactive)
REMARK    1  A    between atoms: C_11  and  C_1 
REMARK    2  A    between atoms: C_13  and  C_11 
ROOT
ATOM      1  C   UNL d   1      53.826  32.367  53.807  0.00  0.00     0.058 A 
ATOM      2  C   UNL d   1      53.403  31.124  53.471  0.00  0.00    -0.008 A 
ATOM      3  C   UNL d   1      53.045  31.294  53.192  0.00  0.00    -0.008 A 
ATOM      4  C   UNL d   1      52.770  32.512  52.981  0.00  0.00     0.045 A 
ATOM      5  C   UNL d   1      53.558  31.678  53.595  0.00  0.00    -0.019 A 
ATOM      6  C   UNL d   1      53.962  31.512  53.911  0.00  0.00    -0.019 A 
ATOM      7  C   UNL d   1      53.325  32.893  53.417  0.00  0.00     0.021 A 
ATOM      8  C   UNL d   1      53.141  30.361  53.263  0.00  0.00    -0.001 A 
ATOM      9  C   UNL d   1      52.566  31.793  52.818  0.00  0.00    -0.022 A 
ATOM     10  C   UNL d   1      52.890  31.662  53.072  0.00  0.00    -0.022 A 
ENDROOT
BRANCH   1  11
ATOM     11  C   UNL d   1      54.216  33.026  54.116  0.00  0.00     0.004 C 
BRANCH  11  12
ATOM     12  C   UNL d   1      54.471  33.012  54.900  0.00  0.00     0.118 C 
ATOM     13  N   UNL d   1      54.960  33.619  55.185  0.00  0.00    -0.147 N 
ENDBRANCH  11  12
ENDBRANCH   1  11
TORSDOF 2
ENDMDL
MODEL 3
REMARK VINA RESULT:      -8.9      1.202      1.765
REMARK  2 active torsions:
REMARK  status: ('A' for Active; 'I' for Inactive)
REMARK    1  A    between atoms: C_11  and  C_1 
REMARK    2  A    between atoms: C_13  and  C_11 
ROOT
ATOM      1  C   UNL d   1      53.150  33.468  53.921  0.00  0.00     0.058 A 
ATOM      2  C   UNL d   1      54.191  33.512  54.788  0.00  0.00    -0.008 A 
ATOM      3  C   UNL d   1      54.397  33.117  54.599  0.00  0.00    -0.008 A 
ATOM      4  C   UNL d   1      53.959  32.428  53.631  0.00  0.00     0.045 A 
ATOM      5  C   UNL d   1      53.755  33.461  54.396  0.00  0.00    -0.019 A 
ATOM      6  C   UNL d   1      53.506  33.898  54.590  0.00  0.00    -0.019 A 
ATOM      7  C   UNL d   1      53.282  32.812  53.437  0.00  0.00     0.021 A 
ATOM      8  C   UNL d   1      54.831  33.536  55.321  0.00  0.00    -0.001 A 
ATOM      9  C   UNL d   1      54.526  32.491  54.140  0.00  0.00    -0.022 A 
ATOM     10  C   UNL d   1      54.325  32.841  54.294  0.00  0.00    -0.022 A 
ENDROOT
BRANCH   1  11
ATOM     11  C   UNL d   1      52.459  33.600  53.488  0.00  0.00     0.004 C 
BRANCH  11  12
ATOM     12  C   UNL d   1      52.167  34.368  53.422  0.00  0.00     0.118 C 
ATOM     13  N   UNL d   1      51.458  34.506  53.014  0.00  0.00    -0.147 N 
ENDBRANCH  11  12
ENDBRANCH   1  11
TORSDOF 2
ENDMDL
MODEL 4
REMARK VINA RESULT:      -8.1      1.206      1.907
REMARK  2 active torsions:
REMARK  status: ('A' for Active; 'I' for Inactive)
REMARK    1  A    between atoms: C_11  and  C_1 
REMARK    2  A    between atoms: C_13  and  C_11 
ROOT
ATOM      1  C   UNL d   1      52.809  33.194  53.343  0.00  0.00     0.058 A 
ATOM      2  C   UNL d   1      52.888  34.483  53.753  0.00  0.00    -0.008 A 
ATOM      3  C   UNL d   1      52.507  34.617  53.486  0.00  0.00    -0.008 A 
ATOM      4  C   UNL d   1      51.814  33.870  52.735  0.00  0.00     0.045 A 
ATOM      5  C   UNL d   1      52.823  33.934  53.553  0.00  0.00    -0.019 A 
ATOM      6  C   UNL d   1      53.245  33.761  53.842  0.00  0.00    -0.019 A 
ATOM      7  C   UNL d   1      52.169  33.157  52.824  0.00  0.00     0.021 A 
ATOM      8  C   UNL d   1      52.935  35.276  54.004  0.00  0.00    -0.001 A 
ATOM      9  C   UNL d   1      51.895  34.586  52.992  0.00  0.00    -0.022 A 
ATOM     10  C   UNL d   1      52.233  34.445  53.223  0.00  0.00    -0.022 A 
ENDROOT
BRANCH   1  11
ATOM     11  C   UNL d   1      52.915  32.386  53.209  0.00  0.00     0.004 C 
BRANCH  11  12
ATOM     12  C   UNL d   1      53.513  31.987  53.614  0.00  0.00     0.118 C 
ATOM     13  N   UNL d   1      53.590  31.164  53.529  0.00  0.00    -0.147 N 
ENDBRANCH  11  12
ENDBRANCH   1  11
TORSDOF 2
ENDMDL
