MODEL 1
REMARK VINA RESULT:      -4.3      0.000      0.000
REMARK  3 active torsions:
REMARK  status: ('A' for Active; 'I' for Inactive)
REMARK    1  A    between atoms: S_10  and  C_6 
REMARK    2  A    between atoms: C_13  and  S_10 
REMARK    3  A    between atoms: C_14  and  C_13 
ROOT
ATOM      1  C   UNL d   1     -41.755-122.593 -51.462  0.00  0.00     0.141 A 
ATOM      2  O   UNL d   1     -42.102-123.312 -51.255  0.00  0.00    -0.303 OA
ATOM      3  C   UNL d   1     -41.758-122.103 -50.794  0.00  0.00     0.110 A 
ATOM      4  C   UNL d   1     -42.105-122.521 -50.177  0.00  0.00     0.043 A 
ATOM      5  C   UNL d   1     -42.320-123.269 -50.456  0.00  0.00     0.102 A 
ATOM      6  C   UNL d   1     -41.440-122.322 -52.169  0.00  0.00     0.137 A 
ATOM      7  N   UNL d   1     -41.123-121.557 -52.216  0.00  0.00    -0.215 NA
ATOM      8  N   UNL d   1     -41.442-121.346 -50.846  0.00  0.00    -0.222 NA
ATOM      9  C   UNL d   1     -41.126-121.075 -51.554  0.00  0.00     0.200 A 
ATOM     10  C   UNL d   1     -42.255-122.313 -49.389  0.00  0.00     0.004 A 
ATOM     11  C   UNL d   1     -42.684-123.814 -49.951  0.00  0.00     0.025 A 
ATOM     12  C   UNL d   1     -42.620-122.859 -48.884  0.00  0.00     0.000 A 
ATOM     13  C   UNL d   1     -42.832-123.603 -49.166  0.00  0.00     0.002 A 
ENDROOT
BRANCH   6  14
ATOM     14  S   UNL d   1     -41.434-122.807 -52.843  0.00  0.00    -0.065 SA
BRANCH  14  15
ATOM     15  C   UNL d   1     -41.275-122.475 -53.583  0.00  0.00     0.037 C 
BRANCH  15  16
ATOM     16  C   UNL d   1     -41.326-122.937 -54.263  0.00  0.00     0.007 C 
ATOM     17  C   UNL d   1     -41.492-122.577 -54.984  0.00  0.00     0.001 C 
ENDBRANCH  15  16
ENDBRANCH  14  15
ENDBRANCH   6  14
TORSDOF 3
ENDMDL
MODEL 2
REMARK VINA RESULT:      -3.7      1.431      2.040
REMARK  3 active torsions:
REMARK  status: ('A' for Active; 'I' for Inactive)
REMARK    1  A    between atoms: S_10  and  C_6 
REMARK    2  A    between atoms: C_13  and  S_10 
REMARK    3  A    between atoms: C_14  and  C_13 
ROOT
ATOM      1  C   UNL d   1     -41.724-122.431 -52.764  0.00  0.00     0.141 A 
ATOM      2  O   UNL d   1     -41.985-121.807 -52.291  0.00  0.00    -0.303 OA
ATOM      3  C   UNL d   1     -41.427-123.023 -52.269  0.00  0.00     0.110 A 
ATOM      4  C   UNL d   1     -41.504-122.765 -51.492  0.00  0.00     0.043 A 
ATOM      5  C   UNL d   1     -41.849-122.014 -51.499  0.00  0.00     0.102 A 
ATOM      6  C   UNL d   1     -41.720-122.533 -53.578  0.00  0.00     0.137 A 
ATOM      7  N   UNL d   1     -41.417-123.233 -53.906  0.00  0.00    -0.215 NA
ATOM      8  N   UNL d   1     -41.127-123.715 -52.599  0.00  0.00    -0.222 NA
ATOM      9  C   UNL d   1     -41.123-123.817 -53.414  0.00  0.00     0.200 A 
ATOM     10  C   UNL d   1     -41.303-123.122 -50.772  0.00  0.00     0.004 A 
ATOM     11  C   UNL d   1     -41.995-121.615 -50.790  0.00  0.00     0.025 A 
ATOM     12  C   UNL d   1     -41.449-122.722 -50.062  0.00  0.00     0.000 A 
ATOM     13  C   UNL d   1     -41.792-121.974 -50.074  0.00  0.00     0.002 A 
ENDROOT
BRANCH   6  14
ATOM     14  S   UNL d   1     -42.017-121.944 -54.081  0.00  0.00    -0.065 SA
BRANCH  14  15
ATOM     15  C   UNL d   1     -42.147-122.116 -54.879  0.00  0.00     0.037 C 
BRANCH  15  16
ATOM     16  C   UNL d   1     -42.586-121.599 -55.347  0.00  0.00     0.007 C 
ATOM     17  C   UNL d   1     -42.442-121.567 -56.157  0.00  0.00     0.001 C 
ENDBRANCH  15  16
ENDBRANCH  14  15
ENDBRANCH   6  14
TORSDOF 3
ENDMDL
MODEL 3
REMARK VINA RESULT:      -3.2      1.086      3.577
REMARK  3 active torsions:
REMARK  status: ('A' for Active; 'I' for Inactive)
REMARK    1  A    between atoms: S_10  and  C_6 
REMARK    2  A    between atoms: C_13  and  S_10 
REMARK    3  A    between atoms: C_14  and  C_13 
ROOT
ATOM      1  C   UNL d   1     -41.722-122.810 -51.185  0.00  0.00     0.141 A 
ATOM      2  O   UNL d   1     -41.841-123.501 -51.620  0.00  0.00    -0.303 OA
ATOM      3  C   UNL d   1     -41.446-122.225 -51.701  0.00  0.00     0.110 A 
ATOM      4  C   UNL d   1     -41.395-122.555 -52.452  0.00  0.00     0.043 A 
ATOM      5  C   UNL d   1     -41.638-123.343 -52.408  0.00  0.00     0.102 A 
ATOM      6  C   UNL d   1     -41.829-122.641 -50.390  0.00  0.00     0.137 A 
ATOM      7  N   UNL d   1     -41.660-121.881 -50.101  0.00  0.00    -0.215 NA
ATOM      8  N   UNL d   1     -41.280-121.474 -51.410  0.00  0.00    -0.222 NA
ATOM      9  C   UNL d   1     -41.387-121.304 -50.614  0.00  0.00     0.200 A 
ATOM     10  C   UNL d   1     -41.156-122.234 -53.178  0.00  0.00     0.004 A 
ATOM     11  C   UNL d   1     -41.644-123.817 -53.087  0.00  0.00     0.025 A 
ATOM     12  C   UNL d   1     -41.162-122.708 -53.857  0.00  0.00     0.000 A 
ATOM     13  C   UNL d   1     -41.405-123.493 -53.809  0.00  0.00     0.002 A 
ENDROOT
BRANCH   6  14
ATOM     14  S   UNL d   1     -42.106-123.222 -49.866  0.00  0.00    -0.065 SA
BRANCH  14  15
ATOM     15  C   UNL d   1     -41.889-123.190 -49.069  0.00  0.00     0.037 C 
BRANCH  15  16
ATOM     16  C   UNL d   1     -42.380-123.517 -48.494  0.00  0.00     0.007 C 
ATOM     17  C   UNL d   1     -42.123-123.545 -47.712  0.00  0.00     0.001 C 
ENDBRANCH  15  16
ENDBRANCH  14  15
ENDBRANCH   6  14
TORSDOF 3
ENDMDL
