MODEL 1
REMARK VINA RESULT:      27.4      0.000      0.000
REMARK  4 active torsions:
REMARK  status: ('A' for Active; 'I' for Inactive)
REMARK    1  A    between atoms: N_3  and  C_1 
REMARK       I    between atoms: C_7  and  N_3 
REMARK    2  A    between atoms: S_10  and  C_5 
REMARK    3  A    between atoms: C_9  and  C_7 
REMARK    4  A    between atoms: C_13  and  S_10 
ROOT
ATOM      1  N   UNL d   1     -52.009  25.720  33.310  0.00  0.00    -0.181 NA
ATOM      2  C   UNL d   1     -51.941  24.922  33.525  0.00  0.00     0.281 C 
ATOM      3  O   UNL d   1     -51.201  24.602  33.743  0.00  0.00    -0.265 OA
ENDROOT
BRANCH   1   4
ATOM      4  C   UNL d   1     -51.355  26.181  33.314  0.00  0.00     0.219 A 
ATOM      5  S   UNL d   1     -50.547  26.005  33.306  0.00  0.00    -0.019 SA
ATOM      6  C   UNL d   1     -50.130  26.718  33.315  0.00  0.00     0.165 A 
ATOM      7  N   UNL d   1     -50.658  27.317  33.329  0.00  0.00    -0.133 NA
ATOM      8  N   UNL d   1     -51.385  26.993  33.328  0.00  0.00    -0.120 NA
BRANCH   6   9
ATOM      9  S   UNL d   1     -49.293  26.825  33.312  0.00  0.00    -0.059 SA
BRANCH   9  10
ATOM     10  C   UNL d   1     -48.900  26.965  33.985  0.00  0.00     0.037 C 
ATOM     11  C   UNL d   1     -48.631  27.716  34.159  0.00  0.00     0.008 C 
ENDBRANCH   9  10
ENDBRANCH   6   9
ENDBRANCH   1   4
BRANCH   2  12
ATOM     12  C   UNL d   1     -52.645  24.442  33.517  0.00  0.00     0.058 A 
ATOM     13  C   UNL d   1     -52.630  23.638  33.694  0.00  0.00     0.005 A 
ATOM     14  C   UNL d   1     -53.345  23.195  33.676  0.00  0.00     0.000 A 
ATOM     15  C   UNL d   1     -54.061  23.549  33.485  0.00  0.00     0.000 A 
ATOM     16  C   UNL d   1     -54.086  24.348  33.306  0.00  0.00     0.000 A 
ATOM     17  C   UNL d   1     -53.371  24.802  33.322  0.00  0.00     0.005 A 
ENDBRANCH   2  12
TORSDOF 4
ENDMDL
MODEL 2
REMARK VINA RESULT:      30.0      0.932      1.251
REMARK  4 active torsions:
REMARK  status: ('A' for Active; 'I' for Inactive)
REMARK    1  A    between atoms: N_3  and  C_1 
REMARK       I    between atoms: C_7  and  N_3 
REMARK    2  A    between atoms: S_10  and  C_5 
REMARK    3  A    between atoms: C_9  and  C_7 
REMARK    4  A    between atoms: C_13  and  S_10 
ROOT
ATOM      1  N   UNL d   1     -51.384  25.956  33.499  0.00  0.00    -0.181 NA
ATOM      2  C   UNL d   1     -51.292  25.139  33.396  0.00  0.00     0.281 C 
ATOM      3  O   UNL d   1     -50.532  24.804  33.313  0.00  0.00    -0.265 OA
ENDROOT
BRANCH   1   4
ATOM      4  C   UNL d   1     -50.733  26.421  33.519  0.00  0.00     0.219 A 
ATOM      5  S   UNL d   1     -50.628  27.231  33.649  0.00  0.00    -0.019 SA
ATOM      6  C   UNL d   1     -49.819  27.395  33.602  0.00  0.00     0.165 A 
ATOM      7  N   UNL d   1     -49.434  26.712  33.447  0.00  0.00    -0.133 NA
ATOM      8  N   UNL d   1     -49.981  26.136  33.399  0.00  0.00    -0.120 NA
BRANCH   6   9
ATOM      9  S   UNL d   1     -49.439  28.142  33.696  0.00  0.00    -0.059 SA
BRANCH   9  10
ATOM     10  C   UNL d   1     -49.334  28.455  34.415  0.00  0.00     0.037 C 
ATOM     11  C   UNL d   1     -48.782  29.046  34.534  0.00  0.00     0.008 C 
ENDBRANCH   9  10
ENDBRANCH   6   9
ENDBRANCH   1   4
BRANCH   2  12
ATOM     12  C   UNL d   1     -51.993  24.654  33.377  0.00  0.00     0.058 A 
ATOM     13  C   UNL d   1     -52.749  24.977  33.322  0.00  0.00     0.005 A 
ATOM     14  C   UNL d   1     -53.418  24.467  33.306  0.00  0.00     0.000 A 
ATOM     15  C   UNL d   1     -53.333  23.652  33.343  0.00  0.00     0.000 A 
ATOM     16  C   UNL d   1     -52.585  23.321  33.398  0.00  0.00     0.000 A 
ATOM     17  C   UNL d   1     -51.906  23.826  33.415  0.00  0.00     0.005 A 
ENDBRANCH   2  12
TORSDOF 4
ENDMDL
