MODEL 1
REMARK VINA RESULT:      -8.0      0.000      0.000
REMARK  4 active torsions:
REMARK  status: ('A' for Active; 'I' for Inactive)
REMARK    1  A    between atoms: C_7  and  C_1 
REMARK    2  A    between atoms: C_8  and  C_7 
REMARK       I    between atoms: N_9  and  C_8 
REMARK    3  A    between atoms: C_14  and  N_9 
REMARK    4  A    between atoms: C_15  and  C_14 
ROOT
ATOM      1  C   UNL d   1     -48.479  12.144  22.673  0.00  0.00     0.032 A 
ATOM      2  C   UNL d   1     -48.962  12.755  22.394  0.00  0.00     0.025 A 
ATOM      3  C   UNL d   1     -48.773  11.389  22.522  0.00  0.00     0.123 A 
ATOM      4  O   UNL d   1     -49.555  11.594  22.085  0.00  0.00    -0.305 OA
ATOM      5  C   UNL d   1     -48.888  13.579  22.421  0.00  0.00     0.002 A 
ATOM      6  C   UNL d   1     -49.625  12.416  22.033  0.00  0.00     0.100 A 
ATOM      7  C   UNL d   1     -49.465  14.062  22.093  0.00  0.00     0.000 A 
ATOM      8  C   UNL d   1     -50.208  12.905  21.701  0.00  0.00     0.025 A 
ATOM      9  C   UNL d   1     -50.128  13.723  21.731  0.00  0.00     0.002 A 
ATOM     10  C   UNL d   1     -48.228  13.917  22.781  0.00  0.00     0.000 A 
ATOM     11  C   UNL d   1     -49.385  14.870  22.123  0.00  0.00     0.000 A 
ATOM     12  C   UNL d   1     -48.148  14.735  22.812  0.00  0.00     0.000 A 
ATOM     13  C   UNL d   1     -48.738  15.210  22.477  0.00  0.00     0.000 A 
ENDROOT
BRANCH   1  14
ATOM     14  C   UNL d   1     -47.759  12.235  23.070  0.00  0.00     0.065 C 
BRANCH  14  15
ATOM     15  C   UNL d   1     -47.354  11.571  23.351  0.00  0.00     0.279 C 
ATOM     16  N   UNL d   1     -46.533  11.533  23.285  0.00  0.00    -0.206 NA
ATOM     17  O   UNL d   1     -47.764  10.951  23.694  0.00  0.00    -0.265 OA
BRANCH  16  18
ATOM     18  C   UNL d   1     -46.128  10.880  23.561  0.00  0.00     0.102 C 
BRANCH  18  19
ATOM     19  C   UNL d   1     -45.312  10.808  23.438  0.00  0.00     0.019 A 
ATOM     20  C   UNL d   1     -44.926  10.131  23.695  0.00  0.00     0.002 A 
ATOM     21  C   UNL d   1     -44.116  10.054  23.576  0.00  0.00     0.000 A 
ATOM     22  C   UNL d   1     -43.692  10.653  23.201  0.00  0.00     0.000 A 
ATOM     23  C   UNL d   1     -44.093  11.338  22.943  0.00  0.00     0.000 A 
ATOM     24  C   UNL d   1     -44.900  11.408  23.065  0.00  0.00     0.002 A 
ENDBRANCH  18  19
ENDBRANCH  16  18
ENDBRANCH  14  15
ENDBRANCH   1  14
TORSDOF 4
ENDMDL
MODEL 2
REMARK VINA RESULT:      -7.6      1.207      1.977
REMARK  4 active torsions:
REMARK  status: ('A' for Active; 'I' for Inactive)
REMARK    1  A    between atoms: C_7  and  C_1 
REMARK    2  A    between atoms: C_8  and  C_7 
REMARK       I    between atoms: N_9  and  C_8 
REMARK    3  A    between atoms: C_14  and  N_9 
REMARK    4  A    between atoms: C_15  and  C_14 
ROOT
ATOM      1  C   UNL d   1     -47.785  13.179  22.955  0.00  0.00     0.032 A 
ATOM      2  C   UNL d   1     -48.607  13.243  22.886  0.00  0.00     0.025 A 
ATOM      3  C   UNL d   1     -47.372  13.828  22.656  0.00  0.00     0.123 A 
ATOM      4  O   UNL d   1     -48.067  14.354  22.366  0.00  0.00    -0.305 OA
ATOM      5  C   UNL d   1     -49.224  12.738  23.106  0.00  0.00     0.002 A 
ATOM      6  C   UNL d   1     -48.780  13.966  22.523  0.00  0.00     0.100 A 
ATOM      7  C   UNL d   1     -50.006  12.947  22.967  0.00  0.00     0.000 A 
ATOM      8  C   UNL d   1     -49.570  14.178  22.384  0.00  0.00     0.025 A 
ATOM      9  C   UNL d   1     -50.179  13.671  22.604  0.00  0.00     0.002 A 
ATOM     10  C   UNL d   1     -49.051  12.018  23.467  0.00  0.00     0.000 A 
ATOM     11  C   UNL d   1     -50.607  12.446  23.186  0.00  0.00     0.000 A 
ATOM     12  C   UNL d   1     -49.661  11.511  23.688  0.00  0.00     0.000 A 
ATOM     13  C   UNL d   1     -50.444  11.735  23.543  0.00  0.00     0.000 A 
ENDROOT
BRANCH   1  14
ATOM     14  C   UNL d   1     -47.371  12.544  23.286  0.00  0.00     0.065 C 
BRANCH  14  15
ATOM     15  C   UNL d   1     -46.551  12.587  23.381  0.00  0.00     0.279 C 
ATOM     16  N   UNL d   1     -46.088  11.916  23.258  0.00  0.00    -0.206 NA
ATOM     17  O   UNL d   1     -46.197  13.293  23.596  0.00  0.00    -0.265 OA
BRANCH  16  18
ATOM     18  C   UNL d   1     -45.277  11.953  23.351  0.00  0.00     0.102 C 
BRANCH  18  19
ATOM     19  C   UNL d   1     -44.823  11.261  23.361  0.00  0.00     0.019 A 
ATOM     20  C   UNL d   1     -44.066  11.273  23.046  0.00  0.00     0.002 A 
ATOM     21  C   UNL d   1     -43.610  10.589  23.052  0.00  0.00     0.000 A 
ATOM     22  C   UNL d   1     -43.910   9.893  23.374  0.00  0.00     0.000 A 
ATOM     23  C   UNL d   1     -44.682   9.889  23.692  0.00  0.00     0.000 A 
ATOM     24  C   UNL d   1     -45.130  10.574  23.682  0.00  0.00     0.002 A 
ENDBRANCH  18  19
ENDBRANCH  16  18
ENDBRANCH  14  15
ENDBRANCH   1  14
TORSDOF 4
ENDMDL
MODEL 3
REMARK VINA RESULT:      -7.5      1.249      1.603
REMARK  4 active torsions:
REMARK  status: ('A' for Active; 'I' for Inactive)
REMARK    1  A    between atoms: C_7  and  C_1 
REMARK    2  A    between atoms: C_8  and  C_7 
REMARK       I    between atoms: N_9  and  C_8 
REMARK    3  A    between atoms: C_14  and  N_9 
REMARK    4  A    between atoms: C_15  and  C_14 
ROOT
ATOM      1  C   UNL d   1     -49.399  12.662  22.748  0.00  0.00     0.032 A 
ATOM      2  C   UNL d   1     -49.927  13.240  22.481  0.00  0.00     0.025 A 
ATOM      3  C   UNL d   1     -49.413  11.965  22.307  0.00  0.00     0.123 A 
ATOM      4  O   UNL d   1     -50.054  12.171  21.682  0.00  0.00    -0.305 OA
ATOM      5  C   UNL d   1     -50.097  14.005  22.747  0.00  0.00     0.002 A 
ATOM      6  C   UNL d   1     -50.330  12.938  21.824  0.00  0.00     0.100 A 
ATOM      7  C   UNL d   1     -50.660  14.465  22.367  0.00  0.00     0.000 A 
ATOM      8  C   UNL d   1     -50.900  13.403  21.440  0.00  0.00     0.025 A 
ATOM      9  C   UNL d   1     -51.063  14.163  21.710  0.00  0.00     0.002 A 
ATOM     10  C   UNL d   1     -49.695  14.306  23.401  0.00  0.00     0.000 A 
ATOM     11  C   UNL d   1     -50.821  15.215  22.634  0.00  0.00     0.000 A 
ATOM     12  C   UNL d   1     -49.859  15.065  23.671  0.00  0.00     0.000 A 
ATOM     13  C   UNL d   1     -50.429  15.519  23.278  0.00  0.00     0.000 A 
ENDROOT
BRANCH   1  14
ATOM     14  C   UNL d   1     -48.886  12.732  23.392  0.00  0.00     0.065 C 
BRANCH  14  15
ATOM     15  C   UNL d   1     -48.200  12.271  23.429  0.00  0.00     0.279 C 
ATOM     16  N   UNL d   1     -47.465  12.618  23.290  0.00  0.00    -0.206 NA
ATOM     17  O   UNL d   1     -48.248  11.473  23.602  0.00  0.00    -0.265 OA
BRANCH  16  18
ATOM     18  C   UNL d   1     -46.785  12.168  23.324  0.00  0.00     0.102 C 
BRANCH  18  19
ATOM     19  C   UNL d   1     -46.093  12.421  22.946  0.00  0.00     0.019 A 
ATOM     20  C   UNL d   1     -45.438  11.928  22.935  0.00  0.00     0.002 A 
ATOM     21  C   UNL d   1     -44.748  12.173  22.561  0.00  0.00     0.000 A 
ATOM     22  C   UNL d   1     -44.713  12.912  22.198  0.00  0.00     0.000 A 
ATOM     23  C   UNL d   1     -45.384  13.408  22.214  0.00  0.00     0.000 A 
ATOM     24  C   UNL d   1     -46.068  13.156  22.588  0.00  0.00     0.002 A 
ENDBRANCH  18  19
ENDBRANCH  16  18
ENDBRANCH  14  15
ENDBRANCH   1  14
TORSDOF 4
ENDMDL
MODEL 4
REMARK VINA RESULT:      -7.3      1.084      1.390
REMARK  4 active torsions:
REMARK  status: ('A' for Active; 'I' for Inactive)
REMARK    1  A    between atoms: C_7  and  C_1 
REMARK    2  A    between atoms: C_8  and  C_7 
REMARK       I    between atoms: N_9  and  C_8 
REMARK    3  A    between atoms: C_14  and  N_9 
REMARK    4  A    between atoms: C_15  and  C_14 
ROOT
ATOM      1  C   UNL d   1     -48.198  12.399  22.982  0.00  0.00     0.032 A 
ATOM      2  C   UNL d   1     -48.900  12.780  22.765  0.00  0.00     0.025 A 
ATOM      3  C   UNL d   1     -48.241  11.576  22.957  0.00  0.00     0.123 A 
ATOM      4  O   UNL d   1     -49.110  11.458  22.681  0.00  0.00    -0.305 OA
ATOM      5  C   UNL d   1     -49.106  13.579  22.711  0.00  0.00     0.002 A 
ATOM      6  C   UNL d   1     -49.462  12.200  22.580  0.00  0.00     0.100 A 
ATOM      7  C   UNL d   1     -49.860  13.802  22.476  0.00  0.00     0.000 A 
ATOM      8  C   UNL d   1     -50.224  12.426  22.342  0.00  0.00     0.025 A 
ATOM      9  C   UNL d   1     -50.422  13.222  22.290  0.00  0.00     0.002 A 
ATOM     10  C   UNL d   1     -48.548  14.156  22.896  0.00  0.00     0.000 A 
ATOM     11  C   UNL d   1     -50.055  14.589  22.425  0.00  0.00     0.000 A 
ATOM     12  C   UNL d   1     -48.746  14.953  22.844  0.00  0.00     0.000 A 
ATOM     13  C   UNL d   1     -49.510  15.164  22.606  0.00  0.00     0.000 A 
ENDROOT
BRANCH   1  14
ATOM     14  C   UNL d   1     -47.495  12.769  23.210  0.00  0.00     0.065 C 
BRANCH  14  15
ATOM     15  C   UNL d   1     -46.792  12.334  23.250  0.00  0.00     0.279 C 
ATOM     16  N   UNL d   1     -46.126  12.591  22.838  0.00  0.00    -0.206 NA
ATOM     17  O   UNL d   1     -46.755  11.650  23.698  0.00  0.00    -0.265 OA
BRANCH  16  18
ATOM     18  C   UNL d   1     -45.430  12.166  22.874  0.00  0.00     0.102 C 
BRANCH  18  19
ATOM     19  C   UNL d   1     -44.782  12.378  22.404  0.00  0.00     0.019 A 
ATOM     20  C   UNL d   1     -44.108  11.912  22.416  0.00  0.00     0.002 A 
ATOM     21  C   UNL d   1     -43.461  12.117  21.951  0.00  0.00     0.000 A 
ATOM     22  C   UNL d   1     -43.489  12.788  21.474  0.00  0.00     0.000 A 
ATOM     23  C   UNL d   1     -44.180  13.257  21.467  0.00  0.00     0.000 A 
ATOM     24  C   UNL d   1     -44.820  13.046  21.933  0.00  0.00     0.002 A 
ENDBRANCH  18  19
ENDBRANCH  16  18
ENDBRANCH  14  15
ENDBRANCH   1  14
TORSDOF 4
ENDMDL
MODEL 5
REMARK VINA RESULT:      -6.6      1.938      5.271
REMARK  4 active torsions:
REMARK  status: ('A' for Active; 'I' for Inactive)
REMARK    1  A    between atoms: C_7  and  C_1 
REMARK    2  A    between atoms: C_8  and  C_7 
REMARK       I    between atoms: N_9  and  C_8 
REMARK    3  A    between atoms: C_14  and  N_9 
REMARK    4  A    between atoms: C_15  and  C_14 
ROOT
ATOM      1  C   UNL d   1     -46.205  13.609  22.511  0.00  0.00     0.032 A 
ATOM      2  C   UNL d   1     -45.715  12.949  22.604  0.00  0.00     0.025 A 
ATOM      3  C   UNL d   1     -45.855  14.232  22.100  0.00  0.00     0.123 A 
ATOM      4  O   UNL d   1     -45.026  13.876  21.924  0.00  0.00    -0.305 OA
ATOM      5  C   UNL d   1     -45.831  12.216  22.971  0.00  0.00     0.002 A 
ATOM      6  C   UNL d   1     -44.988  13.113  22.242  0.00  0.00     0.100 A 
ATOM      7  C   UNL d   1     -45.234  11.653  22.978  0.00  0.00     0.000 A 
ATOM      8  C   UNL d   1     -44.385  12.544  22.250  0.00  0.00     0.025 A 
ATOM      9  C   UNL d   1     -44.508  11.817  22.617  0.00  0.00     0.002 A 
ATOM     10  C   UNL d   1     -46.554  12.052  23.331  0.00  0.00     0.000 A 
ATOM     11  C   UNL d   1     -45.356  10.935  23.341  0.00  0.00     0.000 A 
ATOM     12  C   UNL d   1     -46.676  11.325  23.697  0.00  0.00     0.000 A 
ATOM     13  C   UNL d   1     -46.066  10.766  23.698  0.00  0.00     0.000 A 
ENDROOT
BRANCH   1  14
ATOM     14  C   UNL d   1     -46.980  13.682  22.789  0.00  0.00     0.065 C 
BRANCH  14  15
ATOM     15  C   UNL d   1     -47.380  14.402  22.719  0.00  0.00     0.279 C 
ATOM     16  N   UNL d   1     -48.187  14.443  22.885  0.00  0.00    -0.206 NA
ATOM     17  O   UNL d   1     -46.978  15.076  22.485  0.00  0.00    -0.265 OA
BRANCH  16  18
ATOM     18  C   UNL d   1     -48.586  15.151  22.817  0.00  0.00     0.102 C 
BRANCH  18  19
ATOM     19  C   UNL d   1     -49.408  15.183  22.917  0.00  0.00     0.019 A 
ATOM     20  C   UNL d   1     -49.894  14.843  22.351  0.00  0.00     0.002 A 
ATOM     21  C   UNL d   1     -50.710  14.871  22.444  0.00  0.00     0.000 A 
ATOM     22  C   UNL d   1     -51.040  15.239  23.103  0.00  0.00     0.000 A 
ATOM     23  C   UNL d   1     -50.538  15.582  23.675  0.00  0.00     0.000 A 
ATOM     24  C   UNL d   1     -49.726  15.550  23.575  0.00  0.00     0.002 A 
ENDBRANCH  18  19
ENDBRANCH  16  18
ENDBRANCH  14  15
ENDBRANCH   1  14
TORSDOF 4
ENDMDL
MODEL 6
REMARK VINA RESULT:      -5.9      1.438      4.835
REMARK  4 active torsions:
REMARK  status: ('A' for Active; 'I' for Inactive)
REMARK    1  A    between atoms: C_7  and  C_1 
REMARK    2  A    between atoms: C_8  and  C_7 
REMARK       I    between atoms: N_9  and  C_8 
REMARK    3  A    between atoms: C_14  and  N_9 
REMARK    4  A    between atoms: C_15  and  C_14 
ROOT
ATOM      1  C   UNL d   1     -47.081  11.996  23.238  0.00  0.00     0.032 A 
ATOM      2  C   UNL d   1     -46.276  11.915  23.070  0.00  0.00     0.025 A 
ATOM      3  C   UNL d   1     -47.411  11.348  23.627  0.00  0.00     0.123 A 
ATOM      4  O   UNL d   1     -46.677  10.799  23.696  0.00  0.00    -0.305 OA
ATOM      5  C   UNL d   1     -45.731  12.414  22.696  0.00  0.00     0.002 A 
ATOM      6  C   UNL d   1     -46.026  11.177  23.352  0.00  0.00     0.100 A 
ATOM      7  C   UNL d   1     -44.949  12.185  22.603  0.00  0.00     0.000 A 
ATOM      8  C   UNL d   1     -45.235  10.946  23.257  0.00  0.00     0.025 A 
ATOM      9  C   UNL d   1     -44.700  11.447  22.885  0.00  0.00     0.002 A 
ATOM     10  C   UNL d   1     -45.980  13.148  22.415  0.00  0.00     0.000 A 
ATOM     11  C   UNL d   1     -44.421  12.680  22.234  0.00  0.00     0.000 A 
ATOM     12  C   UNL d   1     -45.444  13.649  22.042  0.00  0.00     0.000 A 
ATOM     13  C   UNL d   1     -44.658  13.405  21.955  0.00  0.00     0.000 A 
ENDROOT
BRANCH   1  14
ATOM     14  C   UNL d   1     -47.554  12.649  23.053  0.00  0.00     0.065 C 
BRANCH  14  15
ATOM     15  C   UNL d   1     -48.371  12.617  23.172  0.00  0.00     0.279 C 
ATOM     16  N   UNL d   1     -48.833  13.287  23.035  0.00  0.00    -0.206 NA
ATOM     17  O   UNL d   1     -48.724  11.924  23.427  0.00  0.00    -0.265 OA
BRANCH  16  18
ATOM     18  C   UNL d   1     -49.641  13.261  23.151  0.00  0.00     0.102 C 
BRANCH  18  19
ATOM     19  C   UNL d   1     -50.106  13.933  23.022  0.00  0.00     0.019 A 
ATOM     20  C   UNL d   1     -50.064  14.558  23.551  0.00  0.00     0.002 A 
ATOM     21  C   UNL d   1     -50.524  15.228  23.429  0.00  0.00     0.000 A 
ATOM     22  C   UNL d   1     -51.026  15.274  22.778  0.00  0.00     0.000 A 
ATOM     23  C   UNL d   1     -51.063  14.633  22.244  0.00  0.00     0.000 A 
ATOM     24  C   UNL d   1     -50.602  13.969  22.373  0.00  0.00     0.002 A 
ENDBRANCH  18  19
ENDBRANCH  16  18
ENDBRANCH  14  15
ENDBRANCH   1  14
TORSDOF 4
ENDMDL
MODEL 7
REMARK VINA RESULT:      -5.7      3.073      4.295
REMARK  4 active torsions:
REMARK  status: ('A' for Active; 'I' for Inactive)
REMARK    1  A    between atoms: C_7  and  C_1 
REMARK    2  A    between atoms: C_8  and  C_7 
REMARK       I    between atoms: N_9  and  C_8 
REMARK    3  A    between atoms: C_14  and  N_9 
REMARK    4  A    between atoms: C_15  and  C_14 
ROOT
ATOM      1  C   UNL d   1     -44.764  12.499  22.470  0.00  0.00     0.032 A 
ATOM      2  C   UNL d   1     -45.507  12.538  22.831  0.00  0.00     0.025 A 
ATOM      3  C   UNL d   1     -44.344  11.810  22.639  0.00  0.00     0.123 A 
ATOM      4  O   UNL d   1     -44.941  11.377  23.187  0.00  0.00    -0.305 OA
ATOM      5  C   UNL d   1     -46.103  13.112  22.817  0.00  0.00     0.002 A 
ATOM      6  C   UNL d   1     -45.616  11.847  23.273  0.00  0.00     0.100 A 
ATOM      7  C   UNL d   1     -46.799  13.002  23.237  0.00  0.00     0.000 A 
ATOM      8  C   UNL d   1     -46.320  11.736  23.697  0.00  0.00     0.025 A 
ATOM      9  C   UNL d   1     -46.908  12.310  23.679  0.00  0.00     0.002 A 
ATOM     10  C   UNL d   1     -45.995  13.800  22.378  0.00  0.00     0.000 A 
ATOM     11  C   UNL d   1     -47.380  13.570  23.219  0.00  0.00     0.000 A 
ATOM     12  C   UNL d   1     -46.583  14.375  22.360  0.00  0.00     0.000 A 
ATOM     13  C   UNL d   1     -47.280  14.251  22.788  0.00  0.00     0.000 A 
ENDROOT
BRANCH   1  14
ATOM     14  C   UNL d   1     -44.431  13.075  21.978  0.00  0.00     0.065 C 
BRANCH  14  15
ATOM     15  C   UNL d   1     -43.718  12.924  21.587  0.00  0.00     0.279 C 
ATOM     16  N   UNL d   1     -43.143  13.514  21.538  0.00  0.00    -0.206 NA
ATOM     17  O   UNL d   1     -43.579  12.192  21.249  0.00  0.00    -0.265 OA
BRANCH  16  18
ATOM     18  C   UNL d   1     -42.438  13.371  21.154  0.00  0.00     0.102 C 
BRANCH  18  19
ATOM     19  C   UNL d   1     -41.865  13.966  21.090  0.00  0.00     0.019 A 
ATOM     20  C   UNL d   1     -41.072  13.766  21.138  0.00  0.00     0.002 A 
ATOM     21  C   UNL d   1     -40.498  14.352  21.075  0.00  0.00     0.000 A 
ATOM     22  C   UNL d   1     -40.719  15.138  20.964  0.00  0.00     0.000 A 
ATOM     23  C   UNL d   1     -41.529  15.333  20.916  0.00  0.00     0.000 A 
ATOM     24  C   UNL d   1     -42.094  14.744  20.980  0.00  0.00     0.002 A 
ENDBRANCH  18  19
ENDBRANCH  16  18
ENDBRANCH  14  15
ENDBRANCH   1  14
TORSDOF 4
ENDMDL
