MODEL 1
REMARK VINA RESULT:      -7.8      0.000      0.000
REMARK  3 active torsions:
REMARK  status: ('A' for Active; 'I' for Inactive)
REMARK    1  A    between atoms: N_5  and  C_1 
REMARK    2  A    between atoms: C_9  and  C_2 
REMARK       I    between atoms: C_8  and  N_5 
REMARK    3  A    between atoms: C_13  and  C_8 
ROOT
ATOM      1  C   UNL d   1     -47.249  12.117  23.192  0.00  0.00     0.156 A 
ATOM      2  C   UNL d   1     -46.699  12.678  22.932  0.00  0.00     0.091 A 
ATOM      3  N   UNL d   1     -46.989  11.369  23.438  0.00  0.00    -0.289 N 
ATOM      4  C   UNL d   1     -45.892  12.491  22.919  0.00  0.00     0.201 A 
ATOM      5  C   UNL d   1     -45.636  11.746  23.164  0.00  0.00     0.055 A 
ATOM      6  C   UNL d   1     -46.186  11.184  23.424  0.00  0.00     0.069 A 
ATOM      7  O   UNL d   1     -45.343  13.052  22.659  0.00  0.00    -0.286 OA
ATOM      8  C   UNL d   1     -47.539  10.808  23.697  0.00  0.00     0.101 C 
ATOM      9  C   UNL d   1     -44.833  11.561  23.150  0.00  0.00     0.005 A 
ATOM     10  C   UNL d   1     -45.930  10.439  23.669  0.00  0.00     0.018 A 
ATOM     11  C   UNL d   1     -44.577  10.806  23.399  0.00  0.00     0.000 A 
ATOM     12  C   UNL d   1     -45.121  10.250  23.656  0.00  0.00     0.002 A 
ENDROOT
BRANCH   1  13
ATOM     13  N   UNL d   1     -48.067  12.298  23.208  0.00  0.00    -0.190 NA
ATOM     14  C   UNL d   1     -48.642  11.768  22.939  0.00  0.00     0.280 C 
ATOM     15  O   UNL d   1     -48.394  11.038  22.645  0.00  0.00    -0.265 OA
BRANCH  14  16
ATOM     16  C   UNL d   1     -49.446  11.952  22.958  0.00  0.00     0.058 A 
ATOM     17  C   UNL d   1     -49.853  11.923  23.677  0.00  0.00     0.005 A 
ATOM     18  C   UNL d   1     -50.656  12.107  23.697  0.00  0.00     0.000 A 
ATOM     19  C   UNL d   1     -51.046  12.318  23.002  0.00  0.00     0.000 A 
ATOM     20  C   UNL d   1     -50.632  12.345  22.286  0.00  0.00     0.000 A 
ATOM     21  C   UNL d   1     -49.829  12.161  22.267  0.00  0.00     0.005 A 
ENDBRANCH  14  16
ENDBRANCH   1  13
BRANCH   2  22
ATOM     22  C   UNL d   1     -46.955  13.423  22.687  0.00  0.00     0.087 A 
ATOM     23  N   UNL d   1     -47.123  13.558  21.891  0.00  0.00    -0.244 NA
ATOM     24  C   UNL d   1     -47.381  14.312  21.642  0.00  0.00     0.099 A 
ATOM     25  C   UNL d   1     -47.466  14.922  22.205  0.00  0.00     0.021 A 
ATOM     26  C   UNL d   1     -47.297  14.781  22.996  0.00  0.00     0.003 A 
ATOM     27  C   UNL d   1     -47.042  14.033  23.238  0.00  0.00     0.019 A 
ENDBRANCH   2  22
TORSDOF 3
ENDMDL
MODEL 2
REMARK VINA RESULT:      -6.9      7.325      9.484
REMARK  3 active torsions:
REMARK  status: ('A' for Active; 'I' for Inactive)
REMARK    1  A    between atoms: N_5  and  C_1 
REMARK    2  A    between atoms: C_9  and  C_2 
REMARK       I    between atoms: C_8  and  N_5 
REMARK    3  A    between atoms: C_13  and  C_8 
ROOT
ATOM      1  C   UNL d   1     -39.378  14.093  19.650  0.00  0.00     0.156 A 
ATOM      2  C   UNL d   1     -40.046  14.502  19.384  0.00  0.00     0.091 A 
ATOM      3  N   UNL d   1     -38.837  13.785  19.103  0.00  0.00    -0.289 N 
ATOM      4  C   UNL d   1     -40.171  14.602  18.570  0.00  0.00     0.201 A 
ATOM      5  C   UNL d   1     -39.632  14.294  18.028  0.00  0.00     0.055 A 
ATOM      6  C   UNL d   1     -38.964  13.885  18.294  0.00  0.00     0.069 A 
ATOM      7  O   UNL d   1     -40.839  15.010  18.304  0.00  0.00    -0.286 OA
ATOM      8  C   UNL d   1     -38.169  13.376  19.370  0.00  0.00     0.101 C 
ATOM      9  C   UNL d   1     -39.759  14.394  17.219  0.00  0.00     0.005 A 
ATOM     10  C   UNL d   1     -38.424  13.578  17.752  0.00  0.00     0.018 A 
ATOM     11  C   UNL d   1     -39.210  14.081  16.671  0.00  0.00     0.000 A 
ATOM     12  C   UNL d   1     -38.549  13.677  16.935  0.00  0.00     0.002 A 
ENDROOT
BRANCH   1  13
ATOM     13  N   UNL d   1     -39.242  13.988  20.471  0.00  0.00    -0.190 NA
ATOM     14  C   UNL d   1     -38.531  14.206  20.833  0.00  0.00     0.280 C 
ATOM     15  O   UNL d   1     -37.940  14.539  20.364  0.00  0.00    -0.265 OA
BRANCH  14  16
ATOM     16  C   UNL d   1     -38.405  14.100  21.641  0.00  0.00     0.058 A 
ATOM     17  C   UNL d   1     -38.130  14.733  22.097  0.00  0.00     0.005 A 
ATOM     18  C   UNL d   1     -38.004  14.627  22.904  0.00  0.00     0.000 A 
ATOM     19  C   UNL d   1     -38.151  13.892  23.250  0.00  0.00     0.000 A 
ATOM     20  C   UNL d   1     -38.425  13.264  22.788  0.00  0.00     0.000 A 
ATOM     21  C   UNL d   1     -38.552  13.371  21.980  0.00  0.00     0.005 A 
ENDBRANCH  14  16
ENDBRANCH   1  13
BRANCH   2  22
ATOM     22  C   UNL d   1     -40.585  14.810  19.926  0.00  0.00     0.087 A 
ATOM     23  N   UNL d   1     -40.560  15.610  20.122  0.00  0.00    -0.244 NA
ATOM     24  C   UNL d   1     -41.106  15.922  20.671  0.00  0.00     0.099 A 
ATOM     25  C   UNL d   1     -41.674  15.416  21.016  0.00  0.00     0.021 A 
ATOM     26  C   UNL d   1     -41.693  14.620  20.817  0.00  0.00     0.003 A 
ATOM     27  C   UNL d   1     -41.151  14.316  20.273  0.00  0.00     0.019 A 
ENDBRANCH   2  22
TORSDOF 3
ENDMDL
MODEL 3
REMARK VINA RESULT:      -5.2      1.579      3.861
REMARK  3 active torsions:
REMARK  status: ('A' for Active; 'I' for Inactive)
REMARK    1  A    between atoms: N_5  and  C_1 
REMARK    2  A    between atoms: C_9  and  C_2 
REMARK       I    between atoms: C_8  and  N_5 
REMARK    3  A    between atoms: C_13  and  C_8 
ROOT
ATOM      1  C   UNL d   1     -48.600  12.991  22.694  0.00  0.00     0.156 A 
ATOM      2  C   UNL d   1     -49.187  13.573  22.710  0.00  0.00     0.091 A 
ATOM      3  N   UNL d   1     -48.778  12.218  22.934  0.00  0.00    -0.289 N 
ATOM      4  C   UNL d   1     -49.952  13.380  22.965  0.00  0.00     0.201 A 
ATOM      5  C   UNL d   1     -50.127  12.610  23.203  0.00  0.00     0.055 A 
ATOM      6  C   UNL d   1     -49.540  12.028  23.188  0.00  0.00     0.069 A 
ATOM      7  O   UNL d   1     -50.540  13.962  22.981  0.00  0.00    -0.286 OA
ATOM      8  C   UNL d   1     -48.190  11.636  22.919  0.00  0.00     0.101 C 
ATOM      9  C   UNL d   1     -50.889  12.421  23.457  0.00  0.00     0.005 A 
ATOM     10  C   UNL d   1     -49.714  11.258  23.426  0.00  0.00     0.018 A 
ATOM     11  C   UNL d   1     -51.063  11.640  23.698  0.00  0.00     0.000 A 
ATOM     12  C   UNL d   1     -50.481  11.064  23.683  0.00  0.00     0.002 A 
ENDROOT
BRANCH   1  13
ATOM     13  N   UNL d   1     -47.824  13.176  22.437  0.00  0.00    -0.190 NA
ATOM     14  C   UNL d   1     -47.151  12.951  22.864  0.00  0.00     0.280 C 
ATOM     15  O   UNL d   1     -47.256  12.529  23.565  0.00  0.00    -0.265 OA
BRANCH  14  16
ATOM     16  C   UNL d   1     -46.390  13.136  22.606  0.00  0.00     0.058 A 
ATOM     17  C   UNL d   1     -46.071  12.734  21.958  0.00  0.00     0.005 A 
ATOM     18  C   UNL d   1     -45.311  12.919  21.699  0.00  0.00     0.000 A 
ATOM     19  C   UNL d   1     -44.875  13.502  22.087  0.00  0.00     0.000 A 
ATOM     20  C   UNL d   1     -45.202  13.901  22.734  0.00  0.00     0.000 A 
ATOM     21  C   UNL d   1     -45.963  13.715  22.993  0.00  0.00     0.005 A 
ENDBRANCH  14  16
ENDBRANCH   1  13
BRANCH   2  22
ATOM     22  C   UNL d   1     -49.013  14.343  22.471  0.00  0.00     0.087 A 
ATOM     23  N   UNL d   1     -48.956  14.521  21.669  0.00  0.00    -0.244 NA
ATOM     24  C   UNL d   1     -48.780  15.300  21.427  0.00  0.00     0.099 A 
ATOM     25  C   UNL d   1     -48.661  15.892  22.005  0.00  0.00     0.021 A 
ATOM     26  C   UNL d   1     -48.719  15.707  22.802  0.00  0.00     0.003 A 
ATOM     27  C   UNL d   1     -48.894  14.934  23.037  0.00  0.00     0.019 A 
ENDBRANCH   2  22
TORSDOF 3
ENDMDL
