MODEL 1
REMARK VINA RESULT:      48.0      0.000      0.000
REMARK  6 active torsions:
REMARK  status: ('A' for Active; 'I' for Inactive)
REMARK    1  A    between atoms: C_2  and  S_1 
REMARK    2  A    between atoms: N_10  and  S_1 
REMARK    3  A    between atoms: O_16  and  C_7 
REMARK    4  A    between atoms: C_13  and  N_10 
REMARK    5  A    between atoms: N_11  and  C_17 
REMARK    6  A    between atoms: C_17  and  C_13 
ROOT
ATOM      1  S   UNL d   1     -49.441  26.835  33.970  0.00  0.00     0.286 S 
ATOM      2  O   UNL d   1     -49.073  26.499  33.306  0.00  0.00    -0.198 OA
ATOM      3  O   UNL d   1     -49.803  27.164  34.622  0.00  0.00    -0.198 OA
ENDROOT
BRANCH   1   4
ATOM      4  C   UNL d   1     -50.126  26.408  33.805  0.00  0.00     0.117 A 
ATOM      5  C   UNL d   1     -50.867  26.739  33.961  0.00  0.00     0.027 A 
ATOM      6  C   UNL d   1     -51.553  26.312  33.796  0.00  0.00     0.081 A 
ATOM      7 CL   UNL d   1     -52.299  26.644  33.953  0.00  0.00    -0.080 Cl
ATOM      8  C   UNL d   1     -51.499  25.554  33.475  0.00  0.00     0.105 A 
ATOM      9  C   UNL d   1     -50.765  25.230  33.322  0.00  0.00     0.037 A 
ATOM     10  C   UNL d   1     -50.079  25.657  33.487  0.00  0.00     0.072 A 
ATOM     11 CL   UNL d   1     -49.344  25.324  33.330  0.00  0.00    -0.082 Cl
BRANCH   8  12
ATOM     12  O   UNL d   1     -52.186  25.126  33.310  0.00  0.00    -0.327 OA
ATOM     13  C   UNL d   1     -52.215  24.317  33.467  0.00  0.00     0.181 C 
ENDBRANCH   8  12
ENDBRANCH   1   4
BRANCH   1  14
ATOM     14  N   UNL d   1     -48.755  27.262  34.135  0.00  0.00    -0.155 NA
BRANCH  14  15
ATOM     15  C   UNL d   1     -48.799  27.961  34.550  0.00  0.00     0.131 C 
BRANCH  15  16
ATOM     16  C   UNL d   1     -48.237  28.135  35.129  0.00  0.00     0.102 C 
BRANCH  16  17
ATOM     17  N   UNL d   1     -48.013  28.917  35.265  0.00  0.00    -0.298 N 
ATOM     18  C   UNL d   1     -48.241  29.510  34.739  0.00  0.00     0.107 A 
ATOM     19  C   UNL d   1     -48.016  30.292  34.876  0.00  0.00     0.142 A 
ATOM     20  O   UNL d   1     -47.561  30.484  35.542  0.00  0.00    -0.300 OA
ATOM     21  C   UNL d   1     -47.333  29.891  36.068  0.00  0.00     0.142 A 
ATOM     22  C   UNL d   1     -47.560  29.106  35.929  0.00  0.00     0.107 A 
ENDBRANCH  16  17
ENDBRANCH  15  16
ENDBRANCH  14  15
ENDBRANCH   1  14
TORSDOF 6
ENDMDL
