MODEL 1
REMARK VINA RESULT:      -6.6      0.000      0.000
REMARK  1 active torsions:
REMARK  status: ('A' for Active; 'I' for Inactive)
REMARK    1  A    between atoms: C_2  and  C_1 
REMARK       I    between atoms: N_3  and  C_2 
ROOT
ATOM      1  C   UNL d   1     -41.440-122.657 -53.268  0.00  0.00     0.109 A 
ATOM      2  C   UNL d   1     -41.123-123.389 -53.376  0.00  0.00     0.026 A 
ATOM      3  C   UNL d   1     -41.753-122.331 -53.923  0.00  0.00    -0.014 A 
ATOM      4  C   UNL d   1     -41.869-121.987 -53.735  0.00  0.00    -0.014 A 
ATOM      5  C   UNL d   1     -41.218-123.628 -54.227  0.00  0.00     0.045 A 
ATOM      6  C   UNL d   1     -41.951-122.181 -54.444  0.00  0.00    -0.007 A 
ATOM      7  C   UNL d   1     -41.848-122.603 -54.833  0.00  0.00    -0.007 A 
ATOM      8  C   UNL d   1     -42.277-121.933 -55.299  0.00  0.00    -0.001 A 
ATOM      9  C   UNL d   1     -41.544-123.304 -54.936  0.00  0.00    -0.022 A 
ATOM     10  C   UNL d   1     -41.554-123.131 -54.642  0.00  0.00    -0.022 A 
ENDROOT
BRANCH   1  11
ATOM     11  C   UNL d   1     -41.371-122.292 -52.287  0.00  0.00     0.248 C 
ATOM     12  N   UNL d   1     -41.588-122.873 -51.450  0.00  0.00    -0.275 N 
ATOM     13  C   UNL d   1     -41.807-123.527 -51.083  0.00  0.00     0.083 A 
ATOM     14  C   UNL d   1     -41.447-122.338 -50.908  0.00  0.00     0.083 A 
ATOM     15  C   UNL d   1     -41.798-123.384 -50.308  0.00  0.00     0.021 A 
ATOM     16  C   UNL d   1     -41.576-122.651 -50.199  0.00  0.00     0.021 A 
ATOM     17  O   UNL d   1     -41.123-121.485 -52.243  0.00  0.00    -0.271 OA
ENDBRANCH   1  11
TORSDOF 1
ENDMDL
MODEL 2
REMARK VINA RESULT:      -5.7      0.887      1.470
REMARK  1 active torsions:
REMARK  status: ('A' for Active; 'I' for Inactive)
REMARK    1  A    between atoms: C_2  and  C_1 
REMARK       I    between atoms: N_3  and  C_2 
ROOT
ATOM      1  C   UNL d   1     -41.873-122.475 -53.793  0.00  0.00     0.109 A 
ATOM      2  C   UNL d   1     -42.508-121.982 -53.743  0.00  0.00     0.026 A 
ATOM      3  C   UNL d   1     -41.551-122.529 -54.518  0.00  0.00    -0.014 A 
ATOM      4  C   UNL d   1     -41.260-122.793 -54.404  0.00  0.00    -0.014 A 
ATOM      5  C   UNL d   1     -42.668-121.627 -54.542  0.00  0.00     0.045 A 
ATOM      6  C   UNL d   1     -41.389-122.501 -55.072  0.00  0.00    -0.007 A 
ATOM      7  C   UNL d   1     -41.736-122.139 -55.370  0.00  0.00    -0.007 A 
ATOM      8  C   UNL d   1     -41.123-122.457 -55.980  0.00  0.00    -0.001 A 
ATOM      9  C   UNL d   1     -42.343-121.667 -55.322  0.00  0.00    -0.022 A 
ATOM     10  C   UNL d   1     -42.208-121.847 -55.065  0.00  0.00    -0.022 A 
ENDROOT
BRANCH   1  11
ATOM     11  C   UNL d   1     -41.611-122.940 -52.890  0.00  0.00     0.248 C 
ATOM     12  N   UNL d   1     -41.442-122.413 -52.008  0.00  0.00    -0.275 N 
ATOM     13  C   UNL d   1     -41.393-121.766 -51.572  0.00  0.00     0.083 A 
ATOM     14  C   UNL d   1     -41.277-123.015 -51.551  0.00  0.00     0.083 A 
ATOM     15  C   UNL d   1     -41.195-121.983 -50.841  0.00  0.00     0.021 A 
ATOM     16  C   UNL d   1     -41.123-122.754 -50.827  0.00  0.00     0.021 A 
ATOM     17  O   UNL d   1     -41.551-123.782 -52.949  0.00  0.00    -0.271 OA
ENDBRANCH   1  11
TORSDOF 1
ENDMDL
MODEL 3
REMARK VINA RESULT:      -5.6      2.277      3.125
REMARK  1 active torsions:
REMARK  status: ('A' for Active; 'I' for Inactive)
REMARK    1  A    between atoms: C_2  and  C_1 
REMARK       I    between atoms: N_3  and  C_2 
ROOT
ATOM      1  C   UNL d   1     -41.951-123.002 -50.341  0.00  0.00     0.109 A 
ATOM      2  C   UNL d   1     -41.817-123.757 -50.584  0.00  0.00     0.026 A 
ATOM      3  C   UNL d   1     -41.695-122.441 -50.844  0.00  0.00    -0.014 A 
ATOM      4  C   UNL d   1     -41.820-122.129 -50.610  0.00  0.00    -0.014 A 
ATOM      5  C   UNL d   1     -41.407-123.744 -51.373  0.00  0.00     0.045 A 
ATOM      6  C   UNL d   1     -41.479-122.112 -51.266  0.00  0.00    -0.007 A 
ATOM      7  C   UNL d   1     -41.254-122.443 -51.690  0.00  0.00    -0.007 A 
ATOM      8  C   UNL d   1     -41.123-121.571 -51.958  0.00  0.00    -0.001 A 
ATOM      9  C   UNL d   1     -41.126-123.167 -51.923  0.00  0.00    -0.022 A 
ATOM     10  C   UNL d   1     -41.278-123.074 -51.632  0.00  0.00    -0.022 A 
ENDROOT
BRANCH   1  11
ATOM     11  C   UNL d   1     -42.435-122.922 -49.414  0.00  0.00     0.248 C 
ATOM     12  N   UNL d   1     -41.976-123.169 -48.512  0.00  0.00    -0.275 N 
ATOM     13  C   UNL d   1     -41.384-123.419 -48.067  0.00  0.00     0.083 A 
ATOM     14  C   UNL d   1     -42.569-123.007 -48.041  0.00  0.00     0.083 A 
ATOM     15  C   UNL d   1     -41.625-123.407 -47.317  0.00  0.00     0.021 A 
ATOM     16  C   UNL d   1     -42.356-123.153 -47.299  0.00  0.00     0.021 A 
ATOM     17  O   UNL d   1     -43.230-122.638 -49.471  0.00  0.00    -0.271 OA
ENDBRANCH   1  11
TORSDOF 1
ENDMDL
MODEL 4
REMARK VINA RESULT:      -4.7      1.282      2.161
REMARK  1 active torsions:
REMARK  status: ('A' for Active; 'I' for Inactive)
REMARK    1  A    between atoms: C_2  and  C_1 
REMARK       I    between atoms: N_3  and  C_2 
ROOT
ATOM      1  C   UNL d   1     -41.454-122.686 -51.522  0.00  0.00     0.109 A 
ATOM      2  C   UNL d   1     -41.328-121.893 -51.478  0.00  0.00     0.026 A 
ATOM      3  C   UNL d   1     -41.412-122.989 -52.256  0.00  0.00    -0.014 A 
ATOM      4  C   UNL d   1     -41.490-123.373 -52.137  0.00  0.00    -0.014 A 
ATOM      5  C   UNL d   1     -41.173-121.574 -52.293  0.00  0.00     0.045 A 
ATOM      6  C   UNL d   1     -41.362-123.113 -52.818  0.00  0.00    -0.007 A 
ATOM      7  C   UNL d   1     -41.244-122.631 -53.125  0.00  0.00    -0.007 A 
ATOM      8  C   UNL d   1     -41.280-123.318 -53.740  0.00  0.00    -0.001 A 
ATOM      9  C   UNL d   1     -41.123-121.871 -53.083  0.00  0.00    -0.022 A 
ATOM     10  C   UNL d   1     -41.190-122.079 -52.821  0.00  0.00    -0.022 A 
ENDROOT
BRANCH   1  11
ATOM     11  C   UNL d   1     -41.646-123.149 -50.600  0.00  0.00     0.248 C 
ATOM     12  N   UNL d   1     -42.396-122.829 -49.951  0.00  0.00    -0.275 N 
ATOM     13  C   UNL d   1     -42.986-122.368 -49.728  0.00  0.00     0.083 A 
ATOM     14  C   UNL d   1     -42.283-123.352 -49.390  0.00  0.00     0.083 A 
ATOM     15  C   UNL d   1     -43.233-122.618 -49.022  0.00  0.00     0.021 A 
ATOM     16  C   UNL d   1     -42.800-123.224 -48.813  0.00  0.00     0.021 A 
ATOM     17  O   UNL d   1     -41.136-123.803 -50.437  0.00  0.00    -0.271 OA
ENDBRANCH   1  11
TORSDOF 1
ENDMDL
