MODEL 1
REMARK VINA RESULT:      -3.0      0.000      0.000
REMARK  4 active torsions:
REMARK  status: ('A' for Active; 'I' for Inactive)
REMARK    1  A    between atoms: C_9  and  C_2 
REMARK    2  A    between atoms: C_7  and  C_9 
REMARK       I    between atoms: N_13  and  C_7 
REMARK    3  A    between atoms: C_10  and  C_19 
REMARK    4  A    between atoms: C_19  and  N_13 
ROOT
ATOM      1  C   UNL d   1      31.514  17.366 -24.494  0.00  0.00     0.100 A 
ATOM      2  C   UNL d   1      32.383  18.327 -24.188  0.00  0.00     0.032 A 
ATOM      3  O   UNL d   1      31.466  17.949 -25.068  0.00  0.00    -0.305 OA
ATOM      4  C   UNL d   1      32.085  17.597 -23.942  0.00  0.00     0.025 A 
ATOM      5  C   UNL d   1      32.006  18.549 -24.880  0.00  0.00     0.123 A 
ATOM      6  C   UNL d   1      31.110  16.651 -24.401  0.00  0.00     0.023 A 
ATOM      7  C   UNL d   1      32.252  17.114 -23.300  0.00  0.00     0.002 A 
ATOM      8  C   UNL d   1      31.280  16.164 -23.751  0.00  0.00     0.002 A 
ATOM      9  C   UNL d   1      31.853  16.400 -23.201  0.00  0.00     0.000 A 
ATOM     10  C   UNL d   1      30.543  16.419 -24.946  0.00  0.00     0.002 C 
ATOM     11  C   UNL d   1      30.883  15.455 -23.654  0.00  0.00     0.000 C 
ENDROOT
BRANCH   2  12
ATOM     12  C   UNL d   1      32.970  18.769 -23.800  0.00  0.00     0.065 C 
BRANCH  12  13
ATOM     13  C   UNL d   1      33.107  19.553 -24.004  0.00  0.00     0.279 C 
ATOM     14  N   UNL d   1      33.238  20.113 -23.419  0.00  0.00    -0.204 NA
ATOM     15  O   UNL d   1      33.114  19.777 -24.797  0.00  0.00    -0.265 OA
BRANCH  14  16
ATOM     16  C   UNL d   1      33.235  19.901 -22.625  0.00  0.00     0.127 C 
BRANCH  16  17
ATOM     17  C   UNL d   1      33.119  20.465 -22.040  0.00  0.00     0.119 A 
ATOM     18  O   UNL d   1      33.107  21.273 -22.140  0.00  0.00    -0.304 OA
ATOM     19  C   UNL d   1      32.973  21.626 -21.402  0.00  0.00     0.123 A 
ATOM     20  C   UNL d   1      32.901  21.025 -20.840  0.00  0.00     0.029 A 
ATOM     21  C   UNL d   1      32.991  20.304 -21.232  0.00  0.00     0.028 A 
ENDBRANCH  16  17
ENDBRANCH  14  16
ENDBRANCH  12  13
ENDBRANCH   2  12
TORSDOF 4
ENDMDL
MODEL 2
REMARK VINA RESULT:      -3.0      2.966      4.945
REMARK  4 active torsions:
REMARK  status: ('A' for Active; 'I' for Inactive)
REMARK    1  A    between atoms: C_9  and  C_2 
REMARK    2  A    between atoms: C_7  and  C_9 
REMARK       I    between atoms: N_13  and  C_7 
REMARK    3  A    between atoms: C_10  and  C_19 
REMARK    4  A    between atoms: C_19  and  N_13 
ROOT
ATOM      1  C   UNL d   1      32.750  21.193 -21.947  0.00  0.00     0.100 A 
ATOM      2  C   UNL d   1      32.835  22.078 -20.956  0.00  0.00     0.032 A 
ATOM      3  O   UNL d   1      32.529  21.926 -22.238  0.00  0.00    -0.305 OA
ATOM      4  C   UNL d   1      32.943  21.282 -21.148  0.00  0.00     0.025 A 
ATOM      5  C   UNL d   1      32.580  22.480 -21.623  0.00  0.00     0.123 A 
ATOM      6  C   UNL d   1      32.802  20.451 -22.308  0.00  0.00     0.023 A 
ATOM      7  C   UNL d   1      33.186  20.632 -20.712  0.00  0.00     0.002 A 
ATOM      8  C   UNL d   1      33.049  19.795 -21.865  0.00  0.00     0.002 A 
ATOM      9  C   UNL d   1      33.241  19.889 -21.064  0.00  0.00     0.000 A 
ATOM     10  C   UNL d   1      32.612  20.360 -23.101  0.00  0.00     0.002 C 
ATOM     11  C   UNL d   1      33.102  19.058 -22.217  0.00  0.00     0.000 C 
ENDROOT
BRANCH   2  12
ATOM     12  C   UNL d   1      32.963  22.421 -20.211  0.00  0.00     0.065 C 
BRANCH  12  13
ATOM     13  C   UNL d   1      32.675  23.172 -20.040  0.00  0.00     0.279 C 
ATOM     14  N   UNL d   1      32.574  23.405 -19.260  0.00  0.00    -0.204 NA
ATOM     15  O   UNL d   1      32.488  23.690 -20.653  0.00  0.00    -0.265 OA
BRANCH  14  16
ATOM     16  C   UNL d   1      32.758  22.898 -18.641  0.00  0.00     0.127 C 
BRANCH  16  17
ATOM     17  C   UNL d   1      32.686  23.142 -17.861  0.00  0.00     0.119 A 
ATOM     18  O   UNL d   1      33.220  23.008 -17.260  0.00  0.00    -0.304 OA
ATOM     19  C   UNL d   1      32.923  23.352 -16.566  0.00  0.00     0.123 A 
ATOM     20  C   UNL d   1      32.197  23.702 -16.744  0.00  0.00     0.029 A 
ATOM     21  C   UNL d   1      32.046  23.574 -17.546  0.00  0.00     0.028 A 
ENDBRANCH  16  17
ENDBRANCH  14  16
ENDBRANCH  12  13
ENDBRANCH   2  12
TORSDOF 4
ENDMDL
MODEL 3
REMARK VINA RESULT:      -2.7      1.614      2.215
REMARK  4 active torsions:
REMARK  status: ('A' for Active; 'I' for Inactive)
REMARK    1  A    between atoms: C_9  and  C_2 
REMARK    2  A    between atoms: C_7  and  C_9 
REMARK       I    between atoms: N_13  and  C_7 
REMARK    3  A    between atoms: C_10  and  C_19 
REMARK    4  A    between atoms: C_19  and  N_13 
ROOT
ATOM      1  C   UNL d   1      32.368  17.730 -23.378  0.00  0.00     0.100 A 
ATOM      2  C   UNL d   1      32.767  18.984 -23.175  0.00  0.00     0.032 A 
ATOM      3  O   UNL d   1      32.775  17.759 -22.667  0.00  0.00    -0.305 OA
ATOM      4  C   UNL d   1      32.361  18.493 -23.699  0.00  0.00     0.025 A 
ATOM      5  C   UNL d   1      33.026  18.539 -22.537  0.00  0.00     0.123 A 
ATOM      6  C   UNL d   1      32.002  17.106 -23.777  0.00  0.00     0.023 A 
ATOM      7  C   UNL d   1      31.988  18.630 -24.416  0.00  0.00     0.002 A 
ATOM      8  C   UNL d   1      31.625  17.248 -24.502  0.00  0.00     0.002 A 
ATOM      9  C   UNL d   1      31.620  18.013 -24.820  0.00  0.00     0.000 A 
ATOM     10  C   UNL d   1      32.008  16.349 -23.461  0.00  0.00     0.002 C 
ATOM     11  C   UNL d   1      31.261  16.633 -24.902  0.00  0.00     0.000 C 
ENDROOT
BRANCH   2  12
ATOM     12  C   UNL d   1      32.897  19.799 -23.272  0.00  0.00     0.065 C 
BRANCH  12  13
ATOM     13  C   UNL d   1      33.058  20.278 -22.624  0.00  0.00     0.279 C 
ATOM     14  N   UNL d   1      33.226  21.074 -22.733  0.00  0.00    -0.204 NA
ATOM     15  O   UNL d   1      33.051  19.959 -21.865  0.00  0.00    -0.265 OA
BRANCH  14  16
ATOM     16  C   UNL d   1      33.236  21.403 -23.486  0.00  0.00     0.127 C 
BRANCH  16  17
ATOM     17  C   UNL d   1      33.226  22.217 -23.590  0.00  0.00     0.119 A 
ATOM     18  O   UNL d   1      33.241  22.781 -23.001  0.00  0.00    -0.304 OA
ATOM     19  C   UNL d   1      33.223  23.530 -23.358  0.00  0.00     0.123 A 
ATOM     20  C   UNL d   1      33.196  23.424 -24.177  0.00  0.00     0.029 A 
ATOM     21  C   UNL d   1      33.198  22.611 -24.324  0.00  0.00     0.028 A 
ENDBRANCH  16  17
ENDBRANCH  14  16
ENDBRANCH  12  13
ENDBRANCH   2  12
TORSDOF 4
ENDMDL
MODEL 4
REMARK VINA RESULT:      -2.7      1.465      2.177
REMARK  4 active torsions:
REMARK  status: ('A' for Active; 'I' for Inactive)
REMARK    1  A    between atoms: C_9  and  C_2 
REMARK    2  A    between atoms: C_7  and  C_9 
REMARK       I    between atoms: N_13  and  C_7 
REMARK    3  A    between atoms: C_10  and  C_19 
REMARK    4  A    between atoms: C_19  and  N_13 
ROOT
ATOM      1  C   UNL d   1      29.564  16.650 -24.303  0.00  0.00     0.100 A 
ATOM      2  C   UNL d   1      30.841  16.994 -24.154  0.00  0.00     0.032 A 
ATOM      3  O   UNL d   1      29.783  17.111 -24.944  0.00  0.00    -0.305 OA
ATOM      4  C   UNL d   1      30.221  16.574 -23.807  0.00  0.00     0.025 A 
ATOM      5  C   UNL d   1      30.579  17.328 -24.855  0.00  0.00     0.123 A 
ATOM      6  C   UNL d   1      28.848  16.288 -24.106  0.00  0.00     0.023 A 
ATOM      7  C   UNL d   1      30.162  16.137 -23.116  0.00  0.00     0.002 A 
ATOM      8  C   UNL d   1      28.791  15.846 -23.406  0.00  0.00     0.002 A 
ATOM      9  C   UNL d   1      29.452  15.773 -22.912  0.00  0.00     0.000 A 
ATOM     10  C   UNL d   1      28.195  16.361 -24.596  0.00  0.00     0.002 C 
ATOM     11  C   UNL d   1      28.084  15.485 -23.205  0.00  0.00     0.000 C 
ENDROOT
BRANCH   2  12
ATOM     12  C   UNL d   1      31.609  17.071 -23.848  0.00  0.00     0.065 C 
BRANCH  12  13
ATOM     13  C   UNL d   1      32.204  17.426 -24.290  0.00  0.00     0.279 C 
ATOM     14  N   UNL d   1      32.672  18.011 -23.956  0.00  0.00    -0.204 NA
ATOM     15  O   UNL d   1      32.330  17.194 -25.071  0.00  0.00    -0.265 OA
BRANCH  14  16
ATOM     16  C   UNL d   1      32.555  18.251 -23.179  0.00  0.00     0.127 C 
BRANCH  16  17
ATOM     17  C   UNL d   1      32.816  18.985 -22.921  0.00  0.00     0.119 A 
ATOM     18  O   UNL d   1      32.938  19.646 -23.382  0.00  0.00    -0.304 OA
ATOM     19  C   UNL d   1      33.201  20.261 -22.892  0.00  0.00     0.123 A 
ATOM     20  C   UNL d   1      33.241  19.973 -22.119  0.00  0.00     0.029 A 
ATOM     21  C   UNL d   1      33.003  19.183 -22.133  0.00  0.00     0.028 A 
ENDBRANCH  16  17
ENDBRANCH  14  16
ENDBRANCH  12  13
ENDBRANCH   2  12
TORSDOF 4
ENDMDL
MODEL 5
REMARK VINA RESULT:      -2.3      1.973      3.362
REMARK  4 active torsions:
REMARK  status: ('A' for Active; 'I' for Inactive)
REMARK    1  A    between atoms: C_9  and  C_2 
REMARK    2  A    between atoms: C_7  and  C_9 
REMARK       I    between atoms: N_13  and  C_7 
REMARK    3  A    between atoms: C_10  and  C_19 
REMARK    4  A    between atoms: C_19  and  N_13 
ROOT
ATOM      1  C   UNL d   1      32.977  20.170 -23.423  0.00  0.00     0.100 A 
ATOM      2  C   UNL d   1      33.127  21.233 -22.636  0.00  0.00     0.032 A 
ATOM      3  O   UNL d   1      32.930  20.843 -23.889  0.00  0.00    -0.305 OA
ATOM      4  C   UNL d   1      33.100  20.409 -22.641  0.00  0.00     0.025 A 
ATOM      5  C   UNL d   1      33.023  21.508 -23.401  0.00  0.00     0.123 A 
ATOM      6  C   UNL d   1      32.924  19.367 -23.611  0.00  0.00     0.023 A 
ATOM      7  C   UNL d   1      33.169  19.845 -22.049  0.00  0.00     0.002 A 
ATOM      8  C   UNL d   1      32.994  18.799 -23.010  0.00  0.00     0.002 A 
ATOM      9  C   UNL d   1      33.117  19.043 -22.227  0.00  0.00     0.000 A 
ATOM     10  C   UNL d   1      32.802  19.127 -24.386  0.00  0.00     0.002 C 
ATOM     11  C   UNL d   1      32.942  18.002 -23.190  0.00  0.00     0.000 C 
ENDROOT
BRANCH   2  12
ATOM     12  C   UNL d   1      33.241  21.714 -21.969  0.00  0.00     0.065 C 
BRANCH  12  13
ATOM     13  C   UNL d   1      32.864  22.442 -21.906  0.00  0.00     0.279 C 
ATOM     14  N   UNL d   1      32.831  22.826 -21.182  0.00  0.00    -0.204 NA
ATOM     15  O   UNL d   1      32.519  22.784 -22.571  0.00  0.00    -0.265 OA
BRANCH  14  16
ATOM     16  C   UNL d   1      33.172  22.494 -20.512  0.00  0.00     0.127 C 
BRANCH  16  17
ATOM     17  C   UNL d   1      33.057  22.828 -19.772  0.00  0.00     0.119 A 
ATOM     18  O   UNL d   1      32.910  23.614 -19.612  0.00  0.00    -0.304 OA
ATOM     19  C   UNL d   1      32.830  23.702 -18.791  0.00  0.00     0.123 A 
ATOM     20  C   UNL d   1      32.930  22.960 -18.442  0.00  0.00     0.029 A 
ATOM     21  C   UNL d   1      33.070  22.416 -19.047  0.00  0.00     0.028 A 
ENDBRANCH  16  17
ENDBRANCH  14  16
ENDBRANCH  12  13
ENDBRANCH   2  12
TORSDOF 4
ENDMDL
