MODEL 1
REMARK VINA RESULT:       2.0      0.000      0.000
REMARK  0 active torsions:
REMARK  status: ('A' for Active; 'I' for Inactive)
ROOT
ATOM      1  C   UNL d   1      46.526 -19.254  42.880  0.00  0.00     0.062 A 
ATOM      2  C   UNL d   1      46.512 -18.433  42.979  0.00  0.00     0.116 A 
ATOM      3  C   UNL d   1      46.570 -19.575  42.102  0.00  0.00     0.192 A 
ATOM      4  N   UNL d   1      46.599 -19.052  41.451  0.00  0.00    -0.171 N 
ATOM      5  N   UNL d   1      46.542 -17.933  42.322  0.00  0.00    -0.217 NA
ATOM      6  S   UNL d   1      46.468 -18.323  43.799  0.00  0.00    -0.068 SA
ATOM      7  C   UNL d   1      46.493 -19.629  43.597  0.00  0.00     0.011 A 
ATOM      8  N   UNL d   1      46.636 -20.277  40.979  0.00  0.00    -0.022 NA
ATOM      9  N   UNL d   1      46.641 -19.502  40.737  0.00  0.00    -0.037 NA
ATOM     10  N   UNL d   1      46.593 -20.329  41.816  0.00  0.00    -0.108 NA
ATOM     11  C   UNL d   1      46.456 -19.029  44.172  0.00  0.00     0.031 A 
ATOM     12  C   UNL d   1      46.584 -18.236  41.574  0.00  0.00     0.204 A 
ATOM     13  C   UNL d   1      46.477 -20.330  44.033  0.00  0.00     0.001 A 
ATOM     14  C   UNL d   1      46.421 -19.354  44.913  0.00  0.00     0.006 A 
ATOM     15  C   UNL d   1      46.434 -20.152  44.825  0.00  0.00     0.001 A 
ENDROOT
TORSDOF 0
ENDMDL
