MODEL 1
REMARK VINA RESULT:      46.0      0.000      0.000
REMARK  7 active torsions:
REMARK  status: ('A' for Active; 'I' for Inactive)
REMARK    1  A    between atoms: N_3  and  S_1 
REMARK    2  A    between atoms: C_6  and  S_1 
REMARK    3  A    between atoms: N_2  and  C_5 
REMARK    4  A    between atoms: C_4  and  N_3 
REMARK    5  A    between atoms: C_5  and  C_4 
REMARK    6  A    between atoms: C_10  and  C_5 
REMARK    7  A    between atoms: C_22  and  N_7 
ROOT
ATOM      1  C   UNL d   1      13.436  12.952  -3.832  0.00  0.00     0.086 C 
ENDROOT
BRANCH   1   2
ATOM      2  N   UNL d   1      13.623  13.756  -3.782  0.00  0.00    -0.300 N 
ATOM      3  C   UNL d   1      13.023  14.311  -3.701  0.00  0.00     0.100 A 
ATOM      4  C   UNL d   1      13.204  15.117  -3.651  0.00  0.00     0.100 A 
ATOM      5  N   UNL d   1      13.991  15.362  -3.683  0.00  0.00    -0.300 N 
ATOM      6  C   UNL d   1      14.593  14.799  -3.765  0.00  0.00     0.100 A 
ATOM      7  C   UNL d   1      14.409  14.001  -3.815  0.00  0.00     0.100 A 
BRANCH   5   8
ATOM      8  C   UNL d   1      14.181  16.167  -3.634  0.00  0.00     0.080 C 
ATOM      9  C   UNL d   1      14.903  16.439  -3.935  0.00  0.00     0.021 C 
ENDBRANCH   5   8
ENDBRANCH   1   2
BRANCH   1  10
ATOM     10  C   UNL d   1      13.228  12.531  -3.150  0.00  0.00     0.130 C 
BRANCH  10  11
ATOM     11  N   UNL d   1      13.690  12.603  -2.466  0.00  0.00    -0.155 NA
BRANCH  11  12
ATOM     12  S   UNL d   1      13.483  12.193  -1.785  0.00  0.00     0.285 S 
ATOM     13  O   UNL d   1      13.274  11.780  -1.102  0.00  0.00    -0.198 OA
ATOM     14  O   UNL d   1      12.852  11.834  -2.196  0.00  0.00    -0.198 OA
BRANCH  12  15
ATOM     15  C   UNL d   1      14.114  12.554  -1.380  0.00  0.00     0.105 A 
ATOM     16  C   UNL d   1      13.986  13.235  -0.935  0.00  0.00     0.013 A 
ATOM     17  C   UNL d   1      14.611  13.589  -0.536  0.00  0.00     0.001 A 
ATOM     18  C   UNL d   1      15.368  13.263  -0.582  0.00  0.00     0.000 A 
ATOM     19  C   UNL d   1      15.495  12.582  -1.027  0.00  0.00     0.001 A 
ATOM     20  C   UNL d   1      16.004  13.621  -0.178  0.00  0.00     0.000 C 
ATOM     21  C   UNL d   1      14.870  12.229  -1.425  0.00  0.00     0.013 A 
ENDBRANCH  12  15
ENDBRANCH  11  12
ENDBRANCH  10  11
ENDBRANCH   1  10
BRANCH   1  22
ATOM     22  C   UNL d   1      13.456  12.563  -4.567  0.00  0.00     0.037 A 
ATOM     23  C   UNL d   1      14.170  12.252  -4.849  0.00  0.00     0.100 A 
ATOM     24  N   UNL d   1      14.189  11.868  -5.576  0.00  0.00    -0.242 NA
ATOM     25  C   UNL d   1      13.495  11.794  -6.022  0.00  0.00     0.099 A 
ATOM     26  C   UNL d   1      12.788  12.104  -5.739  0.00  0.00     0.021 A 
ATOM     27  C   UNL d   1      12.769  12.489  -5.011  0.00  0.00     0.005 A 
ENDBRANCH   1  22
TORSDOF 7
ENDMDL
