MODEL 1
REMARK VINA RESULT:      -5.2      0.000      0.000
REMARK  1 active torsions:
REMARK  status: ('A' for Active; 'I' for Inactive)
REMARK    1  A    between atoms: C_6  and  C_2 
ROOT
ATOM      1  C   UNL d   1      55.838  -0.087  33.083  0.00  0.00     0.019 A 
ATOM      2  C   UNL d   1      56.220   0.432  32.581  0.00  0.00     0.001 A 
ATOM      3  C   UNL d   1      55.880  -0.894  32.975  0.00  0.00     0.001 A 
ATOM      4  C   UNL d   1      56.316  -1.199  32.347  0.00  0.00     0.000 A 
ATOM      5  C   UNL d   1      56.661   0.131  31.948  0.00  0.00     0.000 A 
ATOM      6  C   UNL d   1      56.708  -0.681  31.833  0.00  0.00     0.000 A 
ENDROOT
BRANCH   1   7
ATOM      7  C   UNL d   1      55.396   0.217  33.718  0.00  0.00     0.102 A 
ATOM      8  N   UNL d   1      54.591   0.394  33.706  0.00  0.00    -0.222 NA
ATOM      9  C   UNL d   1      54.382   0.682  34.453  0.00  0.00     0.199 A 
ATOM     10  N   UNL d   1      55.057   0.682  34.923  0.00  0.00    -0.221 NA
ATOM     11  C   UNL d   1      55.687   0.395  34.473  0.00  0.00     0.120 A 
ENDBRANCH   1   7
TORSDOF 1
ENDMDL
MODEL 2
REMARK VINA RESULT:      -5.2      1.956      2.899
REMARK  1 active torsions:
REMARK  status: ('A' for Active; 'I' for Inactive)
REMARK    1  A    between atoms: C_6  and  C_2 
ROOT
ATOM      1  C   UNL d   1      56.549  -0.153  32.251  0.00  0.00     0.019 A 
ATOM      2  C   UNL d   1      56.079   0.403  32.622  0.00  0.00     0.001 A 
ATOM      3  C   UNL d   1      56.453  -0.952  32.388  0.00  0.00     0.001 A 
ATOM      4  C   UNL d   1      55.870  -1.209  32.910  0.00  0.00     0.000 A 
ATOM      5  C   UNL d   1      55.491   0.150  33.149  0.00  0.00     0.000 A 
ATOM      6  C   UNL d   1      55.389  -0.652  33.291  0.00  0.00     0.000 A 
ENDROOT
BRANCH   1   7
ATOM      7  C   UNL d   1      57.138   0.103  31.723  0.00  0.00     0.102 A 
ATOM      8  N   UNL d   1      57.163  -0.056  30.915  0.00  0.00    -0.222 NA
ATOM      9  C   UNL d   1      57.841   0.303  30.607  0.00  0.00     0.199 A 
ATOM     10  N   UNL d   1      58.232   0.682  31.224  0.00  0.00    -0.221 NA
ATOM     11  C   UNL d   1      57.800   0.560  31.918  0.00  0.00     0.120 A 
ENDBRANCH   1   7
TORSDOF 1
ENDMDL
MODEL 3
REMARK VINA RESULT:      -4.5      0.695      1.228
REMARK  1 active torsions:
REMARK  status: ('A' for Active; 'I' for Inactive)
REMARK    1  A    between atoms: C_6  and  C_2 
ROOT
ATOM      1  C   UNL d   1      56.367  -0.055  32.438  0.00  0.00     0.019 A 
ATOM      2  C   UNL d   1      56.524  -0.838  32.269  0.00  0.00     0.001 A 
ATOM      3  C   UNL d   1      56.663   0.549  31.977  0.00  0.00     0.001 A 
ATOM      4  C   UNL d   1      57.132   0.371  31.323  0.00  0.00     0.000 A 
ATOM      5  C   UNL d   1      56.994  -1.024  31.613  0.00  0.00     0.000 A 
ATOM      6  C   UNL d   1      57.296  -0.421  31.144  0.00  0.00     0.000 A 
ENDROOT
BRANCH   1   7
ATOM      7  C   UNL d   1      55.894   0.130  33.097  0.00  0.00     0.102 A 
ATOM      8  N   UNL d   1      55.162  -0.203  33.274  0.00  0.00    -0.222 NA
ATOM      9  C   UNL d   1      54.890   0.139  33.976  0.00  0.00     0.199 A 
ATOM     10  N   UNL d   1      55.453   0.682  34.230  0.00  0.00    -0.221 NA
ATOM     11  C   UNL d   1      56.078   0.679  33.689  0.00  0.00     0.120 A 
ENDBRANCH   1   7
TORSDOF 1
ENDMDL
MODEL 4
REMARK VINA RESULT:      -3.8      8.575      9.306
REMARK  1 active torsions:
REMARK  status: ('A' for Active; 'I' for Inactive)
REMARK    1  A    between atoms: C_6  and  C_2 
ROOT
ATOM      1  C   UNL d   1      60.046  -7.786  35.951  0.00  0.00     0.019 A 
ATOM      2  C   UNL d   1      60.546  -8.287  35.545  0.00  0.00     0.001 A 
ATOM      3  C   UNL d   1      59.377  -8.063  36.329  0.00  0.00     0.001 A 
ATOM      4  C   UNL d   1      59.198  -8.866  36.303  0.00  0.00     0.000 A 
ATOM      5  C   UNL d   1      60.371  -9.096  35.516  0.00  0.00     0.000 A 
ATOM      6  C   UNL d   1      59.700  -9.383  35.893  0.00  0.00     0.000 A 
ENDROOT
BRANCH   1   7
ATOM      7  C   UNL d   1      60.223  -6.974  35.980  0.00  0.00     0.102 A 
ATOM      8  N   UNL d   1      60.975  -6.646  36.056  0.00  0.00    -0.222 NA
ATOM      9  C   UNL d   1      60.895  -5.823  36.060  0.00  0.00     0.199 A 
ATOM     10  N   UNL d   1      60.095  -5.645  35.986  0.00  0.00    -0.221 NA
ATOM     11  C   UNL d   1      59.675  -6.354  35.936  0.00  0.00     0.120 A 
ENDBRANCH   1   7
TORSDOF 1
ENDMDL
MODEL 5
REMARK VINA RESULT:      -3.7      8.917      9.662
REMARK  1 active torsions:
REMARK  status: ('A' for Active; 'I' for Inactive)
REMARK    1  A    between atoms: C_6  and  C_2 
ROOT
ATOM      1  C   UNL d   1      59.921  -7.786  35.969  0.00  0.00     0.019 A 
ATOM      2  C   UNL d   1      59.389  -7.170  36.033  0.00  0.00     0.001 A 
ATOM      3  C   UNL d   1      60.725  -7.664  36.040  0.00  0.00     0.001 A 
ATOM      4  C   UNL d   1      61.011  -6.904  36.179  0.00  0.00     0.000 A 
ATOM      5  C   UNL d   1      59.670  -6.404  36.172  0.00  0.00     0.000 A 
ATOM      6  C   UNL d   1      60.478  -6.273  36.244  0.00  0.00     0.000 A 
ENDROOT
BRANCH   1   7
ATOM      7  C   UNL d   1      59.636  -8.554  35.830  0.00  0.00     0.102 A 
ATOM      8  N   UNL d   1      59.140  -8.983  36.328  0.00  0.00    -0.222 NA
ATOM      9  C   UNL d   1      58.997  -9.717  35.974  0.00  0.00     0.199 A 
ATOM     10  N   UNL d   1      59.404  -9.739  35.260  0.00  0.00    -0.221 NA
ATOM     11  C   UNL d   1      59.801  -9.022  35.166  0.00  0.00     0.120 A 
ENDBRANCH   1   7
TORSDOF 1
ENDMDL
MODEL 6
REMARK VINA RESULT:      -3.6      2.641      3.890
REMARK  1 active torsions:
REMARK  status: ('A' for Active; 'I' for Inactive)
REMARK    1  A    between atoms: C_6  and  C_2 
ROOT
ATOM      1  C   UNL d   1      57.262  -0.054  31.264  0.00  0.00     0.019 A 
ATOM      2  C   UNL d   1      56.941  -0.780  31.455  0.00  0.00     0.001 A 
ATOM      3  C   UNL d   1      57.133   0.605  31.728  0.00  0.00     0.001 A 
ATOM      4  C   UNL d   1      56.669   0.542  32.405  0.00  0.00     0.000 A 
ATOM      5  C   UNL d   1      56.473  -0.850  32.135  0.00  0.00     0.000 A 
ATOM      6  C   UNL d   1      56.339  -0.191  32.606  0.00  0.00     0.000 A 
ENDROOT
BRANCH   1   7
ATOM      7  C   UNL d   1      57.732   0.014  30.581  0.00  0.00     0.102 A 
ATOM      8  N   UNL d   1      58.221  -0.573  30.271  0.00  0.00    -0.222 NA
ATOM      9  C   UNL d   1      58.582  -0.270  29.592  0.00  0.00     0.199 A 
ATOM     10  N   UNL d   1      58.316   0.501  29.484  0.00  0.00    -0.221 NA
ATOM     11  C   UNL d   1      57.789   0.681  30.094  0.00  0.00     0.120 A 
ENDBRANCH   1   7
TORSDOF 1
ENDMDL
MODEL 7
REMARK VINA RESULT:      -3.2      9.091      9.883
REMARK  1 active torsions:
REMARK  status: ('A' for Active; 'I' for Inactive)
REMARK    1  A    between atoms: C_6  and  C_2 
ROOT
ATOM      1  C   UNL d   1      59.992  -8.900  34.393  0.00  0.00     0.019 A 
ATOM      2  C   UNL d   1      59.435  -9.215  33.885  0.00  0.00     0.001 A 
ATOM      3  C   UNL d   1      60.790  -8.936  34.226  0.00  0.00     0.001 A 
ATOM      4  C   UNL d   1      61.045  -9.297  33.531  0.00  0.00     0.000 A 
ATOM      5  C   UNL d   1      59.685  -9.580  33.185  0.00  0.00     0.000 A 
ATOM      6  C   UNL d   1      60.487  -9.620  33.010  0.00  0.00     0.000 A 
ENDROOT
BRANCH   1   7
ATOM      7  C   UNL d   1      59.738  -8.534  35.095  0.00  0.00     0.102 A 
ATOM      8  N   UNL d   1      59.737  -7.724  35.244  0.00  0.00    -0.222 NA
ATOM      9  C   UNL d   1      59.441  -7.606  36.007  0.00  0.00     0.199 A 
ATOM     10  N   UNL d   1      59.260  -8.342  36.327  0.00  0.00    -0.221 NA
ATOM     11  C   UNL d   1      59.442  -8.920  35.765  0.00  0.00     0.120 A 
ENDBRANCH   1   7
TORSDOF 1
ENDMDL
