MODEL 1
REMARK VINA RESULT:      88.8      0.000      0.000
REMARK  6 active torsions:
REMARK  status: ('A' for Active; 'I' for Inactive)
REMARK    1  A    between atoms: C_9  and  N_1 
REMARK    2  A    between atoms: S_10  and  C_6 
REMARK    3  A    between atoms: C_16  and  C_9 
REMARK    4  A    between atoms: C_15  and  S_10 
REMARK    5  A    between atoms: C_12  and  C_15 
REMARK       I    between atoms: N_13  and  C_12 
REMARK    6  A    between atoms: C_19  and  N_13 
ROOT
ATOM      1  N   UNL d   1      59.251  49.701  50.323  0.00  0.00    -0.192 N 
ATOM      2  N   UNL d   1      59.221  49.707  49.503  0.00  0.00    -0.058 NA
ATOM      3  C   UNL d   1      58.475  49.698  50.600  0.00  0.00     0.189 A 
ATOM      4  C   UNL d   1      57.975  49.701  49.941  0.00  0.00     0.164 A 
ATOM      5  N   UNL d   1      58.450  49.707  49.267  0.00  0.00    -0.125 NA
ATOM      6  C   UNL d   1      57.164  49.699  50.037  0.00  0.00     0.135 A 
ATOM      7  N   UNL d   1      58.165  49.691  51.356  0.00  0.00    -0.203 NA
ATOM      8  N   UNL d   1      56.840  49.693  50.803  0.00  0.00    -0.216 NA
ATOM      9  C   UNL d   1      57.341  49.689  51.462  0.00  0.00     0.201 A 
ENDROOT
BRANCH   6  10
ATOM     10  S   UNL d   1      56.663  49.703  49.378  0.00  0.00    -0.061 SA
BRANCH  10  11
ATOM     11  C   UNL d   1      56.081  49.135  49.296  0.00  0.00     0.099 C 
BRANCH  11  12
ATOM     12  C   UNL d   1      56.260  48.339  49.439  0.00  0.00     0.286 C 
ATOM     13  N   UNL d   1      56.474  48.102  50.207  0.00  0.00    -0.208 NA
ATOM     14  O   UNL d   1      56.227  47.783  48.832  0.00  0.00    -0.265 OA
BRANCH  13  15
ATOM     15  C   UNL d   1      56.654  47.308  50.359  0.00  0.00     0.085 A 
ATOM     16  C   UNL d   1      56.907  46.910  51.052  0.00  0.00     0.019 A 
ATOM     17  C   UNL d   1      56.994  46.124  50.857  0.00  0.00     0.002 A 
ATOM     18  C   UNL d   1      56.804  46.037  50.083  0.00  0.00     0.002 A 
ATOM     19  C   UNL d   1      56.593  46.747  49.758  0.00  0.00     0.019 A 
ENDBRANCH  13  15
ENDBRANCH  11  12
ENDBRANCH  10  11
ENDBRANCH   6  10
BRANCH   1  20
ATOM     20  C   UNL d   1      59.950  49.699  50.791  0.00  0.00     0.104 C 
BRANCH  20  21
ATOM     21  C   UNL d   1      60.514  49.088  50.706  0.00  0.00     0.019 A 
ATOM     22  C   UNL d   1      60.963  49.033  50.013  0.00  0.00     0.004 A 
ATOM     23  C   UNL d   1      61.517  48.437  49.925  0.00  0.00     0.030 A 
ATOM     24  C   UNL d   1      61.627  47.886  50.535  0.00  0.00     0.140 A 
ATOM     25  C   UNL d   1      61.177  47.936  51.236  0.00  0.00     0.030 A 
ATOM     26  F   UNL d   1      62.199  47.277  50.434  0.00  0.00    -0.204 F 
ATOM     27  C   UNL d   1      60.631  48.535  51.307  0.00  0.00     0.004 A 
ENDBRANCH  20  21
ENDBRANCH   1  20
TORSDOF 6
ENDMDL
