MODEL 1
REMARK VINA RESULT:      -3.1      0.000      0.000
REMARK  3 active torsions:
REMARK  status: ('A' for Active; 'I' for Inactive)
REMARK       I    between atoms: N_2  and  C_1 
REMARK    1  A    between atoms: C_4  and  C_1 
REMARK    2  A    between atoms: C_3  and  N_2 
REMARK    3  A    between atoms: S_11  and  C_7 
ROOT
ATOM      1  C   UNL d   1     -41.467-122.359 -52.570  0.00  0.00     0.064 A 
ATOM      2  C   UNL d   1     -41.812-122.430 -53.314  0.00  0.00     0.030 A 
ATOM      3  C   UNL d   1     -41.123-123.021 -52.205  0.00  0.00     0.005 A 
ATOM      4  C   UNL d   1     -41.817-123.160 -53.699  0.00  0.00     0.006 A 
ATOM      5  C   UNL d   1     -41.128-123.750 -52.591  0.00  0.00     0.000 A 
ATOM      6  C   UNL d   1     -41.477-123.817 -53.341  0.00  0.00     0.001 A 
ENDROOT
BRANCH   1   7
ATOM      7  C   UNL d   1     -41.462-121.629 -52.185  0.00  0.00     0.281 C 
ATOM      8  N   UNL d   1     -41.653-121.588 -51.378  0.00  0.00    -0.183 NA
ATOM      9  O   UNL d   1     -41.268-120.945 -52.599  0.00  0.00    -0.265 OA
BRANCH   8  10
ATOM     10  C   UNL d   1     -41.844-122.261 -50.966  0.00  0.00     0.197 A 
ATOM     11  N   UNL d   1     -42.604-122.584 -50.887  0.00  0.00    -0.219 NA
ATOM     12  C   UNL d   1     -42.548-123.271 -50.423  0.00  0.00     0.108 A 
ATOM     13  C   UNL d   1     -41.751-123.377 -50.211  0.00  0.00     0.059 A 
ATOM     14  S   UNL d   1     -41.322-122.754 -50.547  0.00  0.00    -0.046 SA
ENDBRANCH   8  10
ENDBRANCH   1   7
BRANCH   2  15
ATOM     15  S   UNL d   1     -42.153-121.771 -53.673  0.00  0.00    -0.113 SA
ATOM     16  C   UNL d   1     -42.418-121.820 -54.450  0.00  0.00     0.074 C 
ENDBRANCH   2  15
TORSDOF 3
ENDMDL
MODEL 2
REMARK VINA RESULT:      -2.3      1.202      2.649
REMARK  3 active torsions:
REMARK  status: ('A' for Active; 'I' for Inactive)
REMARK       I    between atoms: N_2  and  C_1 
REMARK    1  A    between atoms: C_4  and  C_1 
REMARK    2  A    between atoms: C_3  and  N_2 
REMARK    3  A    between atoms: S_11  and  C_7 
ROOT
ATOM      1  C   UNL d   1     -41.347-122.262 -52.293  0.00  0.00     0.064 A 
ATOM      2  C   UNL d   1     -41.572-122.424 -51.518  0.00  0.00     0.030 A 
ATOM      3  C   UNL d   1     -41.125-122.882 -52.800  0.00  0.00     0.005 A 
ATOM      4  C   UNL d   1     -41.578-123.201 -51.242  0.00  0.00     0.006 A 
ATOM      5  C   UNL d   1     -41.132-123.660 -52.525  0.00  0.00     0.000 A 
ATOM      6  C   UNL d   1     -41.359-123.817 -51.742  0.00  0.00     0.001 A 
ENDROOT
BRANCH   1   7
ATOM      7  C   UNL d   1     -41.340-121.485 -52.569  0.00  0.00     0.281 C 
ATOM      8  N   UNL d   1     -41.551-121.325 -53.356  0.00  0.00    -0.183 NA
ATOM      9  O   UNL d   1     -41.126-120.871 -52.065  0.00  0.00    -0.265 OA
BRANCH   8  10
ATOM     10  C   UNL d   1     -41.763-121.929 -53.855  0.00  0.00     0.197 A 
ATOM     11  N   UNL d   1     -42.506-122.296 -53.887  0.00  0.00    -0.219 NA
ATOM     12  C   UNL d   1     -42.482-122.883 -54.474  0.00  0.00     0.108 A 
ATOM     13  C   UNL d   1     -41.721-122.883 -54.810  0.00  0.00     0.059 A 
ATOM     14  S   UNL d   1     -41.283-122.295 -54.426  0.00  0.00    -0.046 SA
ENDBRANCH   8  10
ENDBRANCH   1   7
BRANCH   2  15
ATOM     15  S   UNL d   1     -41.791-121.807 -51.018  0.00  0.00    -0.113 SA
ATOM     16  C   UNL d   1     -42.145-121.973 -50.294  0.00  0.00     0.074 C 
ENDBRANCH   2  15
TORSDOF 3
ENDMDL
MODEL 3
REMARK VINA RESULT:      -1.2      1.982      3.868
REMARK  3 active torsions:
REMARK  status: ('A' for Active; 'I' for Inactive)
REMARK       I    between atoms: N_2  and  C_1 
REMARK    1  A    between atoms: C_4  and  C_1 
REMARK    2  A    between atoms: C_3  and  N_2 
REMARK    3  A    between atoms: S_11  and  C_7 
ROOT
ATOM      1  C   UNL d   1     -42.313-122.867 -49.173  0.00  0.00     0.064 A 
ATOM      2  C   UNL d   1     -42.483-123.397 -48.568  0.00  0.00     0.030 A 
ATOM      3  C   UNL d   1     -42.857-122.751 -49.791  0.00  0.00     0.005 A 
ATOM      4  C   UNL d   1     -43.195-123.815 -48.571  0.00  0.00     0.006 A 
ATOM      5  C   UNL d   1     -43.568-123.169 -49.794  0.00  0.00     0.000 A 
ATOM      6  C   UNL d   1     -43.735-123.703 -49.181  0.00  0.00     0.001 A 
ENDROOT
BRANCH   1   7
ATOM      7  C   UNL d   1     -41.602-122.449 -49.170  0.00  0.00     0.281 C 
ATOM      8  N   UNL d   1     -41.123-122.445 -49.848  0.00  0.00    -0.183 NA
ATOM      9  O   UNL d   1     -41.369-122.038 -48.496  0.00  0.00    -0.265 OA
BRANCH   8  10
ATOM     10  C   UNL d   1     -41.350-122.849 -50.514  0.00  0.00     0.197 A 
ATOM     11  N   UNL d   1     -41.844-122.560 -51.115  0.00  0.00    -0.219 NA
ATOM     12  C   UNL d   1     -41.932-123.155 -51.688  0.00  0.00     0.108 A 
ATOM     13  C   UNL d   1     -41.491-123.817 -51.446  0.00  0.00     0.059 A 
ATOM     14  S   UNL d   1     -41.136-123.624 -50.724  0.00  0.00    -0.046 SA
ENDBRANCH   8  10
ENDBRANCH   1   7
BRANCH   2  15
ATOM     15  S   UNL d   1     -41.941-123.510 -47.957  0.00  0.00    -0.113 SA
ATOM     16  C   UNL d   1     -42.208-123.590 -47.183  0.00  0.00     0.074 C 
ENDBRANCH   2  15
TORSDOF 3
ENDMDL
