MODEL 1
REMARK VINA RESULT:      69.8      0.000      0.000
REMARK  3 active torsions:
REMARK  status: ('A' for Active; 'I' for Inactive)
REMARK    1  A    between atoms: C_11  and  C_3 
REMARK       I    between atoms: C_7  and  N_9 
REMARK    2  A    between atoms: C_8  and  C_7 
REMARK    3  A    between atoms: N_9  and  C_13 
ROOT
ATOM      1  C   UNL d   1     -54.802-101.460 -38.061  0.00  0.00     0.021 A 
ATOM      2  C   UNL d   1     -54.765-102.044 -39.364  0.00  0.00     0.085 A 
ATOM      3  C   UNL d   1     -54.748-101.376 -38.880  0.00  0.00     0.021 A 
ATOM      4  C   UNL d   1     -54.874-102.211 -37.726  0.00  0.00     0.002 A 
ATOM      5  C   UNL d   1     -54.892-102.879 -38.211  0.00  0.00     0.002 A 
ATOM      6  C   UNL d   1     -54.837-102.796 -39.030  0.00  0.00     0.019 A 
ENDROOT
BRANCH   2   7
ATOM      7  N   UNL d   1     -54.711-101.961 -40.179  0.00  0.00    -0.207 NA
ATOM      8  C   UNL d   1     -55.388-101.925 -40.635  0.00  0.00     0.297 C 
ATOM      9  O   UNL d   1     -56.138-101.973 -40.275  0.00  0.00    -0.264 OA
BRANCH   8  10
ATOM     10  C   UNL d   1     -55.334-101.842 -41.454  0.00  0.00     0.139 A 
ATOM     11  N   UNL d   1     -55.081-101.136 -41.782  0.00  0.00    -0.241 NA
ATOM     12  C   UNL d   1     -55.027-101.053 -42.601  0.00  0.00     0.082 A 
ATOM     13  C   UNL d   1     -54.772-100.339 -42.926  0.00  0.00     0.019 A 
ATOM     14  C   UNL d   1     -55.225-101.675 -43.092  0.00  0.00     0.018 A 
ATOM     15  C   UNL d   1     -54.717-100.255 -43.745  0.00  0.00     0.002 A 
ATOM     16  C   UNL d   1     -54.918-100.886 -44.239  0.00  0.00     0.000 A 
ATOM     17  C   UNL d   1     -55.170-101.592 -43.911  0.00  0.00     0.002 A 
ATOM     18  C   UNL d   1     -55.483-102.398 -42.768  0.00  0.00     0.003 A 
ATOM     19  C   UNL d   1     -55.537-102.481 -41.949  0.00  0.00     0.024 A 
ENDBRANCH   8  10
ENDBRANCH   2   7
BRANCH   1  20
ATOM     20  C   UNL d   1     -54.785-100.792 -37.576  0.00  0.00     0.101 A 
ATOM     21  N   UNL d   1     -54.755 -99.995 -37.797  0.00  0.00    -0.221 NA
ATOM     22  C   UNL d   1     -54.748 -99.555 -37.114  0.00  0.00     0.179 A 
ATOM     23  N   UNL d   1     -54.773-100.064 -36.468  0.00  0.00    -0.282 N 
ATOM     24  S   UNL d   1     -54.725 -98.788 -36.827  0.00  0.00    -0.048 SA
ATOM     25  C   UNL d   1     -54.796-100.836 -36.756  0.00  0.00     0.101 A 
ATOM     26  C   UNL d   1     -54.765 -99.598 -35.778  0.00  0.00     0.089 A 
ATOM     27  C   UNL d   1     -54.735 -98.818 -36.005  0.00  0.00     0.057 A 
ENDBRANCH   1  20
TORSDOF 3
ENDMDL
