MODEL 1
REMARK VINA RESULT:       9.0      0.000      0.000
REMARK  4 active torsions:
REMARK  status: ('A' for Active; 'I' for Inactive)
REMARK    1  A    between atoms: S_5  and  C_2 
REMARK    2  A    between atoms: C_15  and  S_5 
REMARK    3  A    between atoms: N_11  and  C_8 
REMARK    4  A    between atoms: C_12  and  N_11 
ROOT
ATOM      1  C   UNL d   1     -41.705-121.825 -52.333  0.00  0.00     0.197 A 
ATOM      2  C   UNL d   1     -41.791-121.581 -53.120  0.00  0.00     0.227 A 
ATOM      3  N   UNL d   1     -41.533-121.157 -51.878  0.00  0.00    -0.192 N 
ATOM      4  N   UNL d   1     -41.762-122.565 -51.971  0.00  0.00    -0.206 NA
ATOM      5  N   UNL d   1     -41.671-120.764 -53.151  0.00  0.00    -0.115 NA
ATOM      6  N   UNL d   1     -41.511-120.498 -52.382  0.00  0.00    -0.058 NA
ATOM      7  C   UNL d   1     -41.646-122.639 -51.153  0.00  0.00     0.166 A 
ATOM      8  C   UNL d   1     -41.474-121.968 -50.705  0.00  0.00     0.054 A 
ATOM      9  C   UNL d   1     -41.416-121.225 -51.060  0.00  0.00     0.089 A 
ATOM     10  C   UNL d   1     -41.357-122.037 -49.886  0.00  0.00     0.005 A 
ATOM     11  C   UNL d   1     -41.244-120.558 -50.609  0.00  0.00     0.019 A 
ATOM     12  C   UNL d   1     -41.185-121.369 -49.436  0.00  0.00     0.000 A 
ATOM     13  C   UNL d   1     -41.128-120.630 -49.797  0.00  0.00     0.002 A 
ENDROOT
BRANCH   2  14
ATOM     14  S   UNL d   1     -41.965-122.072 -53.761  0.00  0.00     0.231 S 
ATOM     15  O   UNL d   1     -41.167-122.274 -53.791  0.00  0.00    -0.215 OA
ATOM     16  O   UNL d   1     -42.762-121.868 -53.729  0.00  0.00    -0.215 OA
BRANCH  14  17
ATOM     17  C   UNL d   1     -42.097-122.570 -54.399  0.00  0.00     0.090 A 
ATOM     18  C   UNL d   1     -41.765-123.322 -54.419  0.00  0.00     0.011 A 
ATOM     19  C   UNL d   1     -41.897-123.816 -55.055  0.00  0.00     0.001 A 
ATOM     20  C   UNL d   1     -42.368-123.561 -55.686  0.00  0.00     0.000 A 
ATOM     21  C   UNL d   1     -42.702-122.804 -55.667  0.00  0.00     0.001 A 
ATOM     22  C   UNL d   1     -42.567-122.312 -55.028  0.00  0.00     0.011 A 
ENDBRANCH  14  17
ENDBRANCH   2  14
BRANCH   7  23
ATOM     23  N   UNL d   1     -41.703-123.379 -50.792  0.00  0.00    -0.227 NA
BRANCH  23  24
ATOM     24  C   UNL d   1     -42.265-123.509 -50.206  0.00  0.00     0.083 A 
ATOM     25  C   UNL d   1     -43.066-123.551 -50.404  0.00  0.00     0.019 A 
ATOM     26  C   UNL d   1     -43.629-123.681 -49.817  0.00  0.00     0.002 A 
ATOM     27  C   UNL d   1     -44.429-123.723 -50.014  0.00  0.00     0.000 C 
ATOM     28  C   UNL d   1     -43.394-123.771 -49.026  0.00  0.00     0.000 A 
ATOM     29  C   UNL d   1     -42.588-123.728 -48.836  0.00  0.00     0.002 A 
ATOM     30  C   UNL d   1     -42.029-123.598 -49.422  0.00  0.00     0.019 A 
ATOM     31  C   UNL d   1     -42.351-123.816 -48.053  0.00  0.00     0.000 C 
ENDBRANCH  23  24
ENDBRANCH   7  23
TORSDOF 4
ENDMDL
