MODEL 1
REMARK VINA RESULT:      -3.0      0.000      0.000
REMARK  5 active torsions:
REMARK  status: ('A' for Active; 'I' for Inactive)
REMARK    1  A    between atoms: C_2  and  C_1 
REMARK    2  A    between atoms: C_6  and  C_2 
REMARK    3  A    between atoms: C_3  and  O_5 
REMARK    4  A    between atoms: C_11  and  C_3 
REMARK    5  A    between atoms: O_5  and  C_6 
ROOT
ATOM      1  O   UNL d   1      32.888  19.276 -22.430  0.00  0.00    -0.268 OA
ENDROOT
BRANCH   1   2
ATOM      2  C   UNL d   1      32.947  18.982 -23.204  0.00  0.00     0.300 C 
ATOM      3  O   UNL d   1      33.238  19.465 -23.789  0.00  0.00    -0.259 OA
BRANCH   2   4
ATOM      4  C   UNL d   1      32.715  18.217 -23.379  0.00  0.00     0.064 A 
ATOM      5  C   UNL d   1      32.014  18.076 -23.776  0.00  0.00     0.005 A 
ATOM      6  C   UNL d   1      31.786  17.312 -23.950  0.00  0.00     0.000 A 
ATOM      7  C   UNL d   1      32.254  16.680 -23.728  0.00  0.00     0.000 A 
ATOM      8  C   UNL d   1      32.961  16.816 -23.327  0.00  0.00     0.000 A 
ATOM      9  C   UNL d   1      33.196  17.585 -23.150  0.00  0.00     0.005 A 
ENDBRANCH   2   4
ENDBRANCH   1   2
BRANCH   1  10
ATOM     10  C   UNL d   1      33.051  20.086 -22.287  0.00  0.00     0.168 C 
BRANCH  10  11
ATOM     11  C   UNL d   1      33.021  20.398 -21.531  0.00  0.00     0.226 C 
ATOM     12  O   UNL d   1      33.193  19.948 -20.862  0.00  0.00    -0.284 OA
BRANCH  11  13
ATOM     13  C   UNL d   1      32.798  21.230 -21.454  0.00  0.00     0.070 A 
ATOM     14  S   UNL d   1      32.229  21.556 -20.900  0.00  0.00    -0.083 SA
ATOM     15  C   UNL d   1      32.187  22.411 -21.023  0.00  0.00     0.035 A 
ATOM     16  C   UNL d   1      32.735  22.617 -21.659  0.00  0.00     0.008 A 
ATOM     17  C   UNL d   1      33.115  21.890 -21.928  0.00  0.00     0.010 A 
ENDBRANCH  11  13
ENDBRANCH  10  11
ENDBRANCH   1  10
TORSDOF 5
ENDMDL
MODEL 2
REMARK VINA RESULT:      -2.8      3.082      5.048
REMARK  5 active torsions:
REMARK  status: ('A' for Active; 'I' for Inactive)
REMARK    1  A    between atoms: C_2  and  C_1 
REMARK    2  A    between atoms: C_6  and  C_2 
REMARK    3  A    between atoms: C_3  and  O_5 
REMARK    4  A    between atoms: C_11  and  C_3 
REMARK    5  A    between atoms: O_5  and  C_6 
ROOT
ATOM      1  O   UNL d   1      30.866  17.673 -24.292  0.00  0.00    -0.268 OA
ENDROOT
BRANCH   1   2
ATOM      2  C   UNL d   1      31.676  17.524 -24.192  0.00  0.00     0.300 C 
ATOM      3  O   UNL d   1      31.950  16.761 -24.258  0.00  0.00    -0.259 OA
BRANCH   2   4
ATOM      4  C   UNL d   1      32.197  18.135 -24.028  0.00  0.00     0.064 A 
ATOM      5  C   UNL d   1      32.534  18.566 -24.635  0.00  0.00     0.005 A 
ATOM      6  C   UNL d   1      33.052  19.175 -24.470  0.00  0.00     0.000 A 
ATOM      7  C   UNL d   1      33.239  19.360 -23.696  0.00  0.00     0.000 A 
ATOM      8  C   UNL d   1      32.901  18.928 -23.081  0.00  0.00     0.000 A 
ATOM      9  C   UNL d   1      32.378  18.313 -23.243  0.00  0.00     0.005 A 
ENDBRANCH   2   4
ENDBRANCH   1   2
BRANCH   1  10
ATOM     10  C   UNL d   1      30.341  17.026 -24.387  0.00  0.00     0.168 C 
BRANCH  10  11
ATOM     11  C   UNL d   1      29.558  17.142 -24.597  0.00  0.00     0.226 C 
ATOM     12  O   UNL d   1      29.322  17.761 -25.089  0.00  0.00    -0.284 OA
BRANCH  11  13
ATOM     13  C   UNL d   1      28.976  16.586 -24.283  0.00  0.00     0.070 A 
ATOM     14  S   UNL d   1      28.792  15.809 -24.599  0.00  0.00    -0.083 SA
ATOM     15  C   UNL d   1      28.176  15.453 -24.105  0.00  0.00     0.035 A 
ATOM     16  C   UNL d   1      27.978  16.015 -23.479  0.00  0.00     0.008 A 
ATOM     17  C   UNL d   1      28.470  16.716 -23.585  0.00  0.00     0.010 A 
ENDBRANCH  11  13
ENDBRANCH  10  11
ENDBRANCH   1  10
TORSDOF 5
ENDMDL
MODEL 3
REMARK VINA RESULT:      -2.7      2.717      3.968
REMARK  5 active torsions:
REMARK  status: ('A' for Active; 'I' for Inactive)
REMARK    1  A    between atoms: C_2  and  C_1 
REMARK    2  A    between atoms: C_6  and  C_2 
REMARK    3  A    between atoms: C_3  and  O_5 
REMARK    4  A    between atoms: C_11  and  C_3 
REMARK    5  A    between atoms: O_5  and  C_6 
ROOT
ATOM      1  O   UNL d   1      31.081  16.600 -23.702  0.00  0.00    -0.268 OA
ENDROOT
BRANCH   1   2
ATOM      2  C   UNL d   1      30.443  16.393 -24.191  0.00  0.00     0.300 C 
ATOM      3  O   UNL d   1      30.566  16.315 -24.991  0.00  0.00    -0.259 OA
BRANCH   2   4
ATOM      4  C   UNL d   1      29.698  16.267 -23.875  0.00  0.00     0.064 A 
ATOM      5  C   UNL d   1      29.531  15.578 -23.468  0.00  0.00     0.005 A 
ATOM      6  C   UNL d   1      28.788  15.455 -23.154  0.00  0.00     0.000 A 
ATOM      7  C   UNL d   1      28.203  16.019 -23.242  0.00  0.00     0.000 A 
ATOM      8  C   UNL d   1      28.366  16.715 -23.651  0.00  0.00     0.000 A 
ATOM      9  C   UNL d   1      29.115  16.844 -23.970  0.00  0.00     0.005 A 
ENDBRANCH   2   4
ENDBRANCH   1   2
BRANCH   1  10
ATOM     10  C   UNL d   1      31.703  17.065 -24.019  0.00  0.00     0.168 C 
BRANCH  10  11
ATOM     11  C   UNL d   1      32.397  17.187 -23.601  0.00  0.00     0.226 C 
ATOM     12  O   UNL d   1      32.793  16.572 -23.219  0.00  0.00    -0.284 OA
BRANCH  11  13
ATOM     13  C   UNL d   1      32.707  17.993 -23.573  0.00  0.00     0.070 A 
ATOM     14  S   UNL d   1      32.975  18.459 -24.241  0.00  0.00    -0.083 SA
ATOM     15  C   UNL d   1      33.237  19.231 -23.949  0.00  0.00     0.035 A 
ATOM     16  C   UNL d   1      33.129  19.242 -23.091  0.00  0.00     0.008 A 
ATOM     17  C   UNL d   1      32.802  18.479 -22.855  0.00  0.00     0.010 A 
ENDBRANCH  11  13
ENDBRANCH  10  11
ENDBRANCH   1  10
TORSDOF 5
ENDMDL
MODEL 4
REMARK VINA RESULT:      -2.3      1.521      4.297
REMARK  5 active torsions:
REMARK  status: ('A' for Active; 'I' for Inactive)
REMARK    1  A    between atoms: C_2  and  C_1 
REMARK    2  A    between atoms: C_6  and  C_2 
REMARK    3  A    between atoms: C_3  and  O_5 
REMARK    4  A    between atoms: C_11  and  C_3 
REMARK    5  A    between atoms: O_5  and  C_6 
ROOT
ATOM      1  O   UNL d   1      32.995  20.075 -22.200  0.00  0.00    -0.268 OA
ENDROOT
BRANCH   1   2
ATOM      2  C   UNL d   1      33.032  20.902 -22.263  0.00  0.00     0.300 C 
ATOM      3  O   UNL d   1      33.241  21.235 -22.974  0.00  0.00    -0.259 OA
BRANCH   2   4
ATOM      4  C   UNL d   1      32.860  21.378 -21.619  0.00  0.00     0.064 A 
ATOM      5  C   UNL d   1      33.214  21.241 -20.895  0.00  0.00     0.005 A 
ATOM      6  C   UNL d   1      33.042  21.717 -20.255  0.00  0.00     0.000 A 
ATOM      7  C   UNL d   1      32.514  22.336 -20.331  0.00  0.00     0.000 A 
ATOM      8  C   UNL d   1      32.154  22.479 -21.059  0.00  0.00     0.000 A 
ATOM      9  C   UNL d   1      32.325  22.001 -21.707  0.00  0.00     0.005 A 
ENDBRANCH   2   4
ENDBRANCH   1   2
BRANCH   1  10
ATOM     10  C   UNL d   1      33.009  19.612 -22.898  0.00  0.00     0.168 C 
BRANCH  10  11
ATOM     11  C   UNL d   1      32.992  18.794 -22.865  0.00  0.00     0.226 C 
ATOM     12  O   UNL d   1      33.199  18.377 -22.183  0.00  0.00    -0.284 OA
BRANCH  11  13
ATOM     13  C   UNL d   1      32.747  18.372 -23.579  0.00  0.00     0.070 A 
ATOM     14  S   UNL d   1      33.238  17.861 -24.062  0.00  0.00    -0.083 SA
ATOM     15  C   UNL d   1      32.759  17.562 -24.717  0.00  0.00     0.035 A 
ATOM     16  C   UNL d   1      31.963  17.891 -24.638  0.00  0.00     0.008 A 
ATOM     17  C   UNL d   1      31.952  18.392 -23.936  0.00  0.00     0.010 A 
ENDBRANCH  11  13
ENDBRANCH  10  11
ENDBRANCH   1  10
TORSDOF 5
ENDMDL
MODEL 5
REMARK VINA RESULT:      -2.1      1.238      1.920
REMARK  5 active torsions:
REMARK  status: ('A' for Active; 'I' for Inactive)
REMARK    1  A    between atoms: C_2  and  C_1 
REMARK    2  A    between atoms: C_6  and  C_2 
REMARK    3  A    between atoms: C_3  and  O_5 
REMARK    4  A    between atoms: C_11  and  C_3 
REMARK    5  A    between atoms: O_5  and  C_6 
ROOT
ATOM      1  O   UNL d   1      33.223  20.875 -22.161  0.00  0.00    -0.268 OA
ENDROOT
BRANCH   1   2
ATOM      2  C   UNL d   1      33.197  20.068 -21.968  0.00  0.00     0.300 C 
ATOM      3  O   UNL d   1      33.171  19.848 -21.186  0.00  0.00    -0.259 OA
BRANCH   2   4
ATOM      4  C   UNL d   1      33.197  19.497 -22.556  0.00  0.00     0.064 A 
ATOM      5  C   UNL d   1      33.183  19.714 -23.344  0.00  0.00     0.005 A 
ATOM      6  C   UNL d   1      33.184  19.143 -23.928  0.00  0.00     0.000 A 
ATOM      7  C   UNL d   1      33.198  18.351 -23.732  0.00  0.00     0.000 A 
ATOM      8  C   UNL d   1      33.213  18.127 -22.938  0.00  0.00     0.000 A 
ATOM      9  C   UNL d   1      33.212  18.699 -22.346  0.00  0.00     0.005 A 
ENDBRANCH   2   4
ENDBRANCH   1   2
BRANCH   1  10
ATOM     10  C   UNL d   1      33.212  21.442 -21.544  0.00  0.00     0.168 C 
BRANCH  10  11
ATOM     11  C   UNL d   1      33.111  22.239 -21.702  0.00  0.00     0.226 C 
ATOM     12  O   UNL d   1      33.240  22.559 -22.451  0.00  0.00    -0.284 OA
BRANCH  11  13
ATOM     13  C   UNL d   1      32.861  22.745 -21.047  0.00  0.00     0.070 A 
ATOM     14  S   UNL d   1      32.220  23.316 -21.061  0.00  0.00    -0.083 SA
ATOM     15  C   UNL d   1      32.172  23.691 -20.283  0.00  0.00     0.035 A 
ATOM     16  C   UNL d   1      32.789  23.350 -19.783  0.00  0.00     0.008 A 
ATOM     17  C   UNL d   1      33.217  22.764 -20.251  0.00  0.00     0.010 A 
ENDBRANCH  11  13
ENDBRANCH  10  11
ENDBRANCH   1  10
TORSDOF 5
ENDMDL
MODEL 6
REMARK VINA RESULT:      -0.9      3.597      5.314
REMARK  5 active torsions:
REMARK  status: ('A' for Active; 'I' for Inactive)
REMARK    1  A    between atoms: C_2  and  C_1 
REMARK    2  A    between atoms: C_6  and  C_2 
REMARK    3  A    between atoms: C_3  and  O_5 
REMARK    4  A    between atoms: C_11  and  C_3 
REMARK    5  A    between atoms: O_5  and  C_6 
ROOT
ATOM      1  O   UNL d   1      30.438  16.943 -24.670  0.00  0.00    -0.268 OA
ENDROOT
BRANCH   1   2
ATOM      2  C   UNL d   1      30.836  17.671 -24.643  0.00  0.00     0.300 C 
ATOM      3  O   UNL d   1      30.449  18.342 -24.889  0.00  0.00    -0.259 OA
BRANCH   2   4
ATOM      4  C   UNL d   1      31.608  17.715 -24.373  0.00  0.00     0.064 A 
ATOM      5  C   UNL d   1      31.937  17.095 -23.954  0.00  0.00     0.005 A 
ATOM      6  C   UNL d   1      32.707  17.142 -23.686  0.00  0.00     0.000 A 
ATOM      7  C   UNL d   1      33.156  17.808 -23.834  0.00  0.00     0.000 A 
ATOM      8  C   UNL d   1      32.829  18.436 -24.256  0.00  0.00     0.000 A 
ATOM      9  C   UNL d   1      32.053  18.394 -24.528  0.00  0.00     0.005 A 
ENDBRANCH   2   4
ENDBRANCH   1   2
BRANCH   1  10
ATOM     10  C   UNL d   1      29.610  16.926 -24.541  0.00  0.00     0.168 C 
BRANCH  10  11
ATOM     11  C   UNL d   1      29.187  16.226 -24.584  0.00  0.00     0.226 C 
ATOM     12  O   UNL d   1      29.400  15.615 -25.096  0.00  0.00    -0.284 OA
BRANCH  11  13
ATOM     13  C   UNL d   1      28.499  16.144 -24.067  0.00  0.00     0.070 A 
ATOM     14  S   UNL d   1      27.995  15.454 -23.995  0.00  0.00    -0.083 SA
ATOM     15  C   UNL d   1      27.378  15.625 -23.413  0.00  0.00     0.035 A 
ATOM     16  C   UNL d   1      27.503  16.429 -23.121  0.00  0.00     0.008 A 
ATOM     17  C   UNL d   1      28.194  16.753 -23.522  0.00  0.00     0.010 A 
ENDBRANCH  11  13
ENDBRANCH  10  11
ENDBRANCH   1  10
TORSDOF 5
ENDMDL
