MODEL 1
REMARK VINA RESULT:      -6.5      0.000      0.000
REMARK  5 active torsions:
REMARK  status: ('A' for Active; 'I' for Inactive)
REMARK    1  A    between atoms: C_11  and  C_8 
REMARK       I    between atoms: N_22  and  C_11 
REMARK    2  A    between atoms: N_14  and  C_24 
REMARK    3  A    between atoms: C_27  and  N_22 
REMARK    4  A    between atoms: C_24  and  C_25 
REMARK    5  A    between atoms: C_25  and  C_27 
ROOT
ATOM      1  C   UNL d   1     -47.321  13.180  22.943  0.00  0.00     0.154 A 
ATOM      2  C   UNL d   1     -47.050  13.929  22.728  0.00  0.00     0.093 A 
ATOM      3  N   UNL d   1     -48.117  13.075  23.155  0.00  0.00    -0.210 NA
ATOM      4  N   UNL d   1     -48.365  14.464  22.935  0.00  0.00    -0.258 N 
ATOM      5  C   UNL d   1     -47.576  14.573  22.724  0.00  0.00     0.269 A 
ATOM      6  N   UNL d   1     -46.691  12.659  22.897  0.00  0.00    -0.285 N 
ATOM      7  C   UNL d   1     -48.636  13.715  23.150  0.00  0.00     0.152 A 
ATOM      8  C   UNL d   1     -46.027  13.079  22.654  0.00  0.00     0.124 A 
ATOM      9  C   UNL d   1     -46.251  13.873  22.548  0.00  0.00     0.030 A 
ATOM     10  C   UNL d   1     -48.882  15.104  22.930  0.00  0.00     0.084 A 
ATOM     11  C   UNL d   1     -49.423  13.607  23.361  0.00  0.00     0.038 A 
ATOM     12  C   UNL d   1     -49.671  14.995  23.140  0.00  0.00     0.018 A 
ATOM     13  C   UNL d   1     -49.942  14.247  23.356  0.00  0.00     0.005 A 
ATOM     14  O   UNL d   1     -47.305  15.321  22.508  0.00  0.00    -0.266 OA
ATOM     15  C   UNL d   1     -46.713  11.848  23.066  0.00  0.00     0.101 C 
ATOM     16  C   UNL d   1     -50.199  15.641  23.137  0.00  0.00     0.002 C 
ENDROOT
BRANCH   8  17
ATOM     17  C   UNL d   1     -45.271  12.771  22.535  0.00  0.00     0.295 C 
ATOM     18  O   UNL d   1     -44.995  12.157  23.010  0.00  0.00    -0.264 OA
ATOM     19  N   UNL d   1     -44.789  13.076  21.941  0.00  0.00    -0.205 NA
BRANCH  19  20
ATOM     20  C   UNL d   1     -44.033  12.768  21.822  0.00  0.00     0.104 C 
BRANCH  20  21
ATOM     21  C   UNL d   1     -43.469  13.208  21.413  0.00  0.00     0.040 C 
BRANCH  21  22
ATOM     22  C   UNL d   1     -42.688  12.923  21.344  0.00  0.00     0.083 C 
BRANCH  22  23
ATOM     23  N   UNL d   1     -42.083  13.431  21.116  0.00  0.00    -0.285 N 
ATOM     24  C   UNL d   1     -42.023  13.983  20.509  0.00  0.00     0.183 A 
ATOM     25  N   UNL d   1     -41.280  14.333  20.549  0.00  0.00    -0.222 NA
ATOM     26  C   UNL d   1     -40.866  14.002  21.182  0.00  0.00     0.120 A 
ATOM     27  C   UNL d   1     -41.370  13.440  21.534  0.00  0.00     0.102 A 
ENDBRANCH  22  23
ENDBRANCH  21  22
ENDBRANCH  20  21
ENDBRANCH  19  20
ENDBRANCH   8  17
TORSDOF 5
ENDMDL
MODEL 2
REMARK VINA RESULT:      -4.7      3.837      8.619
REMARK  5 active torsions:
REMARK  status: ('A' for Active; 'I' for Inactive)
REMARK    1  A    between atoms: C_11  and  C_8 
REMARK       I    between atoms: N_22  and  C_11 
REMARK    2  A    between atoms: N_14  and  C_24 
REMARK    3  A    between atoms: C_27  and  N_22 
REMARK    4  A    between atoms: C_24  and  C_25 
REMARK    5  A    between atoms: C_25  and  C_27 
ROOT
ATOM      1  C   UNL d   1     -39.756  14.892  18.207  0.00  0.00     0.154 A 
ATOM      2  C   UNL d   1     -39.606  14.082  18.258  0.00  0.00     0.093 A 
ATOM      3  N   UNL d   1     -39.510  15.315  17.536  0.00  0.00    -0.210 NA
ATOM      4  N   UNL d   1     -38.969  14.119  16.974  0.00  0.00    -0.258 N 
ATOM      5  C   UNL d   1     -39.211  13.695  17.638  0.00  0.00     0.269 A 
ATOM      6  N   UNL d   1     -40.148  15.121  18.889  0.00  0.00    -0.285 N 
ATOM      7  C   UNL d   1     -39.119  14.928  16.923  0.00  0.00     0.152 A 
ATOM      8  C   UNL d   1     -40.244  14.458  19.366  0.00  0.00     0.124 A 
ATOM      9  C   UNL d   1     -39.906  13.808  18.972  0.00  0.00     0.030 A 
ATOM     10  C   UNL d   1     -38.578  13.732  16.362  0.00  0.00     0.084 A 
ATOM     11  C   UNL d   1     -38.877  15.351  16.260  0.00  0.00     0.038 A 
ATOM     12  C   UNL d   1     -38.336  14.155  15.698  0.00  0.00     0.018 A 
ATOM     13  C   UNL d   1     -38.486  14.965  15.647  0.00  0.00     0.005 A 
ATOM     14  O   UNL d   1     -39.062  12.885  17.689  0.00  0.00    -0.266 OA
ATOM     15  C   UNL d   1     -40.405  15.887  19.071  0.00  0.00     0.101 C 
ATOM     16  C   UNL d   1     -37.940  13.768  15.074  0.00  0.00     0.002 C 
ENDROOT
BRANCH   8  17
ATOM     17  C   UNL d   1     -40.611  14.437  20.105  0.00  0.00     0.295 C 
ATOM     18  O   UNL d   1     -40.303  14.875  20.731  0.00  0.00    -0.264 OA
ATOM     19  N   UNL d   1     -41.285  13.978  20.219  0.00  0.00    -0.205 NA
BRANCH  19  20
ATOM     20  C   UNL d   1     -41.651  13.957  20.957  0.00  0.00     0.104 C 
BRANCH  20  21
ATOM     21  C   UNL d   1     -42.131  13.320  21.161  0.00  0.00     0.040 C 
BRANCH  21  22
ATOM     22  C   UNL d   1     -42.960  13.389  21.112  0.00  0.00     0.083 C 
BRANCH  22  23
ATOM     23  N   UNL d   1     -43.442  12.897  21.563  0.00  0.00    -0.285 N 
ATOM     24  C   UNL d   1     -43.304  12.179  21.938  0.00  0.00     0.183 A 
ATOM     25  N   UNL d   1     -43.998  11.942  22.310  0.00  0.00    -0.222 NA
ATOM     26  C   UNL d   1     -44.579  12.512  22.171  0.00  0.00     0.120 A 
ATOM     27  C   UNL d   1     -44.230  13.106  21.704  0.00  0.00     0.102 A 
ENDBRANCH  22  23
ENDBRANCH  21  22
ENDBRANCH  20  21
ENDBRANCH  19  20
ENDBRANCH   8  17
TORSDOF 5
ENDMDL
MODEL 3
REMARK VINA RESULT:      -4.2      2.636      7.534
REMARK  5 active torsions:
REMARK  status: ('A' for Active; 'I' for Inactive)
REMARK    1  A    between atoms: C_11  and  C_8 
REMARK       I    between atoms: N_22  and  C_11 
REMARK    2  A    between atoms: N_14  and  C_24 
REMARK    3  A    between atoms: C_27  and  N_22 
REMARK    4  A    between atoms: C_24  and  C_25 
REMARK    5  A    between atoms: C_25  and  C_27 
ROOT
ATOM      1  C   UNL d   1     -40.412  14.609  19.949  0.00  0.00     0.154 A 
ATOM      2  C   UNL d   1     -40.822  14.241  19.335  0.00  0.00     0.093 A 
ATOM      3  N   UNL d   1     -39.784  15.124  19.775  0.00  0.00    -0.210 NA
ATOM      4  N   UNL d   1     -39.980  14.899  18.379  0.00  0.00    -0.258 N 
ATOM      5  C   UNL d   1     -40.603  14.388  18.547  0.00  0.00     0.269 A 
ATOM      6  N   UNL d   1     -40.743  14.365  20.658  0.00  0.00    -0.285 N 
ATOM      7  C   UNL d   1     -39.570  15.268  18.993  0.00  0.00     0.152 A 
ATOM      8  C   UNL d   1     -41.358  13.846  20.489  0.00  0.00     0.124 A 
ATOM      9  C   UNL d   1     -41.407  13.768  19.662  0.00  0.00     0.030 A 
ATOM     10  C   UNL d   1     -39.767  15.042  17.597  0.00  0.00     0.084 A 
ATOM     11  C   UNL d   1     -38.948  15.779  18.825  0.00  0.00     0.038 A 
ATOM     12  C   UNL d   1     -39.144  15.554  17.429  0.00  0.00     0.018 A 
ATOM     13  C   UNL d   1     -38.734  15.922  18.043  0.00  0.00     0.005 A 
ATOM     14  O   UNL d   1     -41.013  14.019  17.933  0.00  0.00    -0.266 OA
ATOM     15  C   UNL d   1     -40.504  14.598  21.416  0.00  0.00     0.101 C 
ATOM     16  C   UNL d   1     -38.923  15.702  16.638  0.00  0.00     0.002 C 
ENDROOT
BRANCH   8  17
ATOM     17  C   UNL d   1     -41.842  13.467  21.039  0.00  0.00     0.295 C 
ATOM     18  O   UNL d   1     -41.510  13.098  21.697  0.00  0.00    -0.264 OA
ATOM     19  N   UNL d   1     -42.658  13.456  20.933  0.00  0.00    -0.205 NA
BRANCH  19  20
ATOM     20  C   UNL d   1     -43.143  13.077  21.483  0.00  0.00     0.104 C 
BRANCH  20  21
ATOM     21  C   UNL d   1     -43.935  13.290  21.550  0.00  0.00     0.040 C 
BRANCH  21  22
ATOM     22  C   UNL d   1     -44.487  12.749  21.864  0.00  0.00     0.083 C 
BRANCH  22  23
ATOM     23  N   UNL d   1     -45.170  13.024  22.231  0.00  0.00    -0.285 N 
ATOM     24  C   UNL d   1     -45.503  13.775  22.293  0.00  0.00     0.183 A 
ATOM     25  N   UNL d   1     -46.196  13.717  22.730  0.00  0.00    -0.222 NA
ATOM     26  C   UNL d   1     -46.305  12.927  22.948  0.00  0.00     0.120 A 
ATOM     27  C   UNL d   1     -45.664  12.498  22.636  0.00  0.00     0.102 A 
ENDBRANCH  22  23
ENDBRANCH  21  22
ENDBRANCH  20  21
ENDBRANCH  19  20
ENDBRANCH   8  17
TORSDOF 5
ENDMDL
MODEL 4
REMARK VINA RESULT:      -3.7      1.422      5.845
REMARK  5 active torsions:
REMARK  status: ('A' for Active; 'I' for Inactive)
REMARK    1  A    between atoms: C_11  and  C_8 
REMARK       I    between atoms: N_22  and  C_11 
REMARK    2  A    between atoms: N_14  and  C_24 
REMARK    3  A    between atoms: C_27  and  N_22 
REMARK    4  A    between atoms: C_24  and  C_25 
REMARK    5  A    between atoms: C_25  and  C_27 
ROOT
ATOM      1  C   UNL d   1     -45.656  12.070  22.824  0.00  0.00     0.154 A 
ATOM      2  C   UNL d   1     -45.836  12.772  22.431  0.00  0.00     0.093 A 
ATOM      3  N   UNL d   1     -44.887  11.760  22.781  0.00  0.00    -0.210 NA
ATOM      4  N   UNL d   1     -44.486  12.853  21.954  0.00  0.00    -0.258 N 
ATOM      5  C   UNL d   1     -45.248  13.164  21.994  0.00  0.00     0.269 A 
ATOM      6  N   UNL d   1     -46.334  11.810  23.204  0.00  0.00    -0.285 N 
ATOM      7  C   UNL d   1     -44.306  12.150  22.348  0.00  0.00     0.152 A 
ATOM      8  C   UNL d   1     -46.937  12.347  23.049  0.00  0.00     0.124 A 
ATOM      9  C   UNL d   1     -46.626  12.949  22.566  0.00  0.00     0.030 A 
ATOM     10  C   UNL d   1     -43.906  13.244  21.521  0.00  0.00     0.084 A 
ATOM     11  C   UNL d   1     -43.545  11.839  22.308  0.00  0.00     0.038 A 
ATOM     12  C   UNL d   1     -43.144  12.933  21.481  0.00  0.00     0.018 A 
ATOM     13  C   UNL d   1     -42.964  12.230  21.875  0.00  0.00     0.005 A 
ATOM     14  O   UNL d   1     -45.428  13.867  21.601  0.00  0.00    -0.266 OA
ATOM     15  C   UNL d   1     -46.405  11.125  23.664  0.00  0.00     0.101 C 
ATOM     16  C   UNL d   1     -42.552  13.325  21.044  0.00  0.00     0.002 C 
ENDROOT
BRANCH   8  17
ATOM     17  C   UNL d   1     -47.714  12.301  23.323  0.00  0.00     0.295 C 
ATOM     18  O   UNL d   1     -47.980  11.616  23.697  0.00  0.00    -0.264 OA
ATOM     19  N   UNL d   1     -48.226  12.938  23.224  0.00  0.00    -0.205 NA
BRANCH  19  20
ATOM     20  C   UNL d   1     -49.003  12.892  23.498  0.00  0.00     0.104 C 
BRANCH  20  21
ATOM     21  C   UNL d   1     -49.570  13.419  23.218  0.00  0.00     0.040 C 
BRANCH  21  22
ATOM     22  C   UNL d   1     -49.809  14.064  23.690  0.00  0.00     0.083 C 
BRANCH  22  23
ATOM     23  N   UNL d   1     -50.215  14.694  23.351  0.00  0.00    -0.285 N 
ATOM     24  C   UNL d   1     -50.217  15.501  23.511  0.00  0.00     0.183 A 
ATOM     25  N   UNL d   1     -50.736  15.868  22.989  0.00  0.00    -0.222 NA
ATOM     26  C   UNL d   1     -51.064  15.292  22.496  0.00  0.00     0.120 A 
ATOM     27  C   UNL d   1     -50.738  14.562  22.725  0.00  0.00     0.102 A 
ENDBRANCH  22  23
ENDBRANCH  21  22
ENDBRANCH  20  21
ENDBRANCH  19  20
ENDBRANCH   8  17
TORSDOF 5
ENDMDL
