MODEL 1
REMARK VINA RESULT:      34.2      0.000      0.000
REMARK  5 active torsions:
REMARK  status: ('A' for Active; 'I' for Inactive)
REMARK    1  A    between atoms: C_2  and  C_1 
REMARK    2  A    between atoms: C_5  and  C_2 
REMARK    3  A    between atoms: C_11  and  C_5 
REMARK    4  A    between atoms: C_10  and  C_12 
REMARK    5  A    between atoms: O_19  and  C_10 
ROOT
ATOM      1  C   UNL d   1      14.824  12.600  -1.190  0.00  0.00     0.131 C 
ATOM      2  C   UNL d   1      15.540  12.177  -1.116  0.00  0.00     0.106 C 
ATOM      3  N   UNL d   1      16.219  11.779  -1.037  0.00  0.00    -0.191 NA
ENDROOT
BRANCH   1   4
ATOM      4  C   UNL d   1      14.397  12.547  -1.876  0.00  0.00     0.123 A 
ATOM      5  N   UNL d   1      14.498  13.035  -2.532  0.00  0.00    -0.238 NA
ATOM      6  C   UNL d   1      13.942  12.786  -3.116  0.00  0.00     0.088 A 
ATOM      7  C   UNL d   1      13.788  13.052  -3.855  0.00  0.00     0.020 A 
ATOM      8  C   UNL d   1      13.516  12.153  -2.802  0.00  0.00     0.049 A 
ATOM      9  C   UNL d   1      13.207  12.695  -4.297  0.00  0.00     0.002 A 
ATOM     10  C   UNL d   1      12.770  12.045  -3.974  0.00  0.00     0.001 A 
ATOM     11  C   UNL d   1      12.932  11.780  -3.224  0.00  0.00     0.008 A 
ATOM     12  S   UNL d   1      13.808  12.009  -2.023  0.00  0.00    -0.066 SA
ENDBRANCH   1   4
BRANCH   1  13
ATOM     13  C   UNL d   1      14.553  13.068  -0.571  0.00  0.00     0.207 C 
ATOM     14  O   UNL d   1      14.024  12.754  -0.015  0.00  0.00    -0.286 OA
BRANCH  13  15
ATOM     15  C   UNL d   1      14.816  13.877  -0.498  0.00  0.00     0.040 A 
ATOM     16  C   UNL d   1      14.276  14.487  -0.574  0.00  0.00     0.003 A 
ATOM     17  C   UNL d   1      14.530  15.270  -0.503  0.00  0.00     0.005 A 
ATOM     18  C   UNL d   1      15.320  15.427  -0.358  0.00  0.00     0.063 A 
ATOM     19  C   UNL d   1      15.868  14.815  -0.281  0.00  0.00     0.005 A 
ATOM     20  C   UNL d   1      15.613  14.032  -0.352  0.00  0.00     0.003 A 
BRANCH  18  21
ATOM     21  C   UNL d   1      15.583  16.237  -0.286  0.00  0.00     0.296 C 
ATOM     22  O   UNL d   1      16.349  16.398  -0.016  0.00  0.00    -0.259 OA
BRANCH  21  23
ATOM     23  O   UNL d   1      15.077  16.854  -0.482  0.00  0.00    -0.296 OA
ATOM     24  C   UNL d   1      15.361  17.504  -0.905  0.00  0.00     0.185 C 
ENDBRANCH  21  23
ENDBRANCH  18  21
ENDBRANCH  13  15
ENDBRANCH   1  13
TORSDOF 5
ENDMDL
