MODEL 1
REMARK VINA RESULT:      -3.1      0.000      0.000
REMARK  5 active torsions:
REMARK  status: ('A' for Active; 'I' for Inactive)
REMARK    1  A    between atoms: C_17  and  N_5 
REMARK    2  A    between atoms: S_14  and  C_6 
REMARK    3  A    between atoms: C_11  and  C_18 
REMARK    4  A    between atoms: C_18  and  S_14 
REMARK    5  A    between atoms: C_19  and  C_17 
ROOT
ATOM      1  C   UNL d   1     -41.587-122.575 -53.189  0.00  0.00     0.081 A 
ATOM      2  C   UNL d   1     -41.642-123.384 -53.013  0.00  0.00     0.117 A 
ATOM      3  N   UNL d   1     -41.525-123.646 -52.238  0.00  0.00    -0.215 NA
ATOM      4  C   UNL d   1     -41.415-122.030 -52.595  0.00  0.00     0.268 A 
ATOM      5  N   UNL d   1     -41.296-122.291 -51.813  0.00  0.00    -0.253 N 
ATOM      6  C   UNL d   1     -41.352-123.100 -51.639  0.00  0.00     0.182 A 
ATOM      7  S   UNL d   1     -41.817-123.781 -53.708  0.00  0.00    -0.068 SA
ATOM      8  C   UNL d   1     -41.728-122.479 -53.997  0.00  0.00     0.013 A 
ATOM      9  C   UNL d   1     -41.870-123.222 -54.317  0.00  0.00     0.031 A 
ATOM     10  O   UNL d   1     -41.360-121.234 -52.769  0.00  0.00    -0.267 OA
ATOM     11  C   UNL d   1     -41.718-121.748 -54.373  0.00  0.00     0.001 A 
ATOM     12  C   UNL d   1     -42.040-123.424 -55.100  0.00  0.00     0.006 A 
ATOM     13  C   UNL d   1     -41.849-121.575 -55.169  0.00  0.00     0.000 A 
ATOM     14  C   UNL d   1     -42.108-122.926 -55.751  0.00  0.00     0.001 A 
ATOM     15  C   UNL d   1     -42.024-122.103 -55.789  0.00  0.00     0.000 A 
ENDROOT
BRANCH   6  16
ATOM     16  S   UNL d   1     -41.234-123.361 -50.860  0.00  0.00    -0.048 SA
BRANCH  16  17
ATOM     17  C   UNL d   1     -41.810-123.813 -50.487  0.00  0.00     0.058 C 
BRANCH  17  18
ATOM     18  C   UNL d   1     -41.880-123.795 -49.662  0.00  0.00     0.095 A 
ATOM     19  N   UNL d   1     -41.270-123.796 -49.130  0.00  0.00    -0.238 NA
ATOM     20  C   UNL d   1     -41.595-123.775 -48.378  0.00  0.00     0.111 A 
ATOM     21  C   UNL d   1     -41.197-123.768 -47.668  0.00  0.00     0.028 C 
ATOM     22  S   UNL d   1     -42.400-123.762 -48.455  0.00  0.00    -0.066 SA
ATOM     23  C   UNL d   1     -42.578-123.774 -49.243  0.00  0.00     0.057 A 
ENDBRANCH  17  18
ENDBRANCH  16  17
ENDBRANCH   6  16
BRANCH   5  24
ATOM     24  C   UNL d   1     -41.125-121.757 -51.214  0.00  0.00     0.085 C 
BRANCH  24  25
ATOM     25  C   UNL d   1     -41.135-120.935 -51.380  0.00  0.00     0.019 C 
ATOM     26  C   UNL d   1     -41.144-120.388 -50.763  0.00  0.00     0.002 C 
ENDBRANCH  24  25
ENDBRANCH   5  24
TORSDOF 5
ENDMDL
MODEL 2
REMARK VINA RESULT:      -2.1      1.335      4.839
REMARK  5 active torsions:
REMARK  status: ('A' for Active; 'I' for Inactive)
REMARK    1  A    between atoms: C_17  and  N_5 
REMARK    2  A    between atoms: S_14  and  C_6 
REMARK    3  A    between atoms: C_11  and  C_18 
REMARK    4  A    between atoms: C_18  and  S_14 
REMARK    5  A    between atoms: C_19  and  C_17 
ROOT
ATOM      1  C   UNL d   1     -42.074-122.480 -50.035  0.00  0.00     0.081 A 
ATOM      2  C   UNL d   1     -42.380-123.063 -50.539  0.00  0.00     0.117 A 
ATOM      3  N   UNL d   1     -42.266-123.004 -51.356  0.00  0.00    -0.215 NA
ATOM      4  C   UNL d   1     -41.656-121.840 -50.342  0.00  0.00     0.268 A 
ATOM      5  N   UNL d   1     -41.538-121.777 -51.165  0.00  0.00    -0.253 N 
ATOM      6  C   UNL d   1     -41.845-122.362 -51.668  0.00  0.00     0.182 A 
ATOM      7  S   UNL d   1     -42.764-123.620 -50.076  0.00  0.00    -0.068 SA
ATOM      8  C   UNL d   1     -42.273-122.683 -49.259  0.00  0.00     0.013 A 
ATOM      9  C   UNL d   1     -42.698-123.386 -49.284  0.00  0.00     0.031 A 
ATOM     10  O   UNL d   1     -41.354-121.266 -49.846  0.00  0.00    -0.267 OA
ATOM     11  C   UNL d   1     -42.061-122.231 -48.607  0.00  0.00     0.001 A 
ATOM     12  C   UNL d   1     -43.020-123.817 -48.659  0.00  0.00     0.006 A 
ATOM     13  C   UNL d   1     -42.221-122.368 -47.809  0.00  0.00     0.000 A 
ATOM     14  C   UNL d   1     -42.994-123.646 -47.855  0.00  0.00     0.001 A 
ATOM     15  C   UNL d   1     -42.640-123.003 -47.470  0.00  0.00     0.000 A 
ENDROOT
BRANCH   6  16
ATOM     16  S   UNL d   1     -41.728-122.300 -52.487  0.00  0.00    -0.048 SA
BRANCH  16  17
ATOM     17  C   UNL d   1     -41.802-122.965 -52.963  0.00  0.00     0.058 C 
BRANCH  17  18
ATOM     18  C   UNL d   1     -41.734-122.895 -53.785  0.00  0.00     0.095 A 
ATOM     19  N   UNL d   1     -42.241-122.497 -54.276  0.00  0.00    -0.238 NA
ATOM     20  C   UNL d   1     -41.960-122.574 -55.041  0.00  0.00     0.111 A 
ATOM     21  C   UNL d   1     -42.286-122.268 -55.720  0.00  0.00     0.028 C 
ATOM     22  S   UNL d   1     -41.284-123.018 -55.015  0.00  0.00    -0.066 SA
ATOM     23  C   UNL d   1     -41.143-123.217 -54.244  0.00  0.00     0.057 A 
ENDBRANCH  17  18
ENDBRANCH  16  17
ENDBRANCH   6  16
BRANCH   5  24
ATOM     24  C   UNL d   1     -41.123-121.145 -51.482  0.00  0.00     0.085 C 
BRANCH  24  25
ATOM     25  C   UNL d   1     -41.429-120.369 -51.401  0.00  0.00     0.019 C 
ATOM     26  C   UNL d   1     -41.134-119.756 -51.866  0.00  0.00     0.002 C 
ENDBRANCH  24  25
ENDBRANCH   5  24
TORSDOF 5
ENDMDL
