MODEL 1
REMARK VINA RESULT:      22.1      0.000      0.000
REMARK  5 active torsions:
REMARK  status: ('A' for Active; 'I' for Inactive)
REMARK    1  A    between atoms: S_10  and  C_4 
REMARK    2  A    between atoms: C_15  and  S_10 
REMARK    3  A    between atoms: C_11  and  C_15 
REMARK       I    between atoms: N_12  and  C_11 
REMARK    4  A    between atoms: C_16  and  N_12 
REMARK    5  A    between atoms: C_17  and  C_16 
ROOT
ATOM      1  C   UNL d   1      46.569 -18.380  43.285  0.00  0.00     0.141 A 
ATOM      2  C   UNL d   1      46.563 -19.166  43.037  0.00  0.00     0.110 A 
ATOM      3  O   UNL d   1      46.599 -17.900  42.614  0.00  0.00    -0.303 OA
ATOM      4  C   UNL d   1      46.547 -18.201  44.090  0.00  0.00     0.137 A 
ATOM      5  N   UNL d   1      46.518 -18.810  44.646  0.00  0.00    -0.218 NA
ATOM      6  C   UNL d   1      46.589 -19.173  42.211  0.00  0.00     0.043 A 
ATOM      7  N   UNL d   1      46.534 -19.775  43.593  0.00  0.00    -0.225 NA
ATOM      8  C   UNL d   1      46.612 -18.390  41.950  0.00  0.00     0.102 A 
ATOM      9  C   UNL d   1      46.512 -19.596  44.398  0.00  0.00     0.163 A 
ATOM     10  C   UNL d   1      46.596 -19.791  41.664  0.00  0.00     0.004 A 
ATOM     11  C   UNL d   1      46.641 -18.226  41.142  0.00  0.00     0.025 A 
ATOM     12  C   UNL d   1      46.483 -20.204  44.955  0.00  0.00     0.042 C 
ATOM     13  C   UNL d   1      46.625 -19.626  40.856  0.00  0.00     0.000 A 
ATOM     14  C   UNL d   1      46.647 -18.844  40.595  0.00  0.00     0.002 A 
ENDROOT
BRANCH   4  15
ATOM     15  S   UNL d   1      46.553 -17.416  44.339  0.00  0.00    -0.060 SA
BRANCH  15  16
ATOM     16  C   UNL d   1      45.949 -16.903  44.103  0.00  0.00     0.099 C 
BRANCH  16  17
ATOM     17  C   UNL d   1      45.392 -16.642  44.651  0.00  0.00     0.286 C 
ATOM     18  N   UNL d   1      45.393 -15.854  44.897  0.00  0.00    -0.204 NA
ATOM     19  O   UNL d   1      44.832 -17.168  44.955  0.00  0.00    -0.265 OA
BRANCH  18  20
ATOM     20  C   UNL d   1      45.951 -15.328  44.595  0.00  0.00     0.127 C 
BRANCH  20  21
ATOM     21  C   UNL d   1      45.775 -14.524  44.542  0.00  0.00     0.119 A 
ATOM     22  O   UNL d   1      45.057 -14.200  44.296  0.00  0.00    -0.304 OA
ATOM     23  C   UNL d   1      45.124 -13.379  44.326  0.00  0.00     0.123 A 
ATOM     24  C   UNL d   1      45.883 -13.194  44.590  0.00  0.00     0.029 A 
ATOM     25  C   UNL d   1      46.286 -13.902  44.724  0.00  0.00     0.028 A 
ENDBRANCH  20  21
ENDBRANCH  18  20
ENDBRANCH  16  17
ENDBRANCH  15  16
ENDBRANCH   4  15
TORSDOF 5
ENDMDL
MODEL 2
REMARK VINA RESULT:      24.4      1.195      4.977
REMARK  5 active torsions:
REMARK  status: ('A' for Active; 'I' for Inactive)
REMARK    1  A    between atoms: S_10  and  C_4 
REMARK    2  A    between atoms: C_15  and  S_10 
REMARK    3  A    between atoms: C_11  and  C_15 
REMARK       I    between atoms: N_12  and  C_11 
REMARK    4  A    between atoms: C_16  and  N_12 
REMARK    5  A    between atoms: C_17  and  C_16 
ROOT
ATOM      1  C   UNL d   1      45.545 -14.771  44.263  0.00  0.00     0.141 A 
ATOM      2  C   UNL d   1      44.867 -14.304  44.212  0.00  0.00     0.110 A 
ATOM      3  O   UNL d   1      46.186 -14.321  43.999  0.00  0.00    -0.303 OA
ATOM      4  C   UNL d   1      45.494 -15.545  44.542  0.00  0.00     0.137 A 
ATOM      5  N   UNL d   1      44.762 -15.852  44.771  0.00  0.00    -0.218 NA
ATOM      6  C   UNL d   1      45.088 -13.565  43.916  0.00  0.00     0.043 A 
ATOM      7  N   UNL d   1      44.137 -14.610  44.440  0.00  0.00    -0.225 NA
ATOM      8  C   UNL d   1      45.903 -13.576  43.785  0.00  0.00     0.102 A 
ATOM      9  C   UNL d   1      44.084 -15.385  44.721  0.00  0.00     0.163 A 
ATOM     10  C   UNL d   1      44.653 -12.884  43.750  0.00  0.00     0.004 A 
ATOM     11  C   UNL d   1      46.282 -12.906  43.487  0.00  0.00     0.025 A 
ATOM     12  C   UNL d   1      43.354 -15.692  44.949  0.00  0.00     0.042 C 
ATOM     13  C   UNL d   1      45.032 -12.214  43.452  0.00  0.00     0.000 A 
ATOM     14  C   UNL d   1      45.846 -12.225  43.321  0.00  0.00     0.002 A 
ENDROOT
BRANCH   4  15
ATOM     15  S   UNL d   1      46.170 -16.012  44.594  0.00  0.00    -0.060 SA
BRANCH  15  16
ATOM     16  C   UNL d   1      46.335 -16.566  44.003  0.00  0.00     0.099 C 
BRANCH  16  17
ATOM     17  C   UNL d   1      46.325 -17.371  44.178  0.00  0.00     0.286 C 
ATOM     18  N   UNL d   1      46.197 -17.922  43.576  0.00  0.00    -0.204 NA
ATOM     19  O   UNL d   1      46.442 -17.627  44.954  0.00  0.00    -0.265 OA
BRANCH  18  20
ATOM     20  C   UNL d   1      46.080 -17.668  42.801  0.00  0.00     0.127 C 
BRANCH  20  21
ATOM     21  C   UNL d   1      46.288 -18.155  42.170  0.00  0.00     0.119 A 
ATOM     22  O   UNL d   1      46.360 -17.922  41.381  0.00  0.00    -0.304 OA
ATOM     23  C   UNL d   1      46.576 -18.583  40.939  0.00  0.00     0.123 A 
ATOM     24  C   UNL d   1      46.638 -19.225  41.453  0.00  0.00     0.029 A 
ATOM     25  C   UNL d   1      46.460 -18.961  42.214  0.00  0.00     0.028 A 
ENDBRANCH  20  21
ENDBRANCH  18  20
ENDBRANCH  16  17
ENDBRANCH  15  16
ENDBRANCH   4  15
TORSDOF 5
ENDMDL
