MODEL 1
REMARK VINA RESULT:      13.5      0.000      0.000
REMARK  7 active torsions:
REMARK  status: ('A' for Active; 'I' for Inactive)
REMARK    1  A    between atoms: C_6  and  C_1 
REMARK    2  A    between atoms: O_8  and  C_6 
REMARK    3  A    between atoms: C_13  and  O_8 
REMARK    4  A    between atoms: C_9  and  C_13 
REMARK    5  A    between atoms: C_15  and  C_9 
REMARK    6  A    between atoms: C_19  and  C_11 
REMARK    7  A    between atoms: C_16  and  C_19 
ROOT
ATOM      1  C   UNL d   1      46.184 -17.105  43.574  0.00  0.00     0.127 A 
ATOM      2  C   UNL d   1      46.254 -17.786  44.090  0.00  0.00     0.305 A 
ATOM      3  O   UNL d   1      46.324 -18.538  43.788  0.00  0.00    -0.273 OA
ATOM      4  C   UNL d   1      46.189 -17.223  42.791  0.00  0.00     0.013 A 
ATOM      5  C   UNL d   1      46.327 -18.630  42.967  0.00  0.00     0.103 A 
ATOM      6  C   UNL d   1      46.260 -17.975  42.470  0.00  0.00     0.023 A 
ATOM      7  O   UNL d   1      46.254 -17.721  44.954  0.00  0.00    -0.259 OA
ATOM      8  C   UNL d   1      46.398 -19.385  42.661  0.00  0.00     0.023 A 
ATOM      9  C   UNL d   1      46.263 -18.070  41.664  0.00  0.00     0.002 A 
ATOM     10  C   UNL d   1      46.330 -18.788  41.336  0.00  0.00     0.000 A 
ATOM     11  C   UNL d   1      46.400 -19.469  41.852  0.00  0.00     0.002 A 
ENDROOT
BRANCH   1  12
ATOM     12  C   UNL d   1      46.110 -16.323  43.853  0.00  0.00     0.305 C 
ATOM     13  O   UNL d   1      46.647 -15.735  43.597  0.00  0.00    -0.259 OA
BRANCH  12  14
ATOM     14  O   UNL d   1      45.486 -16.114  44.404  0.00  0.00    -0.268 OA
BRANCH  14  15
ATOM     15  C   UNL d   1      45.559 -15.401  44.779  0.00  0.00     0.168 C 
BRANCH  15  16
ATOM     16  C   UNL d   1      44.946 -14.854  44.707  0.00  0.00     0.220 C 
ATOM     17  O   UNL d   1      44.187 -15.057  44.947  0.00  0.00    -0.284 OA
BRANCH  16  18
ATOM     18  C   UNL d   1      45.077 -14.091  44.391  0.00  0.00     0.041 A 
ATOM     19  C   UNL d   1      44.648 -13.840  43.748  0.00  0.00     0.003 A 
ATOM     20  C   UNL d   1      44.781 -13.085  43.440  0.00  0.00     0.000 A 
ATOM     21  C   UNL d   1      45.365 -12.573  43.793  0.00  0.00     0.000 A 
ATOM     22  C   UNL d   1      45.789 -12.848  44.444  0.00  0.00     0.000 A 
ATOM     23  C   UNL d   1      45.643 -13.610  44.743  0.00  0.00     0.003 A 
ENDBRANCH  16  18
ENDBRANCH  15  16
ENDBRANCH  14  15
ENDBRANCH  12  14
ENDBRANCH   1  12
BRANCH   8  24
ATOM     24  C   UNL d   1      46.466 -20.056  43.137  0.00  0.00     0.002 C 
BRANCH  24  25
ATOM     25  C   UNL d   1      46.011 -20.113  43.803  0.00  0.00     0.000 C 
ATOM     26  C   UNL d   1      46.378 -20.330  44.547  0.00  0.00     0.000 C 
ENDBRANCH  24  25
ENDBRANCH   8  24
TORSDOF 7
ENDMDL
