MODEL 1
REMARK VINA RESULT:      -3.9      0.000      0.000
REMARK  7 active torsions:
REMARK  status: ('A' for Active; 'I' for Inactive)
REMARK    1  A    between atoms: N_8  and  C_1 
REMARK    2  A    between atoms: C_14  and  C_2 
REMARK    3  A    between atoms: S_3  and  C_16 
REMARK    4  A    between atoms: N_7  and  S_3 
REMARK       I    between atoms: C_12  and  N_8 
REMARK       I    between atoms: C_13  and  N_11 
REMARK    5  A    between atoms: C_22  and  C_12 
REMARK    6  A    between atoms: O_33  and  C_13 
REMARK    7  A    between atoms: C_38  and  O_33 
ROOT
ATOM      1  C   UNL d   1     -43.633  13.385  21.539  0.00  0.00     0.104 A 
ATOM      2  C   UNL d   1     -45.125  13.051  22.138  0.00  0.00     0.056 A 
ATOM      3  C   UNL d   1     -44.120  14.001  21.797  0.00  0.00     0.013 A 
ATOM      4  C   UNL d   1     -43.889  12.602  21.579  0.00  0.00     0.013 A 
ATOM      5  C   UNL d   1     -44.869  13.835  22.098  0.00  0.00     0.005 A 
ATOM      6  C   UNL d   1     -44.642  12.437  21.882  0.00  0.00     0.005 A 
ENDROOT
BRANCH   2   7
ATOM      7  C   UNL d   1     -45.875  12.879  22.439  0.00  0.00     0.258 C 
ATOM      8  N   UNL d   1     -46.540  13.301  22.169  0.00  0.00    -0.316 N 
ATOM      9  H   UNL d   1     -46.077  13.588  21.815  0.00  0.00     0.169 HD
ATOM     10  O   UNL d   1     -45.978  12.289  23.010  0.00  0.00    -0.267 OA
BRANCH   8  11
ATOM     11  C   UNL d   1     -47.290  13.130  22.470  0.00  0.00     0.094 A 
ATOM     12  C   UNL d   1     -47.920  13.653  22.515  0.00  0.00     0.081 A 
ATOM     13  C   UNL d   1     -48.568  13.261  22.850  0.00  0.00     0.008 A 
ATOM     14  C   UNL d   1     -49.332  13.509  23.024  0.00  0.00    -0.004 A 
ATOM     15  C   UNL d   1     -48.338  12.490  23.013  0.00  0.00     0.028 A 
ATOM     16  C   UNL d   1     -49.865  12.982  23.363  0.00  0.00     0.099 A 
ATOM     17  C   UNL d   1     -50.472  13.548  23.388  0.00  0.00     0.029 C 
ATOM     18  C   UNL d   1     -50.519  12.600  23.697  0.00  0.00     0.029 C 
ATOM     19  N   UNL d   1     -49.646  12.209  23.531  0.00  0.00    -0.294 NA
ATOM     20  C   UNL d   1     -48.872  11.962  23.352  0.00  0.00     0.104 A 
ATOM     21  C   UNL d   1     -48.267  11.393  23.329  0.00  0.00     0.029 C 
ATOM     22  C   UNL d   1     -49.391  11.400  23.697  0.00  0.00     0.029 C 
ATOM     23  S   UNL d   1     -47.544  12.401  22.779  0.00  0.00    -0.072 SA
BRANCH  12  24
ATOM     24  C   UNL d   1     -47.918  14.438  22.271  0.00  0.00     0.299 C 
ATOM     25  O   UNL d   1     -47.621  15.013  22.764  0.00  0.00    -0.264 OA
ATOM     26  N   UNL d   1     -48.213  14.633  21.541  0.00  0.00    -0.102 N 
ENDBRANCH  12  24
ENDBRANCH   8  11
ENDBRANCH   2   7
BRANCH   1  27
ATOM     27  S   UNL d   1     -42.874  13.557  21.235  0.00  0.00     0.271 S 
ATOM     28  O   UNL d   1     -42.851  12.779  20.944  0.00  0.00    -0.200 OA
ATOM     29  O   UNL d   1     -42.907  14.328  21.527  0.00  0.00    -0.200 OA
BRANCH  27  30
ATOM     30  N   UNL d   1     -42.131  13.726  20.937  0.00  0.00    -0.226 N 
ATOM     31  C   UNL d   1     -41.502  13.883  21.443  0.00  0.00     0.111 A 
ATOM     32  C   UNL d   1     -40.760  14.051  21.128  0.00  0.00     0.105 A 
ATOM     33  N   UNL d   1     -40.642  14.064  20.311  0.00  0.00    -0.248 N 
ATOM     34  C   UNL d   1     -41.276  13.907  19.809  0.00  0.00     0.105 A 
ATOM     35  C   UNL d   1     -39.904  14.232  20.004  0.00  0.00     0.378 C 
ATOM     36  C   UNL d   1     -42.014  13.739  20.123  0.00  0.00     0.111 A 
ATOM     37  O   UNL d   1     -39.275  14.388  20.511  0.00  0.00    -0.237 OA
BRANCH  35  38
ATOM     38  O   UNL d   1     -39.791  14.244  19.196  0.00  0.00    -0.257 OA
BRANCH  38  39
ATOM     39  C   UNL d   1     -39.045  14.388  18.894  0.00  0.00     0.128 C 
ATOM     40  C   UNL d   1     -38.908  14.304  18.082  0.00  0.00     0.029 C 
ENDBRANCH  38  39
ENDBRANCH  35  38
ENDBRANCH  27  30
ENDBRANCH   1  27
TORSDOF 7
ENDMDL
MODEL 2
REMARK VINA RESULT:      -3.6      0.686      1.074
REMARK  7 active torsions:
REMARK  status: ('A' for Active; 'I' for Inactive)
REMARK    1  A    between atoms: N_8  and  C_1 
REMARK    2  A    between atoms: C_14  and  C_2 
REMARK    3  A    between atoms: S_3  and  C_16 
REMARK    4  A    between atoms: N_7  and  S_3 
REMARK       I    between atoms: C_12  and  N_8 
REMARK       I    between atoms: C_13  and  N_11 
REMARK    5  A    between atoms: C_22  and  C_12 
REMARK    6  A    between atoms: O_33  and  C_13 
REMARK    7  A    between atoms: C_38  and  O_33 
ROOT
ATOM      1  C   UNL d   1     -43.823  13.299  21.716  0.00  0.00     0.104 A 
ATOM      2  C   UNL d   1     -45.329  12.920  22.250  0.00  0.00     0.056 A 
ATOM      3  C   UNL d   1     -44.053  12.507  21.771  0.00  0.00     0.013 A 
ATOM      4  C   UNL d   1     -44.343  13.903  21.927  0.00  0.00     0.013 A 
ATOM      5  C   UNL d   1     -44.808  12.316  22.039  0.00  0.00     0.005 A 
ATOM      6  C   UNL d   1     -45.102  13.709  22.196  0.00  0.00     0.005 A 
ENDROOT
BRANCH   2   7
ATOM      7  C   UNL d   1     -46.087  12.734  22.519  0.00  0.00     0.258 C 
ATOM      8  N   UNL d   1     -46.736  13.207  22.300  0.00  0.00    -0.316 N 
ATOM      9  H   UNL d   1     -46.261  13.523  21.990  0.00  0.00     0.169 HD
ATOM     10  O   UNL d   1     -46.215  12.078  23.008  0.00  0.00    -0.267 OA
BRANCH   8  11
ATOM     11  C   UNL d   1     -47.495  13.022  22.569  0.00  0.00     0.094 A 
ATOM     12  C   UNL d   1     -48.134  13.535  22.594  0.00  0.00     0.081 A 
ATOM     13  C   UNL d   1     -48.789  13.130  22.900  0.00  0.00     0.008 A 
ATOM     14  C   UNL d   1     -49.563  13.365  23.046  0.00  0.00    -0.004 A 
ATOM     15  C   UNL d   1     -48.553  12.362  23.065  0.00  0.00     0.028 A 
ATOM     16  C   UNL d   1     -50.100  12.827  23.359  0.00  0.00     0.099 A 
ATOM     17  C   UNL d   1     -50.717  13.384  23.365  0.00  0.00     0.029 C 
ATOM     18  C   UNL d   1     -50.761  12.432  23.663  0.00  0.00     0.029 C 
ATOM     19  N   UNL d   1     -49.876  12.056  23.528  0.00  0.00    -0.294 NA
ATOM     20  C   UNL d   1     -49.093  11.822  23.379  0.00  0.00     0.104 A 
ATOM     21  C   UNL d   1     -48.479  11.263  23.375  0.00  0.00     0.029 C 
ATOM     22  C   UNL d   1     -49.615  11.249  23.698  0.00  0.00     0.029 C 
ATOM     23  S   UNL d   1     -47.749  12.286  22.862  0.00  0.00    -0.072 SA
BRANCH  12  24
ATOM     24  C   UNL d   1     -48.135  14.323  22.358  0.00  0.00     0.299 C 
ATOM     25  O   UNL d   1     -48.324  14.513  21.589  0.00  0.00    -0.264 OA
ATOM     26  N   UNL d   1     -47.947  14.903  22.891  0.00  0.00    -0.102 N 
ENDBRANCH  12  24
ENDBRANCH   8  11
ENDBRANCH   2   7
BRANCH   1  27
ATOM     27  S   UNL d   1     -43.056  13.489  21.444  0.00  0.00     0.271 S 
ATOM     28  O   UNL d   1     -43.298  14.284  21.422  0.00  0.00    -0.200 OA
ATOM     29  O   UNL d   1     -42.826  12.698  21.469  0.00  0.00    -0.200 OA
BRANCH  27  30
ATOM     30  N   UNL d   1     -42.306  13.675  21.177  0.00  0.00    -0.226 N 
ATOM     31  C   UNL d   1     -42.200  14.067  20.462  0.00  0.00     0.111 A 
ATOM     32  C   UNL d   1     -41.438  14.248  20.207  0.00  0.00     0.105 A 
ATOM     33  N   UNL d   1     -40.781  14.039  20.662  0.00  0.00    -0.248 N 
ATOM     34  C   UNL d   1     -40.893  13.647  21.378  0.00  0.00     0.105 A 
ATOM     35  C   UNL d   1     -40.028  14.221  20.404  0.00  0.00     0.378 C 
ATOM     36  C   UNL d   1     -41.651  13.468  21.630  0.00  0.00     0.111 A 
ATOM     37  O   UNL d   1     -39.922  14.612  19.688  0.00  0.00    -0.237 OA
BRANCH  35  38
ATOM     38  O   UNL d   1     -39.381  14.014  20.856  0.00  0.00    -0.257 OA
BRANCH  38  39
ATOM     39  C   UNL d   1     -38.649  14.338  20.688  0.00  0.00     0.128 C 
ATOM     40  C   UNL d   1     -37.968  14.017  21.033  0.00  0.00     0.029 C 
ENDBRANCH  38  39
ENDBRANCH  35  38
ENDBRANCH  27  30
ENDBRANCH   1  27
TORSDOF 7
ENDMDL
MODEL 3
REMARK VINA RESULT:      -3.6      0.766      1.003
REMARK  7 active torsions:
REMARK  status: ('A' for Active; 'I' for Inactive)
REMARK    1  A    between atoms: N_8  and  C_1 
REMARK    2  A    between atoms: C_14  and  C_2 
REMARK    3  A    between atoms: S_3  and  C_16 
REMARK    4  A    between atoms: N_7  and  S_3 
REMARK       I    between atoms: C_12  and  N_8 
REMARK       I    between atoms: C_13  and  N_11 
REMARK    5  A    between atoms: C_22  and  C_12 
REMARK    6  A    between atoms: O_33  and  C_13 
REMARK    7  A    between atoms: C_38  and  O_33 
ROOT
ATOM      1  C   UNL d   1     -42.854  13.497  21.307  0.00  0.00     0.104 A 
ATOM      2  C   UNL d   1     -44.317  13.038  21.893  0.00  0.00     0.056 A 
ATOM      3  C   UNL d   1     -43.050  12.694  21.342  0.00  0.00     0.013 A 
ATOM      4  C   UNL d   1     -43.387  14.071  21.564  0.00  0.00     0.013 A 
ATOM      5  C   UNL d   1     -43.784  12.464  21.636  0.00  0.00     0.005 A 
ATOM      6  C   UNL d   1     -44.124  13.836  21.859  0.00  0.00     0.005 A 
ENDROOT
BRANCH   2   7
ATOM      7  C   UNL d   1     -45.055  12.812  22.189  0.00  0.00     0.258 C 
ATOM      8  N   UNL d   1     -45.687  13.353  22.193  0.00  0.00    -0.316 N 
ATOM      9  H   UNL d   1     -45.226  13.726  21.929  0.00  0.00     0.169 HD
ATOM     10  O   UNL d   1     -45.177  12.048  22.485  0.00  0.00    -0.267 OA
BRANCH   8  11
ATOM     11  C   UNL d   1     -46.425  13.127  22.489  0.00  0.00     0.094 A 
ATOM     12  C   UNL d   1     -47.091  13.604  22.533  0.00  0.00     0.081 A 
ATOM     13  C   UNL d   1     -47.711  13.166  22.863  0.00  0.00     0.008 A 
ATOM     14  C   UNL d   1     -48.491  13.358  23.035  0.00  0.00    -0.004 A 
ATOM     15  C   UNL d   1     -47.427  12.413  23.024  0.00  0.00     0.028 A 
ATOM     16  C   UNL d   1     -48.987  12.793  23.369  0.00  0.00     0.099 A 
ATOM     17  C   UNL d   1     -49.633  13.315  23.393  0.00  0.00     0.029 C 
ATOM     18  C   UNL d   1     -49.614  12.364  23.698  0.00  0.00     0.029 C 
ATOM     19  N   UNL d   1     -48.714  12.036  23.534  0.00  0.00    -0.294 NA
ATOM     20  C   UNL d   1     -47.925  11.846  23.358  0.00  0.00     0.104 A 
ATOM     21  C   UNL d   1     -47.281  11.321  23.336  0.00  0.00     0.029 C 
ATOM     22  C   UNL d   1     -48.403  11.247  23.698  0.00  0.00     0.029 C 
ATOM     23  S   UNL d   1     -46.628  12.380  22.794  0.00  0.00    -0.072 SA
BRANCH  12  24
ATOM     24  C   UNL d   1     -47.143  14.389  22.293  0.00  0.00     0.299 C 
ATOM     25  O   UNL d   1     -46.951  14.984  22.814  0.00  0.00    -0.264 OA
ATOM     26  N   UNL d   1     -47.387  14.563  21.540  0.00  0.00    -0.102 N 
ENDBRANCH  12  24
ENDBRANCH   8  11
ENDBRANCH   2   7
BRANCH   1  27
ATOM     27  S   UNL d   1     -42.109  13.728  21.007  0.00  0.00     0.271 S 
ATOM     28  O   UNL d   1     -42.097  13.016  20.579  0.00  0.00    -0.200 OA
ATOM     29  O   UNL d   1     -42.130  14.432  21.437  0.00  0.00    -0.200 OA
BRANCH  27  30
ATOM     30  N   UNL d   1     -41.379  13.955  20.715  0.00  0.00    -0.226 N 
ATOM     31  C   UNL d   1     -40.706  13.904  21.184  0.00  0.00     0.111 A 
ATOM     32  C   UNL d   1     -39.978  14.136  20.876  0.00  0.00     0.105 A 
ATOM     33  N   UNL d   1     -39.919  14.419  20.102  0.00  0.00    -0.248 N 
ATOM     34  C   UNL d   1     -40.598  14.467  19.637  0.00  0.00     0.105 A 
ATOM     35  C   UNL d   1     -39.195  14.647  19.801  0.00  0.00     0.378 C 
ATOM     36  C   UNL d   1     -41.321  14.236  19.945  0.00  0.00     0.111 A 
ATOM     37  O   UNL d   1     -38.522  14.597  20.270  0.00  0.00    -0.237 OA
BRANCH  35  38
ATOM     38  O   UNL d   1     -39.141  14.926  19.036  0.00  0.00    -0.257 OA
BRANCH  38  39
ATOM     39  C   UNL d   1     -38.558  15.465  18.843  0.00  0.00     0.128 C 
ATOM     40  C   UNL d   1     -38.277  15.506  18.065  0.00  0.00     0.029 C 
ENDBRANCH  38  39
ENDBRANCH  35  38
ENDBRANCH  27  30
ENDBRANCH   1  27
TORSDOF 7
ENDMDL
MODEL 4
REMARK VINA RESULT:      -3.6      1.339      7.888
REMARK  7 active torsions:
REMARK  status: ('A' for Active; 'I' for Inactive)
REMARK    1  A    between atoms: N_8  and  C_1 
REMARK    2  A    between atoms: C_14  and  C_2 
REMARK    3  A    between atoms: S_3  and  C_16 
REMARK    4  A    between atoms: N_7  and  S_3 
REMARK       I    between atoms: C_12  and  N_8 
REMARK       I    between atoms: C_13  and  N_11 
REMARK    5  A    between atoms: C_22  and  C_12 
REMARK    6  A    between atoms: O_33  and  C_13 
REMARK    7  A    between atoms: C_38  and  O_33 
ROOT
ATOM      1  C   UNL d   1     -44.681  13.043  21.967  0.00  0.00     0.104 A 
ATOM      2  C   UNL d   1     -43.094  13.257  21.604  0.00  0.00     0.056 A 
ATOM      3  C   UNL d   1     -44.395  13.801  21.801  0.00  0.00     0.013 A 
ATOM      4  C   UNL d   1     -44.177  12.391  21.952  0.00  0.00     0.013 A 
ATOM      5  C   UNL d   1     -43.599  13.909  21.620  0.00  0.00     0.005 A 
ATOM      6  C   UNL d   1     -43.377  12.502  21.768  0.00  0.00     0.005 A 
ENDROOT
BRANCH   2   7
ATOM      7  C   UNL d   1     -42.295  13.360  21.422  0.00  0.00     0.258 C 
ATOM      8  N   UNL d   1     -42.062  13.953  20.887  0.00  0.00    -0.316 N 
ATOM      9  H   UNL d   1     -42.704  14.047  20.882  0.00  0.00     0.169 HD
ATOM     10  O   UNL d   1     -41.716  12.879  21.766  0.00  0.00    -0.267 OA
BRANCH   8  11
ATOM     11  C   UNL d   1     -41.263  14.057  20.704  0.00  0.00     0.094 A 
ATOM     12  C   UNL d   1     -40.962  14.277  19.973  0.00  0.00     0.081 A 
ATOM     13  C   UNL d   1     -40.137  14.318  20.027  0.00  0.00     0.008 A 
ATOM     14  C   UNL d   1     -39.558  14.508  19.476  0.00  0.00    -0.004 A 
ATOM     15  C   UNL d   1     -39.925  14.123  20.796  0.00  0.00     0.028 A 
ATOM     16  C   UNL d   1     -38.766  14.501  19.696  0.00  0.00     0.099 A 
ATOM     17  C   UNL d   1     -38.510  14.725  18.938  0.00  0.00     0.029 C 
ATOM     18  C   UNL d   1     -37.940  14.546  19.739  0.00  0.00     0.029 C 
ATOM     19  N   UNL d   1     -38.542  14.308  20.463  0.00  0.00    -0.294 NA
ATOM     20  C   UNL d   1     -39.131  14.117  21.017  0.00  0.00     0.104 A 
ATOM     21  C   UNL d   1     -39.383  13.893  21.777  0.00  0.00     0.029 C 
ATOM     22  C   UNL d   1     -38.333  14.101  21.275  0.00  0.00     0.029 C 
ATOM     23  S   UNL d   1     -40.620  13.959  21.224  0.00  0.00    -0.072 SA
BRANCH  12  24
ATOM     24  C   UNL d   1     -41.399  14.432  19.295  0.00  0.00     0.299 C 
ATOM     25  O   UNL d   1     -41.567  13.828  18.776  0.00  0.00    -0.264 OA
ATOM     26  N   UNL d   1     -41.659  15.185  19.148  0.00  0.00    -0.102 N 
ENDBRANCH  12  24
ENDBRANCH   8  11
ENDBRANCH   2   7
BRANCH   1  27
ATOM     27  S   UNL d   1     -45.490  12.937  22.151  0.00  0.00     0.271 S 
ATOM     28  O   UNL d   1     -45.643  12.951  21.335  0.00  0.00    -0.200 OA
ATOM     29  O   UNL d   1     -45.327  12.923  22.959  0.00  0.00    -0.200 OA
BRANCH  27  30
ATOM     30  N   UNL d   1     -46.280  12.832  22.332  0.00  0.00    -0.226 N 
ATOM     31  C   UNL d   1     -46.506  12.483  23.042  0.00  0.00     0.111 A 
ATOM     32  C   UNL d   1     -47.306  12.385  23.210  0.00  0.00     0.105 A 
ATOM     33  N   UNL d   1     -47.882  12.633  22.673  0.00  0.00    -0.248 N 
ATOM     34  C   UNL d   1     -47.651  12.982  21.964  0.00  0.00     0.105 A 
ATOM     35  C   UNL d   1     -48.674  12.533  22.845  0.00  0.00     0.378 C 
ATOM     36  C   UNL d   1     -46.855  13.079  21.798  0.00  0.00     0.111 A 
ATOM     37  O   UNL d   1     -48.900  12.184  23.555  0.00  0.00    -0.237 OA
BRANCH  35  38
ATOM     38  O   UNL d   1     -49.242  12.780  22.313  0.00  0.00    -0.257 OA
BRANCH  38  39
ATOM     39  C   UNL d   1     -50.030  12.618  22.458  0.00  0.00     0.128 C 
ATOM     40  C   UNL d   1     -50.615  12.972  21.992  0.00  0.00     0.029 C 
ENDBRANCH  38  39
ENDBRANCH  35  38
ENDBRANCH  27  30
ENDBRANCH   1  27
TORSDOF 7
ENDMDL
MODEL 5
REMARK VINA RESULT:      -1.8      0.892      1.524
REMARK  7 active torsions:
REMARK  status: ('A' for Active; 'I' for Inactive)
REMARK    1  A    between atoms: N_8  and  C_1 
REMARK    2  A    between atoms: C_14  and  C_2 
REMARK    3  A    between atoms: S_3  and  C_16 
REMARK    4  A    between atoms: N_7  and  S_3 
REMARK       I    between atoms: C_12  and  N_8 
REMARK       I    between atoms: C_13  and  N_11 
REMARK    5  A    between atoms: C_22  and  C_12 
REMARK    6  A    between atoms: O_33  and  C_13 
REMARK    7  A    between atoms: C_38  and  O_33 
ROOT
ATOM      1  C   UNL d   1     -44.124  13.438  21.795  0.00  0.00     0.104 A 
ATOM      2  C   UNL d   1     -45.655  13.346  22.380  0.00  0.00     0.056 A 
ATOM      3  C   UNL d   1     -44.414  12.717  22.077  0.00  0.00     0.013 A 
ATOM      4  C   UNL d   1     -44.596  14.114  21.805  0.00  0.00     0.013 A 
ATOM      5  C   UNL d   1     -45.182  12.670  22.370  0.00  0.00     0.005 A 
ATOM      6  C   UNL d   1     -45.368  14.064  22.101  0.00  0.00     0.005 A 
ENDROOT
BRANCH   2   7
ATOM      7  C   UNL d   1     -46.426  13.303  22.674  0.00  0.00     0.258 C 
ATOM      8  N   UNL d   1     -47.032  12.974  22.208  0.00  0.00    -0.316 N 
ATOM      9  H   UNL d   1     -46.533  12.909  21.799  0.00  0.00     0.169 HD
ATOM     10  O   UNL d   1     -46.608  13.585  23.430  0.00  0.00    -0.267 OA
BRANCH   8  11
ATOM     11  C   UNL d   1     -47.804  12.931  22.501  0.00  0.00     0.094 A 
ATOM     12  C   UNL d   1     -48.263  12.253  22.547  0.00  0.00     0.081 A 
ATOM     13  C   UNL d   1     -48.998  12.451  22.873  0.00  0.00     0.008 A 
ATOM     14  C   UNL d   1     -49.664  12.001  23.044  0.00  0.00    -0.004 A 
ATOM     15  C   UNL d   1     -48.994  13.257  23.029  0.00  0.00     0.028 A 
ATOM     16  C   UNL d   1     -50.326  12.360  23.373  0.00  0.00     0.099 A 
ATOM     17  C   UNL d   1     -50.751  11.647  23.399  0.00  0.00     0.029 C 
ATOM     18  C   UNL d   1     -51.064  12.547  23.698  0.00  0.00     0.029 C 
ATOM     19  N   UNL d   1     -50.334  13.166  23.534  0.00  0.00    -0.294 NA
ATOM     20  C   UNL d   1     -49.659  13.617  23.359  0.00  0.00     0.104 A 
ATOM     21  C   UNL d   1     -49.237  14.333  23.334  0.00  0.00     0.029 C 
ATOM     22  C   UNL d   1     -50.317  14.015  23.694  0.00  0.00     0.029 C 
ATOM     23  S   UNL d   1     -48.255  13.563  22.800  0.00  0.00    -0.072 SA
BRANCH  12  24
ATOM     24  C   UNL d   1     -48.039  11.498  22.312  0.00  0.00     0.299 C 
ATOM     25  O   UNL d   1     -47.768  10.967  22.865  0.00  0.00    -0.264 OA
ATOM     26  N   UNL d   1     -48.090  11.289  21.530  0.00  0.00    -0.102 N 
ENDBRANCH  12  24
ENDBRANCH   8  11
ENDBRANCH   2   7
BRANCH   1  27
ATOM     27  S   UNL d   1     -43.344  13.483  21.498  0.00  0.00     0.271 S 
ATOM     28  O   UNL d   1     -43.342  12.653  21.472  0.00  0.00    -0.200 OA
ATOM     29  O   UNL d   1     -43.356  14.307  21.527  0.00  0.00    -0.200 OA
BRANCH  27  30
ATOM     30  N   UNL d   1     -42.581  13.527  21.207  0.00  0.00    -0.226 N 
ATOM     31  C   UNL d   1     -41.936  13.512  21.718  0.00  0.00     0.111 A 
ATOM     32  C   UNL d   1     -41.173  13.558  21.410  0.00  0.00     0.105 A 
ATOM     33  N   UNL d   1     -41.051  13.618  20.595  0.00  0.00    -0.248 N 
ATOM     34  C   UNL d   1     -41.701  13.633  20.089  0.00  0.00     0.105 A 
ATOM     35  C   UNL d   1     -40.293  13.663  20.296  0.00  0.00     0.378 C 
ATOM     36  C   UNL d   1     -42.458  13.588  20.396  0.00  0.00     0.111 A 
ATOM     37  O   UNL d   1     -39.648  13.648  20.806  0.00  0.00    -0.237 OA
BRANCH  35  38
ATOM     38  O   UNL d   1     -40.175  13.723  19.490  0.00  0.00    -0.257 OA
BRANCH  38  39
ATOM     39  C   UNL d   1     -39.498  14.082  19.206  0.00  0.00     0.128 C 
ATOM     40  C   UNL d   1     -39.287  13.991  18.411  0.00  0.00     0.029 C 
ENDBRANCH  38  39
ENDBRANCH  35  38
ENDBRANCH  27  30
ENDBRANCH   1  27
TORSDOF 7
ENDMDL
