MODEL 1
REMARK VINA RESULT:      -6.8      0.000      0.000
REMARK  6 active torsions:
REMARK  status: ('A' for Active; 'I' for Inactive)
REMARK    1  A    between atoms: C_5  and  N_1 
REMARK    2  A    between atoms: C_4  and  C_5 
REMARK       I    between atoms: N_8  and  C_4 
REMARK    3  A    between atoms: C_6  and  C_9 
REMARK    4  A    between atoms: O_19  and  C_6 
REMARK    5  A    between atoms: C_16  and  N_8 
REMARK    6  A    between atoms: C_22  and  O_19 
ROOT
ATOM      1  C   UNL d   1     -48.888  12.936  23.083  0.00  0.00     0.297 C 
ATOM      2  N   UNL d   1     -48.337  12.875  23.698  0.00  0.00    -0.207 NA
ATOM      3  O   UNL d   1     -48.675  12.711  22.319  0.00  0.00    -0.264 OA
ENDROOT
BRANCH   2   4
ATOM      4  C   UNL d   1     -47.576  12.589  23.547  0.00  0.00     0.085 A 
ATOM      5  C   UNL d   1     -46.980  13.108  23.311  0.00  0.00     0.019 A 
ATOM      6  C   UNL d   1     -46.229  12.809  23.165  0.00  0.00     0.007 A 
ATOM      7  C   UNL d   1     -46.065  12.012  23.249  0.00  0.00     0.064 A 
ATOM      8  C   UNL d   1     -46.664  11.496  23.486  0.00  0.00     0.007 A 
ATOM      9  C   UNL d   1     -47.425  11.782  23.637  0.00  0.00     0.019 A 
BRANCH   7  10
ATOM     10  C   UNL d   1     -45.305  11.720  23.100  0.00  0.00     0.300 C 
ATOM     11  O   UNL d   1     -44.814  12.114  22.566  0.00  0.00    -0.259 OA
BRANCH  10  12
ATOM     12  O   UNL d   1     -45.040  11.048  23.476  0.00  0.00    -0.271 OA
BRANCH  12  13
ATOM     13  C   UNL d   1     -44.288  10.749  23.331  0.00  0.00     0.126 C 
ATOM     14  C   UNL d   1     -44.027  10.070  23.698  0.00  0.00     0.029 C 
ENDBRANCH  12  13
ENDBRANCH  10  12
ENDBRANCH   7  10
ENDBRANCH   2   4
BRANCH   1  15
ATOM     15  C   UNL d   1     -49.641  13.218  23.224  0.00  0.00     0.148 C 
BRANCH  15  16
ATOM     16  N   UNL d   1     -50.105  13.491  22.600  0.00  0.00    -0.235 N 
ATOM     17  C   UNL d   1     -50.599  12.966  22.192  0.00  0.00     0.274 A 
ATOM     18  O   UNL d   1     -50.625  12.169  22.414  0.00  0.00    -0.266 OA
ATOM     19  C   UNL d   1     -51.058  13.237  21.573  0.00  0.00     0.097 A 
ATOM     20  S   UNL d   1     -51.039  14.024  21.347  0.00  0.00    -0.076 SA
ATOM     21  C   UNL d   1     -50.551  14.548  21.748  0.00  0.00     0.097 A 
ATOM     22  C   UNL d   1     -50.081  14.289  22.375  0.00  0.00     0.274 A 
ATOM     23  O   UNL d   1     -49.591  14.813  22.779  0.00  0.00    -0.266 OA
ENDBRANCH  15  16
ENDBRANCH   1  15
TORSDOF 6
ENDMDL
MODEL 2
REMARK VINA RESULT:      -6.7      0.977      1.600
REMARK  6 active torsions:
REMARK  status: ('A' for Active; 'I' for Inactive)
REMARK    1  A    between atoms: C_5  and  N_1 
REMARK    2  A    between atoms: C_4  and  C_5 
REMARK       I    between atoms: N_8  and  C_4 
REMARK    3  A    between atoms: C_6  and  C_9 
REMARK    4  A    between atoms: O_19  and  C_6 
REMARK    5  A    between atoms: C_16  and  N_8 
REMARK    6  A    between atoms: C_22  and  O_19 
ROOT
ATOM      1  C   UNL d   1     -48.519  13.360  22.925  0.00  0.00     0.297 C 
ATOM      2  N   UNL d   1     -47.872  13.484  23.425  0.00  0.00    -0.207 NA
ATOM      3  O   UNL d   1     -48.411  12.972  22.204  0.00  0.00    -0.264 OA
ENDROOT
BRANCH   2   4
ATOM      4  C   UNL d   1     -47.120  13.221  23.205  0.00  0.00     0.085 A 
ATOM      5  C   UNL d   1     -46.602  13.730  22.814  0.00  0.00     0.019 A 
ATOM      6  C   UNL d   1     -45.858  13.453  22.601  0.00  0.00     0.007 A 
ATOM      7  C   UNL d   1     -45.625  12.687  22.771  0.00  0.00     0.064 A 
ATOM      8  C   UNL d   1     -46.146  12.181  23.162  0.00  0.00     0.007 A 
ATOM      9  C   UNL d   1     -46.898  12.444  23.382  0.00  0.00     0.019 A 
BRANCH   7  10
ATOM     10  C   UNL d   1     -44.873  12.419  22.552  0.00  0.00     0.300 C 
ATOM     11  O   UNL d   1     -44.536  11.780  22.951  0.00  0.00    -0.259 OA
BRANCH  10  12
ATOM     12  O   UNL d   1     -44.466  12.781  21.947  0.00  0.00    -0.271 OA
BRANCH  12  13
ATOM     13  C   UNL d   1     -43.708  12.540  21.741  0.00  0.00     0.126 C 
ATOM     14  C   UNL d   1     -43.290  12.921  21.155  0.00  0.00     0.029 C 
ENDBRANCH  12  13
ENDBRANCH  10  12
ENDBRANCH   7  10
ENDBRANCH   2   4
BRANCH   1  15
ATOM     15  C   UNL d   1     -49.265  13.617  23.135  0.00  0.00     0.148 C 
BRANCH  15  16
ATOM     16  N   UNL d   1     -49.866  13.651  22.572  0.00  0.00    -0.235 N 
ATOM     17  C   UNL d   1     -50.008  14.358  22.164  0.00  0.00     0.274 A 
ATOM     18  O   UNL d   1     -49.548  15.026  22.325  0.00  0.00    -0.266 OA
ATOM     19  C   UNL d   1     -50.604  14.392  21.606  0.00  0.00     0.097 A 
ATOM     20  S   UNL d   1     -51.064  13.735  21.441  0.00  0.00    -0.076 SA
ATOM     21  C   UNL d   1     -50.927  13.033  21.842  0.00  0.00     0.097 A 
ATOM     22  C   UNL d   1     -50.329  12.983  22.408  0.00  0.00     0.274 A 
ATOM     23  O   UNL d   1     -50.189  12.280  22.812  0.00  0.00    -0.266 OA
ENDBRANCH  15  16
ENDBRANCH   1  15
TORSDOF 6
ENDMDL
MODEL 3
REMARK VINA RESULT:      -4.8      9.163     10.319
REMARK  6 active torsions:
REMARK  status: ('A' for Active; 'I' for Inactive)
REMARK    1  A    between atoms: C_5  and  N_1 
REMARK    2  A    between atoms: C_4  and  C_5 
REMARK       I    between atoms: N_8  and  C_4 
REMARK    3  A    between atoms: C_6  and  C_9 
REMARK    4  A    between atoms: O_19  and  C_6 
REMARK    5  A    between atoms: C_16  and  N_8 
REMARK    6  A    between atoms: C_22  and  O_19 
ROOT
ATOM      1  C   UNL d   1     -39.706  14.602  18.441  0.00  0.00     0.297 C 
ATOM      2  N   UNL d   1     -40.290  14.680  19.023  0.00  0.00    -0.207 NA
ATOM      3  O   UNL d   1     -38.916  14.742  18.634  0.00  0.00    -0.264 OA
ENDROOT
BRANCH   2   4
ATOM      4  C   UNL d   1     -40.083  14.896  19.793  0.00  0.00     0.085 A 
ATOM      5  C   UNL d   1     -39.982  14.317  20.372  0.00  0.00     0.019 A 
ATOM      6  C   UNL d   1     -39.777  14.548  21.133  0.00  0.00     0.007 A 
ATOM      7  C   UNL d   1     -39.671  15.337  21.323  0.00  0.00     0.064 A 
ATOM      8  C   UNL d   1     -39.773  15.914  20.742  0.00  0.00     0.007 A 
ATOM      9  C   UNL d   1     -39.980  15.697  19.972  0.00  0.00     0.019 A 
BRANCH   7  10
ATOM     10  C   UNL d   1     -39.464  15.559  22.094  0.00  0.00     0.300 C 
ATOM     11  O   UNL d   1     -40.025  15.922  22.579  0.00  0.00    -0.259 OA
BRANCH  10  12
ATOM     12  O   UNL d   1     -38.712  15.422  22.374  0.00  0.00    -0.271 OA
BRANCH  12  13
ATOM     13  C   UNL d   1     -38.457  15.747  23.084  0.00  0.00     0.126 C 
ATOM     14  C   UNL d   1     -37.940  15.345  23.569  0.00  0.00     0.029 C 
ENDBRANCH  12  13
ENDBRANCH  10  12
ENDBRANCH   7  10
ENDBRANCH   2   4
BRANCH   1  15
ATOM     15  C   UNL d   1     -39.903  14.389  17.678  0.00  0.00     0.148 C 
BRANCH  15  16
ATOM     16  N   UNL d   1     -39.318  14.335  17.099  0.00  0.00    -0.235 N 
ATOM     17  C   UNL d   1     -39.164  14.985  16.609  0.00  0.00     0.274 A 
ATOM     18  O   UNL d   1     -39.597  15.683  16.701  0.00  0.00    -0.266 OA
ATOM     19  C   UNL d   1     -38.585  14.932  16.035  0.00  0.00     0.097 A 
ATOM     20  S   UNL d   1     -38.151  14.245  15.936  0.00  0.00    -0.076 SA
ATOM     21  C   UNL d   1     -38.300  13.599  16.420  0.00  0.00     0.097 A 
ATOM     22  C   UNL d   1     -38.881  13.637  17.004  0.00  0.00     0.274 A 
ATOM     23  O   UNL d   1     -39.033  12.991  17.490  0.00  0.00    -0.266 OA
ENDBRANCH  15  16
ENDBRANCH   1  15
TORSDOF 6
ENDMDL
