MODEL 1
REMARK VINA RESULT:      -1.6      0.000      0.000
REMARK  6 active torsions:
REMARK  status: ('A' for Active; 'I' for Inactive)
REMARK       I    between atoms: C_2  and  N_1 
REMARK    1  A    between atoms: O_20  and  C_2 
REMARK       I    between atoms: C_5  and  N_3 
REMARK    2  A    between atoms: C_16  and  C_5 
REMARK    3  A    between atoms: C_9  and  C_7 
REMARK    4  A    between atoms: C_8  and  S_14 
REMARK    5  A    between atoms: S_14  and  C_16 
REMARK    6  A    between atoms: C_25  and  O_20 
ROOT
ATOM      1  C   UNL d   1      32.950  21.065 -21.927  0.00  0.00     0.098 C 
ENDROOT
BRANCH   1   2
ATOM      2  S   UNL d   1      32.792  21.860 -21.803  0.00  0.00    -0.061 SA
BRANCH   2   3
ATOM      3  C   UNL d   1      32.738  22.161 -21.037  0.00  0.00     0.133 A 
ATOM      4  N   UNL d   1      33.096  21.772 -20.411  0.00  0.00    -0.141 NA
ATOM      5  N   UNL d   1      33.042  22.073 -19.644  0.00  0.00    -0.148 NA
ATOM      6  C   UNL d   1      32.624  22.774 -19.501  0.00  0.00     0.104 A 
ATOM      7  C   UNL d   1      32.262  23.168 -20.131  0.00  0.00     0.023 A 
ATOM      8  C   UNL d   1      32.317  22.866 -20.895  0.00  0.00     0.029 A 
BRANCH   6   9
ATOM      9  C   UNL d   1      32.570  23.074 -18.735  0.00  0.00     0.039 A 
ATOM     10  C   UNL d   1      33.218  23.043 -18.243  0.00  0.00     0.101 A 
ATOM     11  N   UNL d   1      33.169  23.340 -17.482  0.00  0.00    -0.242 NA
ATOM     12  C   UNL d   1      32.456  23.673 -17.213  0.00  0.00     0.099 A 
ATOM     13  C   UNL d   1      31.807  23.702 -17.711  0.00  0.00     0.021 A 
ATOM     14  C   UNL d   1      31.852  23.404 -18.480  0.00  0.00     0.005 A 
ENDBRANCH   6   9
ENDBRANCH   2   3
ENDBRANCH   1   2
BRANCH   1  15
ATOM     15  C   UNL d   1      32.953  20.764 -22.698  0.00  0.00     0.272 C 
ATOM     16  N   UNL d   1      32.917  19.951 -22.820  0.00  0.00    -0.269 N 
ATOM     17  C   UNL d   1      32.880  19.440 -22.168  0.00  0.00     0.102 A 
ATOM     18  C   UNL d   1      32.920  19.654 -23.582  0.00  0.00     0.102 A 
ATOM     19  C   UNL d   1      32.845  18.634 -22.298  0.00  0.00     0.104 A 
ATOM     20  N   UNL d   1      32.847  18.327 -23.060  0.00  0.00    -0.249 N 
ATOM     21  C   UNL d   1      32.812  17.519 -23.194  0.00  0.00     0.378 C 
ATOM     22  C   UNL d   1      32.884  18.839 -23.709  0.00  0.00     0.104 A 
ATOM     23  O   UNL d   1      32.775  17.006 -22.546  0.00  0.00    -0.237 OA
ATOM     24  O   UNL d   1      32.990  21.267 -23.337  0.00  0.00    -0.266 OA
BRANCH  21  25
ATOM     25  O   UNL d   1      32.814  17.220 -23.960  0.00  0.00    -0.257 OA
BRANCH  25  26
ATOM     26  C   UNL d   1      32.871  16.416 -24.089  0.00  0.00     0.128 C 
ATOM     27  C   UNL d   1      33.016  16.128 -24.838  0.00  0.00     0.029 C 
ENDBRANCH  25  26
ENDBRANCH  21  25
ENDBRANCH   1  15
TORSDOF 6
ENDMDL
MODEL 2
REMARK VINA RESULT:      -1.0      1.683      6.341
REMARK  6 active torsions:
REMARK  status: ('A' for Active; 'I' for Inactive)
REMARK       I    between atoms: C_2  and  N_1 
REMARK    1  A    between atoms: O_20  and  C_2 
REMARK       I    between atoms: C_5  and  N_3 
REMARK    2  A    between atoms: C_16  and  C_5 
REMARK    3  A    between atoms: C_9  and  C_7 
REMARK    4  A    between atoms: C_8  and  S_14 
REMARK    5  A    between atoms: S_14  and  C_16 
REMARK    6  A    between atoms: C_25  and  O_20 
ROOT
ATOM      1  C   UNL d   1      33.233  20.792 -22.014  0.00  0.00     0.098 C 
ENDROOT
BRANCH   1   2
ATOM      2  S   UNL d   1      33.058  20.508 -22.764  0.00  0.00    -0.061 SA
BRANCH   2   3
ATOM      3  C   UNL d   1      33.027  19.696 -22.906  0.00  0.00     0.133 A 
ATOM      4  N   UNL d   1      33.125  19.161 -22.294  0.00  0.00    -0.141 NA
ATOM      5  N   UNL d   1      33.095  18.350 -22.436  0.00  0.00    -0.148 NA
ATOM      6  C   UNL d   1      32.963  18.067 -23.204  0.00  0.00     0.104 A 
ATOM      7  C   UNL d   1      32.863  18.605 -23.825  0.00  0.00     0.023 A 
ATOM      8  C   UNL d   1      32.894  19.414 -23.679  0.00  0.00     0.029 A 
BRANCH   6   9
ATOM      9  C   UNL d   1      32.932  17.255 -23.347  0.00  0.00     0.039 A 
ATOM     10  C   UNL d   1      33.241  16.738 -22.799  0.00  0.00     0.101 A 
ATOM     11  N   UNL d   1      33.212  15.931 -22.936  0.00  0.00    -0.242 NA
ATOM     12  C   UNL d   1      32.867  15.643 -23.636  0.00  0.00     0.099 A 
ATOM     13  C   UNL d   1      32.559  16.167 -24.184  0.00  0.00     0.021 A 
ATOM     14  C   UNL d   1      32.585  16.981 -24.050  0.00  0.00     0.005 A 
ENDBRANCH   6   9
ENDBRANCH   2   3
ENDBRANCH   1   2
BRANCH   1  15
ATOM     15  C   UNL d   1      33.135  21.596 -21.849  0.00  0.00     0.272 C 
ATOM     16  N   UNL d   1      33.122  21.855 -21.068  0.00  0.00    -0.269 N 
ATOM     17  C   UNL d   1      33.206  21.305 -20.452  0.00  0.00     0.102 A 
ATOM     18  C   UNL d   1      33.025  22.651 -20.905  0.00  0.00     0.102 A 
ATOM     19  C   UNL d   1      33.192  21.571 -19.679  0.00  0.00     0.104 A 
ATOM     20  N   UNL d   1      33.095  22.368 -19.506  0.00  0.00    -0.249 N 
ATOM     21  C   UNL d   1      33.080  22.638 -18.732  0.00  0.00     0.378 C 
ATOM     22  C   UNL d   1      33.011  22.914 -20.123  0.00  0.00     0.104 A 
ATOM     23  O   UNL d   1      33.164  22.092 -18.116  0.00  0.00    -0.237 OA
ATOM     24  O   UNL d   1      33.052  22.135 -22.454  0.00  0.00    -0.266 OA
BRANCH  21  25
ATOM     25  O   UNL d   1      32.983  23.437 -18.569  0.00  0.00    -0.257 OA
BRANCH  25  26
ATOM     26  C   UNL d   1      32.974  23.702 -17.796  0.00  0.00     0.128 C 
ATOM     27  C   UNL d   1      32.298  23.637 -17.345  0.00  0.00     0.029 C 
ENDBRANCH  25  26
ENDBRANCH  21  25
ENDBRANCH   1  15
TORSDOF 6
ENDMDL
