MODEL 1
REMARK VINA RESULT:      -3.2      0.000      0.000
REMARK  2 active torsions:
REMARK  status: ('A' for Active; 'I' for Inactive)
REMARK    1  A    between atoms: S_2  and  N_1 
REMARK    2  A    between atoms: N_6  and  S_2 
ROOT
ATOM      1  N   UNL d   1      31.745  16.732 -23.859  0.00  0.00    -0.199 N 
ATOM      2  C   UNL d   1      30.941  16.579 -23.917  0.00  0.00     0.095 A 
ATOM      3  C   UNL d   1      32.118  16.027 -23.601  0.00  0.00     0.194 A 
ATOM      4  N   UNL d   1      31.529  15.453 -23.506  0.00  0.00    -0.223 NA
ATOM      5  C   UNL d   1      30.806  15.793 -23.700  0.00  0.00     0.100 A 
ATOM      6  C   UNL d   1      30.314  17.062 -24.142  0.00  0.00     0.020 A 
ATOM      7  C   UNL d   1      30.038  15.495 -23.711  0.00  0.00     0.021 A 
ATOM      8  C   UNL d   1      29.545  16.764 -24.152  0.00  0.00     0.002 A 
ATOM      9  C   UNL d   1      29.405  15.977 -23.936  0.00  0.00     0.002 A 
ATOM     10  C   UNL d   1      28.915  17.250 -24.378  0.00  0.00     0.000 C 
ATOM     11  C   UNL d   1      28.635  15.676 -23.946  0.00  0.00     0.000 C 
ENDROOT
BRANCH   1  12
ATOM     12  S   UNL d   1      32.117  17.439 -24.021  0.00  0.00     0.339 S 
ATOM     13  O   UNL d   1      32.203  17.222 -24.810  0.00  0.00    -0.181 OA
ATOM     14  O   UNL d   1      32.033  17.659 -23.233  0.00  0.00    -0.181 OA
BRANCH  12  15
ATOM     15  N   UNL d   1      32.491  18.156 -24.173  0.00  0.00    -0.212 N 
ATOM     16  C   UNL d   1      32.749  18.626 -23.546  0.00  0.00     0.120 A 
ATOM     17  C   UNL d   1      33.121  19.340 -23.698  0.00  0.00     0.142 A 
ATOM     18  O   UNL d   1      33.241  19.591 -24.464  0.00  0.00    -0.300 OA
ATOM     19  C   UNL d   1      32.986  19.127 -25.096  0.00  0.00     0.142 A 
ATOM     20  C   UNL d   1      32.608  18.402 -24.947  0.00  0.00     0.120 A 
ENDBRANCH  12  15
ENDBRANCH   1  12
TORSDOF 2
ENDMDL
MODEL 2
REMARK VINA RESULT:      -2.5      1.720      3.646
REMARK  2 active torsions:
REMARK  status: ('A' for Active; 'I' for Inactive)
REMARK    1  A    between atoms: S_2  and  N_1 
REMARK    2  A    between atoms: N_6  and  S_2 
ROOT
ATOM      1  N   UNL d   1      31.246  15.994 -23.807  0.00  0.00    -0.199 N 
ATOM      2  C   UNL d   1      31.644  16.674 -24.037  0.00  0.00     0.095 A 
ATOM      3  C   UNL d   1      31.817  15.453 -23.518  0.00  0.00     0.194 A 
ATOM      4  N   UNL d   1      32.558  15.817 -23.578  0.00  0.00    -0.223 NA
ATOM      5  C   UNL d   1      32.451  16.567 -23.897  0.00  0.00     0.100 A 
ATOM      6  C   UNL d   1      31.366  17.379 -24.358  0.00  0.00     0.020 A 
ATOM      7  C   UNL d   1      32.978  17.173 -24.081  0.00  0.00     0.021 A 
ATOM      8  C   UNL d   1      31.894  17.985 -24.542  0.00  0.00     0.002 A 
ATOM      9  C   UNL d   1      32.704  17.882 -24.404  0.00  0.00     0.002 A 
ATOM     10  C   UNL d   1      31.616  18.694 -24.865  0.00  0.00     0.000 C 
ATOM     11  C   UNL d   1      33.235  18.489 -24.588  0.00  0.00     0.000 C 
ENDROOT
BRANCH   1  12
ATOM     12  S   UNL d   1      30.442  15.864 -23.850  0.00  0.00     0.339 S 
ATOM     13  O   UNL d   1      30.528  15.535 -24.600  0.00  0.00    -0.181 OA
ATOM     14  O   UNL d   1      30.354  16.191 -23.101  0.00  0.00    -0.181 OA
BRANCH  12  15
ATOM     15  N   UNL d   1      29.630  15.737 -23.882  0.00  0.00    -0.212 N 
ATOM     16  C   UNL d   1      29.181  15.769 -23.191  0.00  0.00     0.120 A 
ATOM     17  C   UNL d   1      28.373  15.643 -23.223  0.00  0.00     0.142 A 
ATOM     18  O   UNL d   1      28.005  15.486 -23.934  0.00  0.00    -0.300 OA
ATOM     19  C   UNL d   1      28.446  15.453 -24.630  0.00  0.00     0.142 A 
ATOM     20  C   UNL d   1      29.267  15.580 -24.601  0.00  0.00     0.120 A 
ENDBRANCH  12  15
ENDBRANCH   1  12
TORSDOF 2
ENDMDL
MODEL 3
REMARK VINA RESULT:      -2.3      1.308      1.832
REMARK  2 active torsions:
REMARK  status: ('A' for Active; 'I' for Inactive)
REMARK    1  A    between atoms: S_2  and  N_1 
REMARK    2  A    between atoms: N_6  and  S_2 
ROOT
ATOM      1  N   UNL d   1      32.718  17.800 -23.346  0.00  0.00    -0.199 N 
ATOM      2  C   UNL d   1      32.078  17.457 -23.728  0.00  0.00     0.095 A 
ATOM      3  C   UNL d   1      33.241  17.184 -23.124  0.00  0.00     0.194 A 
ATOM      4  N   UNL d   1      32.906  16.470 -23.377  0.00  0.00    -0.223 NA
ATOM      5  C   UNL d   1      32.192  16.639 -23.748  0.00  0.00     0.100 A 
ATOM      6  C   UNL d   1      31.404  17.792 -24.060  0.00  0.00     0.020 A 
ATOM      7  C   UNL d   1      31.624  16.159 -24.104  0.00  0.00     0.021 A 
ATOM      8  C   UNL d   1      30.836  17.312 -24.417  0.00  0.00     0.002 A 
ATOM      9  C   UNL d   1      30.946  16.491 -24.439  0.00  0.00     0.002 A 
ATOM     10  C   UNL d   1      30.159  17.648 -24.751  0.00  0.00     0.000 C 
ATOM     11  C   UNL d   1      30.378  16.008 -24.796  0.00  0.00     0.000 C 
ENDROOT
BRANCH   1  12
ATOM     12  S   UNL d   1      32.829  18.596 -23.206  0.00  0.00     0.339 S 
ATOM     13  O   UNL d   1      33.001  18.720 -24.001  0.00  0.00    -0.181 OA
ATOM     14  O   UNL d   1      32.658  18.475 -22.411  0.00  0.00    -0.181 OA
BRANCH  12  15
ATOM     15  N   UNL d   1      32.939  19.397 -23.053  0.00  0.00    -0.212 N 
ATOM     16  C   UNL d   1      33.129  19.911 -23.669  0.00  0.00     0.120 A 
ATOM     17  C   UNL d   1      33.239  20.708 -23.517  0.00  0.00     0.142 A 
ATOM     18  O   UNL d   1      33.161  21.000 -22.759  0.00  0.00    -0.300 OA
ATOM     19  C   UNL d   1      32.971  20.493 -22.138  0.00  0.00     0.142 A 
ATOM     20  C   UNL d   1      32.860  19.684 -22.288  0.00  0.00     0.120 A 
ENDBRANCH  12  15
ENDBRANCH   1  12
TORSDOF 2
ENDMDL
MODEL 4
REMARK VINA RESULT:      -1.9      1.380      4.034
REMARK  2 active torsions:
REMARK  status: ('A' for Active; 'I' for Inactive)
REMARK    1  A    between atoms: S_2  and  N_1 
REMARK    2  A    between atoms: N_6  and  S_2 
ROOT
ATOM      1  N   UNL d   1      32.783  18.454 -24.144  0.00  0.00    -0.199 N 
ATOM      2  C   UNL d   1      32.861  19.111 -23.658  0.00  0.00     0.095 A 
ATOM      3  C   UNL d   1      32.997  18.687 -24.920  0.00  0.00     0.194 A 
ATOM      4  N   UNL d   1      33.202  19.489 -24.893  0.00  0.00    -0.223 NA
ATOM      5  C   UNL d   1      33.118  19.748 -24.117  0.00  0.00     0.100 A 
ATOM      6  C   UNL d   1      32.728  19.205 -22.852  0.00  0.00     0.020 A 
ATOM      7  C   UNL d   1      33.241  20.481 -23.760  0.00  0.00     0.021 A 
ATOM      8  C   UNL d   1      32.851  19.938 -22.495  0.00  0.00     0.002 A 
ATOM      9  C   UNL d   1      33.109  20.580 -22.951  0.00  0.00     0.002 A 
ATOM     10  C   UNL d   1      32.717  20.034 -21.685  0.00  0.00     0.000 C 
ATOM     11  C   UNL d   1      33.233  21.317 -22.595  0.00  0.00     0.000 C 
ENDROOT
BRANCH   1  12
ATOM     12  S   UNL d   1      32.543  17.709 -23.917  0.00  0.00     0.339 S 
ATOM     13  O   UNL d   1      33.241  17.605 -23.493  0.00  0.00    -0.181 OA
ATOM     14  O   UNL d   1      31.845  17.810 -24.339  0.00  0.00    -0.181 OA
BRANCH  12  15
ATOM     15  N   UNL d   1      32.291  16.958 -23.694  0.00  0.00    -0.212 N 
ATOM     16  C   UNL d   1      31.484  16.793 -23.647  0.00  0.00     0.120 A 
ATOM     17  C   UNL d   1      31.232  16.046 -23.425  0.00  0.00     0.142 A 
ATOM     18  O   UNL d   1      31.773  15.462 -23.249  0.00  0.00    -0.300 OA
ATOM     19  C   UNL d   1      32.581  15.618 -23.293  0.00  0.00     0.142 A 
ATOM     20  C   UNL d   1      32.840  16.375 -23.518  0.00  0.00     0.120 A 
ENDBRANCH  12  15
ENDBRANCH   1  12
TORSDOF 2
ENDMDL
MODEL 5
REMARK VINA RESULT:      -1.3      4.849      6.808
REMARK  2 active torsions:
REMARK  status: ('A' for Active; 'I' for Inactive)
REMARK    1  A    between atoms: S_2  and  N_1 
REMARK    2  A    between atoms: N_6  and  S_2 
ROOT
ATOM      1  N   UNL d   1      32.231  22.350 -20.930  0.00  0.00    -0.199 N 
ATOM      2  C   UNL d   1      32.374  22.589 -20.158  0.00  0.00     0.095 A 
ATOM      3  C   UNL d   1      31.793  22.959 -21.305  0.00  0.00     0.194 A 
ATOM      4  N   UNL d   1      31.677  23.561 -20.750  0.00  0.00    -0.223 NA
ATOM      5  C   UNL d   1      32.034  23.333 -20.045  0.00  0.00     0.100 A 
ATOM      6  C   UNL d   1      32.774  22.216 -19.543  0.00  0.00     0.020 A 
ATOM      7  C   UNL d   1      32.099  23.701 -19.310  0.00  0.00     0.021 A 
ATOM      8  C   UNL d   1      32.839  22.584 -18.808  0.00  0.00     0.002 A 
ATOM      9  C   UNL d   1      32.500  23.331 -18.690  0.00  0.00     0.002 A 
ATOM     10  C   UNL d   1      33.241  22.210 -18.190  0.00  0.00     0.000 C 
ATOM     11  C   UNL d   1      32.563  23.702 -17.954  0.00  0.00     0.000 C 
ENDROOT
BRANCH   1  12
ATOM     12  S   UNL d   1      32.469  21.650 -21.273  0.00  0.00     0.339 S 
ATOM     13  O   UNL d   1      33.081  22.040 -21.662  0.00  0.00    -0.181 OA
ATOM     14  O   UNL d   1      31.859  21.258 -20.887  0.00  0.00    -0.181 OA
BRANCH  12  15
ATOM     15  N   UNL d   1      32.700  20.938 -21.614  0.00  0.00    -0.212 N 
ATOM     16  C   UNL d   1      32.981  20.326 -21.138  0.00  0.00     0.120 A 
ATOM     17  C   UNL d   1      33.211  19.617 -21.477  0.00  0.00     0.142 A 
ATOM     18  O   UNL d   1      33.166  19.510 -22.285  0.00  0.00    -0.300 OA
ATOM     19  C   UNL d   1      32.887  20.116 -22.768  0.00  0.00     0.142 A 
ATOM     20  C   UNL d   1      32.653  20.837 -22.427  0.00  0.00     0.120 A 
ENDBRANCH  12  15
ENDBRANCH   1  12
TORSDOF 2
ENDMDL
MODEL 6
REMARK VINA RESULT:      -0.5      3.348      5.417
REMARK  2 active torsions:
REMARK  status: ('A' for Active; 'I' for Inactive)
REMARK    1  A    between atoms: S_2  and  N_1 
REMARK    2  A    between atoms: N_6  and  S_2 
ROOT
ATOM      1  N   UNL d   1      32.974  20.671 -21.511  0.00  0.00    -0.199 N 
ATOM      2  C   UNL d   1      32.762  21.450 -21.367  0.00  0.00     0.095 A 
ATOM      3  C   UNL d   1      33.215  20.336 -20.782  0.00  0.00     0.194 A 
ATOM      4  N   UNL d   1      33.145  20.922 -20.202  0.00  0.00    -0.223 NA
ATOM      5  C   UNL d   1      32.866  21.607 -20.563  0.00  0.00     0.100 A 
ATOM      6  C   UNL d   1      32.486  22.037 -21.874  0.00  0.00     0.020 A 
ATOM      7  C   UNL d   1      32.691  22.357 -20.270  0.00  0.00     0.021 A 
ATOM      8  C   UNL d   1      32.311  22.787 -21.581  0.00  0.00     0.002 A 
ATOM      9  C   UNL d   1      32.413  22.949 -20.775  0.00  0.00     0.002 A 
ATOM     10  C   UNL d   1      32.033  23.378 -22.089  0.00  0.00     0.000 C 
ATOM     11  C   UNL d   1      32.238  23.702 -20.478  0.00  0.00     0.000 C 
ENDROOT
BRANCH   1  12
ATOM     12  S   UNL d   1      32.956  20.288 -22.231  0.00  0.00     0.339 S 
ATOM     13  O   UNL d   1      33.236  20.965 -22.607  0.00  0.00    -0.181 OA
ATOM     14  O   UNL d   1      32.676  19.611 -21.859  0.00  0.00    -0.181 OA
BRANCH  12  15
ATOM     15  N   UNL d   1      32.933  19.892 -22.952  0.00  0.00    -0.212 N 
ATOM     16  C   UNL d   1      32.600  19.139 -22.996  0.00  0.00     0.120 A 
ATOM     17  C   UNL d   1      32.578  18.744 -23.714  0.00  0.00     0.142 A 
ATOM     18  O   UNL d   1      32.882  19.090 -24.387  0.00  0.00    -0.300 OA
ATOM     19  C   UNL d   1      33.216  19.842 -24.351  0.00  0.00     0.142 A 
ATOM     20  C   UNL d   1      33.241  20.246 -23.625  0.00  0.00     0.120 A 
ENDBRANCH  12  15
ENDBRANCH   1  12
TORSDOF 2
ENDMDL
MODEL 7
REMARK VINA RESULT:      -0.4      1.322      3.649
REMARK  2 active torsions:
REMARK  status: ('A' for Active; 'I' for Inactive)
REMARK    1  A    between atoms: S_2  and  N_1 
REMARK    2  A    between atoms: N_6  and  S_2 
ROOT
ATOM      1  N   UNL d   1      31.774  17.066 -23.618  0.00  0.00    -0.199 N 
ATOM      2  C   UNL d   1      32.035  17.792 -23.897  0.00  0.00     0.095 A 
ATOM      3  C   UNL d   1      32.384  16.744 -23.142  0.00  0.00     0.194 A 
ATOM      4  N   UNL d   1      33.010  17.285 -23.140  0.00  0.00    -0.223 NA
ATOM      5  C   UNL d   1      32.795  17.928 -23.604  0.00  0.00     0.100 A 
ATOM      6  C   UNL d   1      31.670  18.346 -24.384  0.00  0.00     0.020 A 
ATOM      7  C   UNL d   1      33.187  18.626 -23.803  0.00  0.00     0.021 A 
ATOM      8  C   UNL d   1      32.063  19.043 -24.583  0.00  0.00     0.002 A 
ATOM      9  C   UNL d   1      32.825  19.185 -24.292  0.00  0.00     0.002 A 
ATOM     10  C   UNL d   1      31.697  19.601 -25.072  0.00  0.00     0.000 C 
ATOM     11  C   UNL d   1      33.221  19.884 -24.490  0.00  0.00     0.000 C 
ENDROOT
BRANCH   1  12
ATOM     12  S   UNL d   1      31.054  16.717 -23.774  0.00  0.00     0.339 S 
ATOM     13  O   UNL d   1      30.724  17.087 -23.117  0.00  0.00    -0.181 OA
ATOM     14  O   UNL d   1      31.380  16.346 -24.430  0.00  0.00    -0.181 OA
BRANCH  12  15
ATOM     15  N   UNL d   1      30.331  16.360 -23.940  0.00  0.00    -0.212 N 
ATOM     16  C   UNL d   1      30.081  16.284 -24.722  0.00  0.00     0.120 A 
ATOM     17  C   UNL d   1      29.362  15.928 -24.888  0.00  0.00     0.142 A 
ATOM     18  O   UNL d   1      28.889  15.647 -24.285  0.00  0.00    -0.300 OA
ATOM     19  C   UNL d   1      29.132  15.719 -23.501  0.00  0.00     0.142 A 
ATOM     20  C   UNL d   1      29.861  16.080 -23.329  0.00  0.00     0.120 A 
ENDBRANCH  12  15
ENDBRANCH   1  12
TORSDOF 2
ENDMDL
