MODEL 1
REMARK VINA RESULT:      68.0      0.000      0.000
REMARK  4 active torsions:
REMARK  status: ('A' for Active; 'I' for Inactive)
REMARK    1  A    between atoms: C_11  and  N_3 
REMARK    2  A    between atoms: C_10  and  C_5 
REMARK    3  A    between atoms: C_21  and  C_11 
REMARK    4  A    between atoms: N_12  and  C_21 
ROOT
ATOM      1  C   UNL d   1     -54.773-100.901 -42.307  0.00  0.00     0.085 A 
ATOM      2  C   UNL d   1     -54.742-100.157 -41.928  0.00  0.00     0.161 A 
ATOM      3  N   UNL d   1     -54.767 -99.956 -43.253  0.00  0.00    -0.268 N 
ATOM      4  C   UNL d   1     -54.739 -99.578 -42.514  0.00  0.00     0.288 A 
ATOM      5  C   UNL d   1     -54.788-100.770 -43.122  0.00  0.00     0.095 A 
ATOM      6  C   UNL d   1     -54.783-101.595 -41.850  0.00  0.00     0.201 A 
ATOM      7  O   UNL d   1     -54.722-100.116 -41.104  0.00  0.00    -0.302 OA
ATOM      8  C   UNL d   1     -54.762-101.541 -41.024  0.00  0.00     0.063 A 
ATOM      9  C   UNL d   1     -54.732-100.801 -40.647  0.00  0.00     0.103 A 
ATOM     10  O   UNL d   1     -54.712 -98.759 -42.390  0.00  0.00    -0.264 OA
ATOM     11  O   UNL d   1     -54.813-102.331 -42.220  0.00  0.00    -0.286 OA
ATOM     12  C   UNL d   1     -54.772-102.233 -40.574  0.00  0.00     0.017 A 
ATOM     13  C   UNL d   1     -54.711-100.768 -39.827  0.00  0.00     0.026 A 
ATOM     14  C   UNL d   1     -54.751-102.189 -39.754  0.00  0.00     0.058 A 
ATOM     15  C   UNL d   1     -54.721-101.457 -39.380  0.00  0.00     0.013 A 
ATOM     16 CL   UNL d   1     -54.761-102.879 -39.308  0.00  0.00    -0.082 Cl
ENDROOT
BRANCH   3  17
ATOM     17  C   UNL d   1     -54.774 -99.582 -43.986  0.00  0.00     0.102 C 
BRANCH  17  18
ATOM     18  C   UNL d   1     -55.183 -98.872 -44.092  0.00  0.00     0.100 C 
BRANCH  18  19
ATOM     19  N   UNL d   1     -55.875 -98.851 -44.537  0.00  0.00    -0.298 N 
ATOM     20  C   UNL d   1     -56.596 -98.790 -44.158  0.00  0.00     0.107 A 
ATOM     21  C   UNL d   1     -57.288 -98.768 -44.603  0.00  0.00     0.142 A 
ATOM     22  O   UNL d   1     -57.253 -98.808 -45.422  0.00  0.00    -0.300 OA
ATOM     23  C   UNL d   1     -56.524 -98.869 -45.797  0.00  0.00     0.142 A 
ATOM     24  C   UNL d   1     -55.832 -98.891 -45.352  0.00  0.00     0.107 A 
ENDBRANCH  18  19
ENDBRANCH  17  18
ENDBRANCH   3  17
BRANCH   5  25
ATOM     25  C   UNL d   1     -54.819-101.384 -43.674  0.00  0.00     0.116 A 
ATOM     26  O   UNL d   1     -54.958-102.188 -43.514  0.00  0.00    -0.304 OA
ATOM     27  C   UNL d   1     -54.940-102.599 -44.229  0.00  0.00     0.123 A 
ATOM     28  C   UNL d   1     -54.792-102.059 -44.836  0.00  0.00     0.029 A 
ATOM     29  C   UNL d   1     -54.716-101.306 -44.494  0.00  0.00     0.028 A 
ENDBRANCH   5  25
TORSDOF 4
ENDMDL
