MODEL 1
REMARK VINA RESULT:     102.4      0.000      0.000
REMARK  2 active torsions:
REMARK  status: ('A' for Active; 'I' for Inactive)
REMARK       I    between atoms: N_4  and  C_1 
REMARK    1  A    between atoms: C_5  and  C_1 
REMARK       I    between atoms: C_2  and  N_3 
REMARK    2  A    between atoms: C_6  and  C_2 
ROOT
ATOM      1  C   UNL d   1      62.190  45.270  49.674  0.00  0.00     0.265 C 
ATOM      2  C   UNL d   1      61.037  48.489  50.432  0.00  0.00     0.265 C 
ATOM      3  N   UNL d   1      61.143  47.687  50.527  0.00  0.00    -0.270 N 
ATOM      4  N   UNL d   1      61.811  46.028  50.020  0.00  0.00    -0.270 N 
ATOM      5  C   UNL d   1      61.615  47.496  49.852  0.00  0.00     0.102 A 
ATOM      6  C   UNL d   1      61.923  46.723  49.621  0.00  0.00     0.102 A 
ATOM      7  O   UNL d   1      62.672  45.330  48.901  0.00  0.00    -0.267 OA
ATOM      8  O   UNL d   1      61.362  48.867  49.802  0.00  0.00    -0.267 OA
ATOM      9  C   UNL d   1      61.018  46.489  51.110  0.00  0.00     0.038 A 
ATOM     10  C   UNL d   1      61.433  45.956  50.634  0.00  0.00     0.085 A 
ATOM     11  C   UNL d   1      60.887  47.165  51.095  0.00  0.00     0.085 A 
ENDROOT
BRANCH   2  12
ATOM     12  C   UNL d   1      60.599  48.897  50.984  0.00  0.00     0.057 A 
ATOM     13  C   UNL d   1      59.842  49.093  50.808  0.00  0.00     0.005 A 
ATOM     14  C   UNL d   1      59.396  49.501  51.353  0.00  0.00     0.000 A 
ATOM     15  C   UNL d   1      58.628  49.707  51.190  0.00  0.00     0.000 C 
ATOM     16  C   UNL d   1      59.723  49.706  52.068  0.00  0.00     0.000 A 
ATOM     17  C   UNL d   1      60.489  49.505  52.237  0.00  0.00     0.000 A 
ATOM     18  C   UNL d   1      60.927  49.100  51.694  0.00  0.00     0.005 A 
ENDBRANCH   2  12
BRANCH   1  19
ATOM     19  C   UNL d   1      62.054  44.493  50.138  0.00  0.00     0.057 A 
ATOM     20  C   UNL d   1      62.671  43.835  50.105  0.00  0.00     0.005 A 
ATOM     21  C   UNL d   1      62.537  43.062  50.566  0.00  0.00     0.000 A 
ATOM     22  C   UNL d   1      63.143  42.389  50.547  0.00  0.00     0.000 C 
ATOM     23  C   UNL d   1      61.778  42.951  51.063  0.00  0.00     0.000 A 
ATOM     24  C   UNL d   1      61.157  43.621  51.092  0.00  0.00     0.000 A 
ATOM     25  C   UNL d   1      61.295  44.395  50.629  0.00  0.00     0.005 A 
ENDBRANCH   1  19
TORSDOF 2
ENDMDL
