MODEL 1
REMARK VINA RESULT:      -4.5      0.000      0.000
REMARK  4 active torsions:
REMARK  status: ('A' for Active; 'I' for Inactive)
REMARK    1  A    between atoms: N_2  and  S_1 
REMARK    2  A    between atoms: C_4  and  S_1 
REMARK    3  A    between atoms: C_3  and  C_8 
REMARK       I    between atoms: N_5  and  C_3 
REMARK    4  A    between atoms: C_17  and  N_5 
ROOT
ATOM      1  C   UNL d   1     -41.693-123.005 -50.094  0.00  0.00     0.104 A 
ATOM      2  C   UNL d   1     -41.605-122.543 -51.666  0.00  0.00     0.058 A 
ATOM      3  C   UNL d   1     -41.412-123.530 -50.666  0.00  0.00     0.013 A 
ATOM      4  C   UNL d   1     -41.935-122.233 -50.316  0.00  0.00     0.013 A 
ATOM      5  C   UNL d   1     -41.368-123.299 -51.449  0.00  0.00     0.005 A 
ATOM      6  C   UNL d   1     -41.889-122.007 -51.104  0.00  0.00     0.005 A 
ENDROOT
BRANCH   2   7
ATOM      7  C   UNL d   1     -41.565-122.295 -52.466  0.00  0.00     0.279 C 
ATOM      8  N   UNL d   1     -41.921-122.737 -53.060  0.00  0.00    -0.208 NA
ATOM      9  O   UNL d   1     -41.153-121.587 -52.633  0.00  0.00    -0.265 OA
BRANCH   8  10
ATOM     10  C   UNL d   1     -41.880-122.489 -53.856  0.00  0.00     0.085 A 
ATOM     11  C   UNL d   1     -42.445-121.948 -54.148  0.00  0.00     0.020 A 
ATOM     12  C   UNL d   1     -42.413-121.699 -54.926  0.00  0.00     0.013 A 
ATOM     13  C   UNL d   1     -41.820-121.983 -55.426  0.00  0.00     0.058 A 
ATOM     14  C   UNL d   1     -41.255-122.524 -55.134  0.00  0.00     0.013 A 
ATOM     15 CL   UNL d   1     -41.793-121.721 -56.229  0.00  0.00    -0.082 Cl
ATOM     16  C   UNL d   1     -41.291-122.772 -54.348  0.00  0.00     0.020 A 
ENDBRANCH   8  10
ENDBRANCH   2   7
BRANCH   1  17
ATOM     17  S   UNL d   1     -41.746-123.221 -49.287  0.00  0.00     0.272 S 
ATOM     18  O   UNL d   1     -41.122-123.775 -49.365  0.00  0.00    -0.200 OA
ATOM     19  O   UNL d   1     -42.383-122.659 -49.195  0.00  0.00    -0.200 OA
BRANCH  17  20
ATOM     20  N   UNL d   1     -41.825-123.415 -48.475  0.00  0.00    -0.225 N 
ATOM     21  C   UNL d   1     -41.169-123.419 -47.980  0.00  0.00     0.118 A 
ATOM     22  C   UNL d   1     -41.257-123.610 -47.189  0.00  0.00     0.142 A 
ATOM     23  O   UNL d   1     -42.025-123.804 -46.879  0.00  0.00    -0.300 OA
ATOM     24  C   UNL d   1     -42.683-123.801 -47.369  0.00  0.00     0.142 A 
ATOM     25  C   UNL d   1     -42.593-123.609 -48.165  0.00  0.00     0.118 A 
ENDBRANCH  17  20
ENDBRANCH   1  17
TORSDOF 4
ENDMDL
