MODEL 1
REMARK VINA RESULT:      26.6      0.000      0.000
REMARK  3 active torsions:
REMARK  status: ('A' for Active; 'I' for Inactive)
REMARK    1  A    between atoms: C_2  and  C_1 
REMARK    2  A    between atoms: C_3  and  C_1 
REMARK       I    between atoms: N_4  and  C_2 
REMARK    3  A    between atoms: C_6  and  N_4 
ROOT
ATOM      1  C   UNL d   1      45.362 -14.582  44.362  0.00  0.00     0.150 A 
ATOM      2  O   UNL d   1      43.842 -15.061  44.799  0.00  0.00    -0.304 OA
ATOM      3  C   UNL d   1      45.250 -15.312  44.736  0.00  0.00     0.019 A 
ATOM      4  C   UNL d   1      44.721 -14.101  44.210  0.00  0.00     0.019 A 
ATOM      5  C   UNL d   1      43.955 -14.342  44.430  0.00  0.00     0.119 A 
ATOM      6  C   UNL d   1      44.488 -15.550  44.954  0.00  0.00     0.119 A 
ENDROOT
BRANCH   1   7
ATOM      7  C   UNL d   1      46.012 -15.071  44.516  0.00  0.00     0.315 C 
ATOM      8  N   UNL d   1      46.030 -15.845  44.233  0.00  0.00    -0.367 NA
ATOM      9  O   UNL d   1      46.643 -14.776  44.955  0.00  0.00    -0.255 OA
BRANCH   8  10
ATOM     10  C   UNL d   1      46.054 -16.618  43.954  0.00  0.00     0.135 A 
ATOM     11  C   UNL d   1      46.265 -17.209  44.472  0.00  0.00     0.032 A 
ATOM     12  C   UNL d   1      46.291 -17.997  44.191  0.00  0.00     0.003 A 
ATOM     13  C   UNL d   1      46.505 -18.602  44.714  0.00  0.00     0.000 C 
ATOM     14  C   UNL d   1      46.111 -18.152  43.433  0.00  0.00     0.000 A 
ATOM     15  C   UNL d   1      45.901 -17.563  42.918  0.00  0.00     0.003 A 
ATOM     16  C   UNL d   1      45.874 -16.795  43.184  0.00  0.00     0.032 A 
ATOM     17  C   UNL d   1      45.715 -17.731  42.135  0.00  0.00     0.000 C 
ENDBRANCH   8  10
ENDBRANCH   1   7
BRANCH   1  18
ATOM     18  C   UNL d   1      45.477 -13.852  43.987  0.00  0.00     0.024 A 
ATOM     19  S   UNL d   1      45.891 -13.198  44.289  0.00  0.00    -0.090 SA
ATOM     20  C   UNL d   1      45.870 -12.588  43.734  0.00  0.00     0.035 A 
ATOM     21  C   UNL d   1      45.447 -12.845  43.079  0.00  0.00     0.007 A 
ATOM     22  C   UNL d   1      45.202 -13.630  43.233  0.00  0.00     0.004 A 
ENDBRANCH   1  18
TORSDOF 3
ENDMDL
