MODEL 1
REMARK VINA RESULT:      -1.8      0.000      0.000
REMARK  4 active torsions:
REMARK  status: ('A' for Active; 'I' for Inactive)
REMARK    1  A    between atoms: C_2  and  C_1 
REMARK    2  A    between atoms: C_15  and  C_8 
REMARK    3  A    between atoms: C_9  and  C_15 
REMARK    4  A    between atoms: C_18  and  C_10 
ROOT
ATOM      1  C   UNL d   1     -42.365-122.427 -50.203  0.00  0.00     0.094 A 
ATOM      2  N   UNL d   1     -41.672-122.557 -50.632  0.00  0.00    -0.238 NA
ATOM      3  C   UNL d   1     -41.706-122.097 -51.317  0.00  0.00     0.113 A 
ATOM      4  S   UNL d   1     -42.414-121.684 -51.316  0.00  0.00    -0.066 SA
ATOM      5  C   UNL d   1     -42.824-121.885 -50.628  0.00  0.00     0.056 A 
ENDROOT
BRANCH   3   6
ATOM      6  C   UNL d   1     -41.123-122.062 -51.903  0.00  0.00     0.051 C 
BRANCH   6   7
ATOM      7  C   UNL d   1     -41.280-122.371 -52.653  0.00  0.00     0.113 A 
ATOM      8  N   UNL d   1     -41.619-121.967 -53.287  0.00  0.00    -0.238 NA
ATOM      9  C   UNL d   1     -41.672-122.488 -53.924  0.00  0.00     0.088 A 
ATOM     10  C   UNL d   1     -41.364-123.214 -53.683  0.00  0.00     0.056 A 
ATOM     11  S   UNL d   1     -41.123-123.143 -52.900  0.00  0.00    -0.066 SA
BRANCH   9  12
ATOM     12  C   UNL d   1     -41.979-122.308 -54.671  0.00  0.00     0.018 A 
ATOM     13  C   UNL d   1     -41.580-121.801 -55.168  0.00  0.00     0.002 A 
ATOM     14  C   UNL d   1     -41.889-121.624 -55.912  0.00  0.00     0.007 A 
ATOM     15  C   UNL d   1     -42.604-121.960 -56.152  0.00  0.00     0.035 A 
ATOM     16  C   UNL d   1     -43.004-122.466 -55.655  0.00  0.00     0.007 A 
ATOM     17 BR   UNL d   1     -42.913-121.782 -56.896  0.00  0.00    -0.049 Br
ATOM     18  C   UNL d   1     -42.696-122.646 -54.908  0.00  0.00     0.002 A 
ENDBRANCH   9  12
ENDBRANCH   6   7
ENDBRANCH   3   6
BRANCH   1  19
ATOM     19  C   UNL d   1     -42.563-122.774 -49.482  0.00  0.00     0.082 A 
ATOM     20  C   UNL d   1     -43.271-123.193 -49.406  0.00  0.00     0.302 A 
ATOM     21  O   UNL d   1     -43.469-123.539 -48.685  0.00  0.00    -0.273 OA
ATOM     22  O   UNL d   1     -43.779-123.263 -50.052  0.00  0.00    -0.259 OA
ATOM     23  C   UNL d   1     -42.961-123.469 -48.039  0.00  0.00     0.103 A 
ATOM     24  C   UNL d   1     -42.253-123.050 -48.115  0.00  0.00     0.023 A 
ATOM     25  C   UNL d   1     -43.159-123.816 -47.318  0.00  0.00     0.025 A 
ATOM     26  C   UNL d   1     -42.055-122.703 -48.837  0.00  0.00     0.009 A 
ATOM     27  C   UNL d   1     -41.745-122.980 -47.470  0.00  0.00     0.002 A 
ATOM     28  C   UNL d   1     -41.944-123.326 -46.752  0.00  0.00     0.000 A 
ATOM     29  C   UNL d   1     -42.652-123.745 -46.677  0.00  0.00     0.002 A 
ENDBRANCH   1  19
TORSDOF 4
ENDMDL
