MODEL 1
REMARK VINA RESULT:      81.3      0.000      0.000
REMARK  3 active torsions:
REMARK  status: ('A' for Active; 'I' for Inactive)
REMARK    1  A    between atoms: C_21  and  N_1 
REMARK       I    between atoms: N_6  and  C_8 
REMARK    2  A    between atoms: C_8  and  C_9 
REMARK    3  A    between atoms: C_24  and  C_21 
ROOT
ATOM      1  N   UNL d   1     -48.375  30.185  34.918  0.00  0.00    -0.249 N 
ATOM      2  C   UNL d   1     -48.011  29.611  35.371  0.00  0.00     0.208 A 
ATOM      3  C   UNL d   1     -48.866  29.968  34.289  0.00  0.00     0.268 A 
ATOM      4  C   UNL d   1     -48.982  29.168  34.128  0.00  0.00     0.074 A 
ATOM      5  N   UNL d   1     -48.131  28.806  35.205  0.00  0.00    -0.218 NA
ATOM      6  C   UNL d   1     -48.618  28.601  34.582  0.00  0.00     0.088 A 
ATOM      7  C   UNL d   1     -49.227  27.575  33.790  0.00  0.00     0.058 A 
ATOM      8  C   UNL d   1     -48.736  27.801  34.418  0.00  0.00     0.024 A 
ATOM      9  C   UNL d   1     -49.471  28.954  33.503  0.00  0.00     0.006 A 
ATOM     10  S   UNL d   1     -47.514  29.834  36.007  0.00  0.00    -0.038 SA
ATOM     11  O   UNL d   1     -49.235  30.544  33.830  0.00  0.00    -0.267 OA
ATOM     12  C   UNL d   1     -49.592  28.151  33.335  0.00  0.00     0.005 A 
ENDROOT
BRANCH   7  13
ATOM     13  C   UNL d   1     -49.346  26.772  33.625  0.00  0.00     0.265 C 
ATOM     14  N   UNL d   1     -50.110  26.464  33.631  0.00  0.00    -0.272 N 
ATOM     15  C   UNL d   1     -50.228  25.669  33.467  0.00  0.00     0.083 A 
ATOM     16  C   UNL d   1     -50.757  26.945  33.799  0.00  0.00     0.083 A 
ATOM     17  C   UNL d   1     -50.978  25.363  33.472  0.00  0.00     0.018 A 
ATOM     18  C   UNL d   1     -51.086  24.558  33.306  0.00  0.00     0.002 A 
ATOM     19  C   UNL d   1     -51.626  25.841  33.639  0.00  0.00     0.003 A 
ATOM     20  C   UNL d   1     -51.852  24.231  33.307  0.00  0.00     0.000 A 
ATOM     21  C   UNL d   1     -52.504  24.708  33.475  0.00  0.00     0.000 A 
ATOM     22  C   UNL d   1     -52.385  25.512  33.640  0.00  0.00     0.000 A 
ATOM     23  C   UNL d   1     -51.513  26.632  33.803  0.00  0.00     0.019 A 
ATOM     24  O   UNL d   1     -48.698  26.290  33.457  0.00  0.00    -0.267 OA
ENDBRANCH   7  13
BRANCH   1  25
ATOM     25  C   UNL d   1     -48.255  30.997  35.085  0.00  0.00     0.085 C 
BRANCH  25  26
ATOM     26  C   UNL d   1     -47.861  31.470  34.538  0.00  0.00     0.019 C 
ATOM     27  C   UNL d   1     -47.828  32.289  34.665  0.00  0.00     0.002 C 
ENDBRANCH  25  26
ENDBRANCH   1  25
TORSDOF 3
ENDMDL
