MODEL 1
REMARK VINA RESULT:      -8.9      0.000      0.000
REMARK  6 active torsions:
REMARK  status: ('A' for Active; 'I' for Inactive)
REMARK    1  A    between atoms: C_8  and  C_1 
REMARK    2  A    between atoms: S_10  and  C_2 
REMARK    3  A    between atoms: C_7  and  C_4 
REMARK    4  A    between atoms: C_23  and  S_10 
REMARK    5  A    between atoms: C_16  and  C_23 
REMARK    6  A    between atoms: O_25  and  C_16 
ROOT
ATOM      1  C   UNL d   1      52.793  32.096  53.436  0.00  0.00     0.045 A 
ATOM      2  C   UNL d   1      53.372  31.603  53.838  0.00  0.00     0.112 A 
ATOM      3  C   UNL d   1      53.316  33.241  54.125  0.00  0.00     0.057 A 
ATOM      4  C   UNL d   1      52.779  32.906  53.590  0.00  0.00     0.008 A 
ATOM      5  C   UNL d   1      53.873  32.767  54.512  0.00  0.00     0.085 A 
ATOM      6  N   UNL d   1      53.899  31.952  54.367  0.00  0.00    -0.239 NA
ATOM      7  C   UNL d   1      53.287  34.052  54.266  0.00  0.00     0.197 A 
ATOM      8  O   UNL d   1      52.727  34.529  53.878  0.00  0.00    -0.286 OA
ATOM      9  C   UNL d   1      54.407  33.097  55.043  0.00  0.00     0.019 A 
ATOM     10  C   UNL d   1      53.814  34.401  54.796  0.00  0.00     0.042 A 
ATOM     11  C   UNL d   1      54.393  33.908  55.198  0.00  0.00     0.005 A 
ENDROOT
BRANCH   4  12
ATOM     12  C   UNL d   1      52.220  33.383  53.201  0.00  0.00     0.002 A 
ATOM     13  C   UNL d   1      51.441  33.416  53.467  0.00  0.00     0.026 A 
ATOM     14  C   UNL d   1      50.885  33.890  53.081  0.00  0.00     0.119 A 
ATOM     15  O   UNL d   1      50.075  34.034  53.217  0.00  0.00    -0.300 OA
ATOM     16  C   UNL d   1      51.104  34.334  52.427  0.00  0.00     0.119 A 
ATOM     17  C   UNL d   1      49.814  34.555  52.655  0.00  0.00     0.304 A 
ATOM     18  O   UNL d   1      50.434  34.742  52.171  0.00  0.00    -0.300 OA
ATOM     19  C   UNL d   1      51.925  34.305  52.140  0.00  0.00     0.026 A 
ATOM     20  C   UNL d   1      52.462  33.828  52.537  0.00  0.00     0.002 A 
ENDBRANCH   4  12
BRANCH   1  21
ATOM     21  C   UNL d   1      52.231  31.771  52.880  0.00  0.00     0.124 C 
ATOM     22  N   UNL d   1      52.486  31.274  52.285  0.00  0.00    -0.146 N 
ENDBRANCH   1  21
BRANCH   2  23
ATOM     23  S   UNL d   1      53.418  30.759  53.704  0.00  0.00    -0.062 SA
BRANCH  23  24
ATOM     24  C   UNL d   1      53.572  30.256  54.330  0.00  0.00     0.105 C 
BRANCH  24  25
ATOM     25  C   UNL d   1      53.557  29.441  54.214  0.00  0.00     0.303 C 
ATOM     26  O   UNL d   1      54.025  29.099  53.631  0.00  0.00    -0.259 OA
BRANCH  25  27
ATOM     27  O   UNL d   1      53.075  28.968  54.681  0.00  0.00    -0.295 OA
ATOM     28  C   UNL d   1      53.390  28.354  55.135  0.00  0.00     0.185 C 
ENDBRANCH  25  27
ENDBRANCH  24  25
ENDBRANCH  23  24
ENDBRANCH   2  23
TORSDOF 6
ENDMDL
MODEL 2
REMARK VINA RESULT:      -8.9      1.648      4.428
REMARK  6 active torsions:
REMARK  status: ('A' for Active; 'I' for Inactive)
REMARK    1  A    between atoms: C_8  and  C_1 
REMARK    2  A    between atoms: S_10  and  C_2 
REMARK    3  A    between atoms: C_7  and  C_4 
REMARK    4  A    between atoms: C_23  and  S_10 
REMARK    5  A    between atoms: C_16  and  C_23 
REMARK    6  A    between atoms: O_25  and  C_16 
ROOT
ATOM      1  C   UNL d   1      52.560  33.630  53.378  0.00  0.00     0.045 A 
ATOM      2  C   UNL d   1      51.833  33.417  52.973  0.00  0.00     0.112 A 
ATOM      3  C   UNL d   1      52.943  32.247  53.385  0.00  0.00     0.057 A 
ATOM      4  C   UNL d   1      53.100  33.038  53.576  0.00  0.00     0.008 A 
ATOM      5  C   UNL d   1      52.243  32.042  52.995  0.00  0.00     0.085 A 
ATOM      6  N   UNL d   1      51.692  32.625  52.790  0.00  0.00    -0.239 NA
ATOM      7  C   UNL d   1      53.493  31.670  53.591  0.00  0.00     0.197 A 
ATOM      8  O   UNL d   1      54.197  31.877  53.983  0.00  0.00    -0.286 OA
ATOM      9  C   UNL d   1      52.086  31.256  52.806  0.00  0.00     0.019 A 
ATOM     10  C   UNL d   1      53.352  30.877  53.409  0.00  0.00     0.042 A 
ATOM     11  C   UNL d   1      52.625  30.663  53.003  0.00  0.00     0.005 A 
ENDROOT
BRANCH   4  12
ATOM     12  C   UNL d   1      53.803  33.245  53.968  0.00  0.00     0.002 A 
ATOM     13  C   UNL d   1      53.797  33.427  54.771  0.00  0.00     0.026 A 
ATOM     14  C   UNL d   1      54.496  33.632  55.161  0.00  0.00     0.119 A 
ATOM     15  O   UNL d   1      54.661  33.839  55.952  0.00  0.00    -0.300 OA
ATOM     16  C   UNL d   1      55.206  33.657  54.750  0.00  0.00     0.119 A 
ATOM     17  C   UNL d   1      55.455  33.986  56.013  0.00  0.00     0.304 A 
ATOM     18  O   UNL d   1      55.792  33.877  55.287  0.00  0.00    -0.300 OA
ATOM     19  C   UNL d   1      55.221  33.467  53.901  0.00  0.00     0.026 A 
ATOM     20  C   UNL d   1      54.516  33.265  53.533  0.00  0.00     0.002 A 
ENDBRANCH   4  12
BRANCH   1  21
ATOM     21  C   UNL d   1      52.742  34.440  53.584  0.00  0.00     0.124 C 
ATOM     22  N   UNL d   1      52.729  35.020  53.009  0.00  0.00    -0.146 N 
ENDBRANCH   1  21
BRANCH   2  23
ATOM     23  S   UNL d   1      51.249  34.002  52.751  0.00  0.00    -0.062 SA
BRANCH  23  24
ATOM     24  C   UNL d   1      50.489  33.767  52.566  0.00  0.00     0.105 C 
BRANCH  24  25
ATOM     25  C   UNL d   1      49.922  34.332  52.369  0.00  0.00     0.303 C 
ATOM     26  O   UNL d   1      49.582  34.797  52.954  0.00  0.00    -0.259 OA
BRANCH  25  27
ATOM     27  O   UNL d   1      49.696  34.430  51.585  0.00  0.00    -0.295 OA
ATOM     28  C   UNL d   1      48.924  34.646  51.388  0.00  0.00     0.185 C 
ENDBRANCH  25  27
ENDBRANCH  24  25
ENDBRANCH  23  24
ENDBRANCH   2  23
TORSDOF 6
ENDMDL
MODEL 3
REMARK VINA RESULT:      -7.7      1.239      4.203
REMARK  6 active torsions:
REMARK  status: ('A' for Active; 'I' for Inactive)
REMARK    1  A    between atoms: C_8  and  C_1 
REMARK    2  A    between atoms: S_10  and  C_2 
REMARK    3  A    between atoms: C_7  and  C_4 
REMARK    4  A    between atoms: C_23  and  S_10 
REMARK    5  A    between atoms: C_16  and  C_23 
REMARK    6  A    between atoms: O_25  and  C_16 
ROOT
ATOM      1  C   UNL d   1      52.171  32.586  53.346  0.00  0.00     0.045 A 
ATOM      2  C   UNL d   1      51.888  33.397  53.380  0.00  0.00     0.112 A 
ATOM      3  C   UNL d   1      53.316  32.971  54.121  0.00  0.00     0.057 A 
ATOM      4  C   UNL d   1      52.881  32.392  53.719  0.00  0.00     0.008 A 
ATOM      5  C   UNL d   1      53.044  33.751  54.154  0.00  0.00     0.085 A 
ATOM      6  N   UNL d   1      52.333  33.962  53.784  0.00  0.00    -0.239 NA
ATOM      7  C   UNL d   1      54.022  32.758  54.487  0.00  0.00     0.197 A 
ATOM      8  O   UNL d   1      54.296  31.973  54.454  0.00  0.00    -0.286 OA
ATOM      9  C   UNL d   1      53.475  34.328  54.553  0.00  0.00     0.019 A 
ATOM     10  C   UNL d   1      54.468  33.323  54.892  0.00  0.00     0.042 A 
ATOM     11  C   UNL d   1      54.185  34.134  54.926  0.00  0.00     0.005 A 
ENDROOT
BRANCH   4  12
ATOM     12  C   UNL d   1      53.155  31.607  53.686  0.00  0.00     0.002 A 
ATOM     13  C   UNL d   1      52.909  31.054  54.245  0.00  0.00     0.026 A 
ATOM     14  C   UNL d   1      53.181  30.275  54.212  0.00  0.00     0.119 A 
ATOM     15  O   UNL d   1      53.035  29.606  54.688  0.00  0.00    -0.300 OA
ATOM     16  C   UNL d   1      53.700  30.043  53.621  0.00  0.00     0.119 A 
ATOM     17  C   UNL d   1      53.459  28.985  54.388  0.00  0.00     0.304 A 
ATOM     18  O   UNL d   1      53.866  29.243  53.739  0.00  0.00    -0.300 OA
ATOM     19  C   UNL d   1      53.965  30.621  53.026  0.00  0.00     0.026 A 
ATOM     20  C   UNL d   1      53.683  31.391  53.076  0.00  0.00     0.002 A 
ENDBRANCH   4  12
BRANCH   1  21
ATOM     21  C   UNL d   1      51.738  31.973  52.937  0.00  0.00     0.124 C 
ATOM     22  N   UNL d   1      50.951  31.843  53.113  0.00  0.00    -0.146 N 
ENDBRANCH   1  21
BRANCH   2  23
ATOM     23  S   UNL d   1      51.157  33.638  53.006  0.00  0.00    -0.062 SA
BRANCH  23  24
ATOM     24  C   UNL d   1      50.937  34.425  53.012  0.00  0.00     0.105 C 
BRANCH  24  25
ATOM     25  C   UNL d   1      50.205  34.648  52.707  0.00  0.00     0.303 C 
ATOM     26  O   UNL d   1      50.054  34.572  51.903  0.00  0.00    -0.259 OA
BRANCH  25  27
ATOM     27  O   UNL d   1      49.626  34.948  53.206  0.00  0.00    -0.295 OA
ATOM     28  C   UNL d   1      48.965  35.341  52.905  0.00  0.00     0.185 C 
ENDBRANCH  25  27
ENDBRANCH  24  25
ENDBRANCH  23  24
ENDBRANCH   2  23
TORSDOF 6
ENDMDL
MODEL 4
REMARK VINA RESULT:      -6.3      1.142      2.606
REMARK  6 active torsions:
REMARK  status: ('A' for Active; 'I' for Inactive)
REMARK    1  A    between atoms: C_8  and  C_1 
REMARK    2  A    between atoms: S_10  and  C_2 
REMARK    3  A    between atoms: C_7  and  C_4 
REMARK    4  A    between atoms: C_23  and  S_10 
REMARK    5  A    between atoms: C_16  and  C_23 
REMARK    6  A    between atoms: O_25  and  C_16 
ROOT
ATOM      1  C   UNL d   1      53.040  32.861  53.655  0.00  0.00     0.045 A 
ATOM      2  C   UNL d   1      52.759  32.071  53.463  0.00  0.00     0.112 A 
ATOM      3  C   UNL d   1      51.780  33.396  53.223  0.00  0.00     0.057 A 
ATOM      4  C   UNL d   1      52.542  33.506  53.530  0.00  0.00     0.008 A 
ATOM      5  C   UNL d   1      51.510  32.636  53.039  0.00  0.00     0.085 A 
ATOM      6  N   UNL d   1      51.998  31.978  53.159  0.00  0.00    -0.239 NA
ATOM      7  C   UNL d   1      51.297  34.052  53.105  0.00  0.00     0.197 A 
ATOM      8  O   UNL d   1      51.569  34.816  53.291  0.00  0.00    -0.286 OA
ATOM      9  C   UNL d   1      50.753  32.524  52.734  0.00  0.00     0.019 A 
ATOM     10  C   UNL d   1      50.536  33.960  52.801  0.00  0.00     0.042 A 
ATOM     11  C   UNL d   1      50.254  33.170  52.609  0.00  0.00     0.005 A 
ENDROOT
BRANCH   4  12
ATOM     12  C   UNL d   1      52.814  34.270  53.716  0.00  0.00     0.002 A 
ATOM     13  C   UNL d   1      52.707  34.581  54.471  0.00  0.00     0.026 A 
ATOM     14  C   UNL d   1      52.977  35.339  54.655  0.00  0.00     0.119 A 
ATOM     15  O   UNL d   1      52.951  35.793  55.354  0.00  0.00    -0.300 OA
ATOM     16  C   UNL d   1      53.356  35.793  54.086  0.00  0.00     0.119 A 
ATOM     17  C   UNL d   1      53.307  36.505  55.206  0.00  0.00     0.304 A 
ATOM     18  O   UNL d   1      53.556  36.512  54.437  0.00  0.00    -0.300 OA
ATOM     19  C   UNL d   1      53.473  35.472  53.285  0.00  0.00     0.026 A 
ATOM     20  C   UNL d   1      53.197  34.716  53.122  0.00  0.00     0.002 A 
ENDBRANCH   4  12
BRANCH   1  21
ATOM     21  C   UNL d   1      53.822  32.997  53.972  0.00  0.00     0.124 C 
ATOM     22  N   UNL d   1      54.067  32.596  54.639  0.00  0.00    -0.146 N 
ENDBRANCH   1  21
BRANCH   2  23
ATOM     23  S   UNL d   1      53.245  31.377  53.578  0.00  0.00    -0.062 SA
BRANCH  23  24
ATOM     24  C   UNL d   1      52.967  30.643  53.351  0.00  0.00     0.105 C 
BRANCH  24  25
ATOM     25  C   UNL d   1      53.351  29.961  53.608  0.00  0.00     0.303 C 
ATOM     26  O   UNL d   1      54.115  29.798  53.355  0.00  0.00    -0.259 OA
BRANCH  25  27
ATOM     27  O   UNL d   1      52.969  29.443  54.118  0.00  0.00    -0.295 OA
ATOM     28  C   UNL d   1      53.381  28.835  54.496  0.00  0.00     0.185 C 
ENDBRANCH  25  27
ENDBRANCH  24  25
ENDBRANCH  23  24
ENDBRANCH   2  23
TORSDOF 6
ENDMDL
