MODEL 1
REMARK VINA RESULT:      -3.5      0.000      0.000
REMARK  1 active torsions:
REMARK  status: ('A' for Active; 'I' for Inactive)
REMARK    1  A    between atoms: C_10  and  N_2 
ROOT
ATOM      1  C   UNL d   1     -41.435-121.651 -51.250  0.00  0.00     0.759 A 
ATOM      2  N   UNL d   1     -41.614-122.450 -51.042  0.00  0.00    -0.103 N 
ATOM      3  N   UNL d   1     -41.286-121.460 -52.035  0.00  0.00    -0.038 N 
ATOM      4  C   UNL d   1     -41.636-123.022 -51.629  0.00  0.00     0.280 A 
ATOM      5  N   UNL d   1     -41.374-120.964 -50.790  0.00  0.00     0.066 NA
ATOM      6  C   UNL d   1     -41.487-122.836 -52.416  0.00  0.00     0.075 A 
ATOM      7  N   UNL d   1     -41.127-120.629 -52.061  0.00  0.00    -0.025 NA
ATOM      8  N   UNL d   1     -41.182-120.341 -51.307  0.00  0.00    -0.007 NA
ATOM      9  C   UNL d   1     -41.308-122.036 -52.624  0.00  0.00     0.107 A 
ATOM     10  O   UNL d   1     -41.814-123.817 -51.423  0.00  0.00    -0.266 OA
ATOM     11  C   UNL d   1     -41.508-123.407 -53.004  0.00  0.00     0.006 A 
ATOM     12  C   UNL d   1     -41.158-121.846 -53.409  0.00  0.00     0.020 A 
ATOM     13  C   UNL d   1     -41.359-123.221 -53.792  0.00  0.00     0.000 A 
ATOM     14  C   UNL d   1     -41.180-122.422 -53.999  0.00  0.00     0.002 A 
ENDROOT
BRANCH   2  15
ATOM     15  C   UNL d   1     -41.762-122.638 -50.262  0.00  0.00     0.084 A 
ATOM     16  C   UNL d   1     -42.526-122.622 -49.954  0.00  0.00     0.017 A 
ATOM     17  C   UNL d   1     -43.099-122.433 -50.390  0.00  0.00     0.002 C 
ATOM     18  C   UNL d   1     -42.676-122.811 -49.170  0.00  0.00     0.002 A 
ATOM     19  C   UNL d   1     -42.037-123.026 -48.669  0.00  0.00     0.000 A 
ATOM     20  C   UNL d   1     -41.258-123.049 -48.959  0.00  0.00     0.002 A 
ATOM     21  C   UNL d   1     -41.123-122.854 -49.760  0.00  0.00     0.018 A 
ENDBRANCH   2  15
TORSDOF 1
ENDMDL
MODEL 2
REMARK VINA RESULT:      -3.0      1.018      3.333
REMARK  1 active torsions:
REMARK  status: ('A' for Active; 'I' for Inactive)
REMARK    1  A    between atoms: C_10  and  N_2 
ROOT
ATOM      1  C   UNL d   1     -41.411-121.665 -52.571  0.00  0.00     0.759 A 
ATOM      2  N   UNL d   1     -41.573-122.391 -52.971  0.00  0.00    -0.103 N 
ATOM      3  N   UNL d   1     -41.264-121.672 -51.763  0.00  0.00    -0.038 N 
ATOM      4  C   UNL d   1     -41.580-123.091 -52.545  0.00  0.00     0.280 A 
ATOM      5  N   UNL d   1     -41.366-120.884 -52.845  0.00  0.00     0.066 NA
ATOM      6  C   UNL d   1     -41.433-123.103 -51.736  0.00  0.00     0.075 A 
ATOM      7  N   UNL d   1     -41.123-120.871 -51.530  0.00  0.00    -0.025 NA
ATOM      8  N   UNL d   1     -41.187-120.405 -52.189  0.00  0.00    -0.007 NA
ATOM      9  C   UNL d   1     -41.271-122.377 -51.336  0.00  0.00     0.107 A 
ATOM     10  O   UNL d   1     -41.742-123.814 -52.943  0.00  0.00    -0.266 OA
ATOM     11  C   UNL d   1     -41.440-123.803 -51.309  0.00  0.00     0.006 A 
ATOM     12  C   UNL d   1     -41.124-122.384 -50.527  0.00  0.00     0.020 A 
ATOM     13  C   UNL d   1     -41.293-123.816 -50.500  0.00  0.00     0.000 A 
ATOM     14  C   UNL d   1     -41.131-123.090 -50.099  0.00  0.00     0.002 A 
ENDROOT
BRANCH   2  15
ATOM     15  C   UNL d   1     -41.720-122.382 -53.774  0.00  0.00     0.084 A 
ATOM     16  C   UNL d   1     -42.440-122.123 -54.076  0.00  0.00     0.017 A 
ATOM     17  C   UNL d   1     -42.976-121.890 -53.614  0.00  0.00     0.002 C 
ATOM     18  C   UNL d   1     -42.589-122.113 -54.883  0.00  0.00     0.002 A 
ATOM     19  C   UNL d   1     -41.992-122.374 -55.414  0.00  0.00     0.000 A 
ATOM     20  C   UNL d   1     -41.257-122.640 -55.130  0.00  0.00     0.002 A 
ATOM     21  C   UNL d   1     -41.123-122.643 -54.306  0.00  0.00     0.018 A 
ENDBRANCH   2  15
TORSDOF 1
ENDMDL
MODEL 3
REMARK VINA RESULT:      -2.8      1.752      4.126
REMARK  1 active torsions:
REMARK  status: ('A' for Active; 'I' for Inactive)
REMARK    1  A    between atoms: C_10  and  N_2 
ROOT
ATOM      1  C   UNL d   1     -43.081-123.251 -49.721  0.00  0.00     0.759 A 
ATOM      2  N   UNL d   1     -42.318-122.891 -49.772  0.00  0.00    -0.103 N 
ATOM      3  N   UNL d   1     -43.373-123.480 -48.988  0.00  0.00    -0.038 N 
ATOM      4  C   UNL d   1     -41.882-122.777 -49.087  0.00  0.00     0.280 A 
ATOM      5  N   UNL d   1     -43.641-123.436 -50.303  0.00  0.00     0.066 NA
ATOM      6  C   UNL d   1     -42.170-123.005 -48.351  0.00  0.00     0.075 A 
ATOM      7  N   UNL d   1     -44.137-123.817 -49.121  0.00  0.00    -0.025 NA
ATOM      8  N   UNL d   1     -44.289-123.785 -49.916  0.00  0.00    -0.007 NA
ATOM      9  C   UNL d   1     -42.933-123.364 -48.300  0.00  0.00     0.107 A 
ATOM     10  O   UNL d   1     -41.123-122.419 -49.137  0.00  0.00    -0.266 OA
ATOM     11  C   UNL d   1     -41.734-122.891 -47.666  0.00  0.00     0.006 A 
ATOM     12  C   UNL d   1     -43.225-123.594 -47.567  0.00  0.00     0.020 A 
ATOM     13  C   UNL d   1     -42.022-123.118 -46.929  0.00  0.00     0.000 A 
ATOM     14  C   UNL d   1     -42.785-123.478 -46.879  0.00  0.00     0.002 A 
ENDROOT
BRANCH   2  15
ATOM     15  C   UNL d   1     -42.029-122.664 -50.501  0.00  0.00     0.084 A 
ATOM     16  C   UNL d   1     -41.508-123.141 -50.924  0.00  0.00     0.017 A 
ATOM     17  C   UNL d   1     -41.290-123.795 -50.642  0.00  0.00     0.002 C 
ATOM     18  C   UNL d   1     -41.217-122.914 -51.656  0.00  0.00     0.002 A 
ATOM     19  C   UNL d   1     -41.455-122.177 -51.983  0.00  0.00     0.000 A 
ATOM     20  C   UNL d   1     -41.981-121.680 -51.573  0.00  0.00     0.002 A 
ATOM     21  C   UNL d   1     -42.267-121.927 -50.828  0.00  0.00     0.018 A 
ENDBRANCH   2  15
TORSDOF 1
ENDMDL
