MODEL 1
REMARK VINA RESULT:      -4.0      0.000      0.000
REMARK  5 active torsions:
REMARK  status: ('A' for Active; 'I' for Inactive)
REMARK    1  A    between atoms: C_6  and  S_1 
REMARK    2  A    between atoms: N_7  and  S_1 
REMARK    3  A    between atoms: C_15  and  N_7 
REMARK    4  A    between atoms: O_21  and  C_16 
REMARK    5  A    between atoms: C_22  and  O_21 
ROOT
ATOM      1  S   UNL d   1      56.830   0.188  32.058  0.00  0.00     0.327 S 
ATOM      2  O   UNL d   1      57.487   0.669  31.947  0.00  0.00    -0.186 OA
ATOM      3  O   UNL d   1      56.672  -0.421  31.530  0.00  0.00    -0.186 OA
ENDROOT
BRANCH   1   4
ATOM      4  C   UNL d   1      56.331   0.315  32.697  0.00  0.00     0.118 A 
ATOM      5  C   UNL d   1      56.634   0.308  33.459  0.00  0.00     0.035 A 
ATOM      6  C   UNL d   1      56.134   0.436  34.107  0.00  0.00     0.105 A 
ATOM      7  N   UNL d   1      56.272   0.460  34.920  0.00  0.00    -0.189 NA
ATOM      8  C   UNL d   1      55.323   0.572  33.982  0.00  0.00     0.104 A 
ATOM      9  C   UNL d   1      55.548   0.612  35.302  0.00  0.00     0.369 A 
ATOM     10  O   UNL d   1      55.434   0.681  36.114  0.00  0.00    -0.242 OA
ATOM     11  N   UNL d   1      54.967   0.680  34.718  0.00  0.00    -0.189 NA
ATOM     12  C   UNL d   1      55.022   0.578  33.210  0.00  0.00     0.022 A 
ATOM     13  C   UNL d   1      55.529   0.450  32.573  0.00  0.00     0.016 A 
ENDBRANCH   1   4
BRANCH   1  14
ATOM     14  N   UNL d   1      57.324   0.053  31.417  0.00  0.00    -0.317 NA
BRANCH  14  15
ATOM     15  C   UNL d   1      57.828  -0.085  30.761  0.00  0.00     0.146 A 
ATOM     16  C   UNL d   1      58.241   0.552  30.423  0.00  0.00     0.035 A 
ATOM     17  C   UNL d   1      58.739   0.413  29.777  0.00  0.00     0.027 A 
ATOM     18  C   UNL d   1      58.819  -0.353  29.474  0.00  0.00     0.100 A 
ATOM     19  C   UNL d   1      58.406  -0.976  29.816  0.00  0.00     0.027 A 
ATOM     20  C   UNL d   1      57.910  -0.839  30.460  0.00  0.00     0.035 A 
BRANCH  18  21
ATOM     21  O   UNL d   1      59.314  -0.495  28.829  0.00  0.00    -0.305 OA
BRANCH  21  22
ATOM     22  C   UNL d   1      60.071  -0.201  28.819  0.00  0.00     0.123 C 
ATOM     23  C   UNL d   1      60.679  -0.639  28.476  0.00  0.00     0.029 C 
ENDBRANCH  21  22
ENDBRANCH  18  21
ENDBRANCH  14  15
ENDBRANCH   1  14
TORSDOF 5
ENDMDL
MODEL 2
REMARK VINA RESULT:      -3.9      1.377      5.452
REMARK  5 active torsions:
REMARK  status: ('A' for Active; 'I' for Inactive)
REMARK    1  A    between atoms: C_6  and  S_1 
REMARK    2  A    between atoms: N_7  and  S_1 
REMARK    3  A    between atoms: C_15  and  N_7 
REMARK    4  A    between atoms: O_21  and  C_16 
REMARK    5  A    between atoms: C_22  and  O_21 
ROOT
ATOM      1  S   UNL d   1      57.614   0.141  31.157  0.00  0.00     0.327 S 
ATOM      2  O   UNL d   1      56.847  -0.148  31.093  0.00  0.00    -0.186 OA
ATOM      3  O   UNL d   1      57.886   0.430  31.876  0.00  0.00    -0.186 OA
ENDROOT
BRANCH   1   4
ATOM      4  C   UNL d   1      58.109   0.142  30.502  0.00  0.00     0.118 A 
ATOM      5  C   UNL d   1      58.891   0.377  30.581  0.00  0.00     0.035 A 
ATOM      6  C   UNL d   1      59.394   0.379  29.924  0.00  0.00     0.105 A 
ATOM      7  N   UNL d   1      60.188   0.582  29.831  0.00  0.00    -0.189 NA
ATOM      8  C   UNL d   1      59.104   0.141  29.182  0.00  0.00     0.104 A 
ATOM      9  C   UNL d   1      60.393   0.470  29.032  0.00  0.00     0.369 A 
ATOM     10  O   UNL d   1      61.133   0.607  28.699  0.00  0.00    -0.242 OA
ATOM     11  N   UNL d   1      59.721   0.199  28.637  0.00  0.00    -0.189 NA
ATOM     12  C   UNL d   1      58.314  -0.096  29.106  0.00  0.00     0.022 A 
ATOM     13  C   UNL d   1      57.822  -0.094  29.768  0.00  0.00     0.016 A 
ENDBRANCH   1   4
BRANCH   1  14
ATOM     14  N   UNL d   1      57.126   0.145  31.816  0.00  0.00    -0.317 NA
BRANCH  14  15
ATOM     15  C   UNL d   1      56.628   0.148  32.491  0.00  0.00     0.146 A 
ATOM     16  C   UNL d   1      56.783   0.680  33.110  0.00  0.00     0.035 A 
ATOM     17  C   UNL d   1      56.290   0.681  33.774  0.00  0.00     0.027 A 
ATOM     18  C   UNL d   1      55.652   0.157  33.816  0.00  0.00     0.100 A 
ATOM     19  C   UNL d   1      55.507  -0.366  33.198  0.00  0.00     0.027 A 
ATOM     20  C   UNL d   1      55.998  -0.368  32.536  0.00  0.00     0.035 A 
BRANCH  18  21
ATOM     21  O   UNL d   1      55.158   0.155  34.478  0.00  0.00    -0.305 OA
BRANCH  21  22
ATOM     22  C   UNL d   1      54.536   0.676  34.528  0.00  0.00     0.123 C 
ATOM     23  C   UNL d   1      54.036   0.659  35.183  0.00  0.00     0.029 C 
ENDBRANCH  21  22
ENDBRANCH  18  21
ENDBRANCH  14  15
ENDBRANCH   1  14
TORSDOF 5
ENDMDL
MODEL 3
REMARK VINA RESULT:      -3.7      0.710      1.023
REMARK  5 active torsions:
REMARK  status: ('A' for Active; 'I' for Inactive)
REMARK    1  A    between atoms: C_6  and  S_1 
REMARK    2  A    between atoms: N_7  and  S_1 
REMARK    3  A    between atoms: C_15  and  N_7 
REMARK    4  A    between atoms: O_21  and  C_16 
REMARK    5  A    between atoms: C_22  and  O_21 
ROOT
ATOM      1  S   UNL d   1      56.889   0.256  32.496  0.00  0.00     0.327 S 
ATOM      2  O   UNL d   1      57.586   0.681  32.402  0.00  0.00    -0.186 OA
ATOM      3  O   UNL d   1      56.650  -0.274  31.916  0.00  0.00    -0.186 OA
ENDROOT
BRANCH   1   4
ATOM      4  C   UNL d   1      56.432   0.360  33.169  0.00  0.00     0.118 A 
ATOM      5  C   UNL d   1      55.614   0.365  33.110  0.00  0.00     0.035 A 
ATOM      6  C   UNL d   1      55.148   0.470  33.787  0.00  0.00     0.105 A 
ATOM      7  N   UNL d   1      54.332   0.500  33.901  0.00  0.00    -0.189 NA
ATOM      8  C   UNL d   1      55.513   0.569  34.527  0.00  0.00     0.104 A 
ATOM      9  C   UNL d   1      54.187   0.618  34.712  0.00  0.00     0.369 A 
ATOM     10  O   UNL d   1      53.448   0.682  35.068  0.00  0.00    -0.242 OA
ATOM     11  N   UNL d   1      54.919   0.660  35.093  0.00  0.00    -0.189 NA
ATOM     12  C   UNL d   1      56.339   0.562  34.582  0.00  0.00     0.022 A 
ATOM     13  C   UNL d   1      56.793   0.458  33.902  0.00  0.00     0.016 A 
ENDBRANCH   1   4
BRANCH   1  14
ATOM     14  N   UNL d   1      57.341   0.146  31.819  0.00  0.00    -0.317 NA
BRANCH  14  15
ATOM     15  C   UNL d   1      57.802   0.033  31.129  0.00  0.00     0.146 A 
ATOM     16  C   UNL d   1      58.337   0.624  30.895  0.00  0.00     0.035 A 
ATOM     17  C   UNL d   1      58.792   0.510  30.212  0.00  0.00     0.027 A 
ATOM     18  C   UNL d   1      58.710  -0.186  29.773  0.00  0.00     0.100 A 
ATOM     19  C   UNL d   1      58.178  -0.764  30.014  0.00  0.00     0.027 A 
ATOM     20  C   UNL d   1      57.724  -0.652  30.693  0.00  0.00     0.035 A 
BRANCH  18  21
ATOM     21  O   UNL d   1      59.162  -0.303  29.092  0.00  0.00    -0.305 OA
BRANCH  21  22
ATOM     22  C   UNL d   1      59.964  -0.417  29.146  0.00  0.00     0.123 C 
ATOM     23  C   UNL d   1      60.394  -0.639  28.479  0.00  0.00     0.029 C 
ENDBRANCH  21  22
ENDBRANCH  18  21
ENDBRANCH  14  15
ENDBRANCH   1  14
TORSDOF 5
ENDMDL
