MODEL 1
REMARK VINA RESULT:      36.9      0.000      0.000
REMARK  1 active torsions:
REMARK  status: ('A' for Active; 'I' for Inactive)
REMARK    1  A    between atoms: C_15  and  C_10 
ROOT
ATOM      1  C   UNL d   1      60.880  49.607  51.788  0.00  0.00     0.111 A 
ATOM      2  C   UNL d   1      59.941  49.576  50.716  0.00  0.00     0.062 A 
ATOM      3  C   UNL d   1      59.334  49.548  51.249  0.00  0.00     0.105 A 
ATOM      4  C   UNL d   1      60.273  49.579  52.321  0.00  0.00     0.213 A 
ATOM      5  C   UNL d   1      60.722  49.606  50.983  0.00  0.00     0.018 A 
ATOM      6  O   UNL d   1      59.496  49.549  52.058  0.00  0.00    -0.287 OA
ATOM      7  C   UNL d   1      59.794  49.576  49.868  0.00  0.00     0.198 A 
ATOM      8  C   UNL d   1      61.664  49.638  52.058  0.00  0.00     0.105 C 
ATOM      9  C   UNL d   1      58.514  49.516  50.991  0.00  0.00     0.025 A 
ATOM     10  C   UNL d   1      58.360  49.515  50.160  0.00  0.00     0.005 A 
ATOM     11  C   UNL d   1      58.998  49.545  49.601  0.00  0.00     0.042 A 
ATOM     12  N   UNL d   1      62.419  49.667  52.327  0.00  0.00    -0.191 NA
ATOM     13  O   UNL d   1      60.265  49.598  49.455  0.00  0.00    -0.286 OA
ATOM     14  N   UNL d   1      60.438  49.580  53.133  0.00  0.00    -0.120 N 
ATOM     15  C   UNL d   1      61.350  49.636  50.390  0.00  0.00     0.001 C 
ENDROOT
BRANCH  10  16
ATOM     16  C   UNL d   1      57.591  49.486  49.905  0.00  0.00     0.000 A 
ATOM     17  C   UNL d   1      56.978  49.262  50.409  0.00  0.00     0.000 A 
ATOM     18  C   UNL d   1      56.217  49.237  50.140  0.00  0.00     0.000 A 
ATOM     19  C   UNL d   1      56.034  49.437  49.349  0.00  0.00     0.000 A 
ATOM     20  C   UNL d   1      56.650  49.658  48.856  0.00  0.00     0.000 A 
ATOM     21  C   UNL d   1      57.436  49.685  49.130  0.00  0.00     0.000 A 
ENDBRANCH  10  16
TORSDOF 1
ENDMDL
