MODEL 1
REMARK VINA RESULT:      -3.8      0.000      0.000
REMARK  4 active torsions:
REMARK  status: ('A' for Active; 'I' for Inactive)
REMARK    1  A    between atoms: C_6  and  C_1 
REMARK    2  A    between atoms: C_3  and  C_15 
REMARK    3  A    between atoms: O_11  and  C_6 
REMARK    4  A    between atoms: C_15  and  O_11 
ROOT
ATOM      1  C   UNL d   1      32.238  17.426 -23.839  0.00  0.00     0.127 A 
ATOM      2  C   UNL d   1      32.421  16.716 -23.481  0.00  0.00     0.305 A 
ATOM      3  C   UNL d   1      31.460  17.575 -24.088  0.00  0.00     0.013 A 
ATOM      4  C   UNL d   1      30.894  16.978 -23.955  0.00  0.00     0.023 A 
ATOM      5  O   UNL d   1      31.876  16.130 -23.348  0.00  0.00    -0.273 OA
ATOM      6  C   UNL d   1      31.074  16.273 -23.600  0.00  0.00     0.103 A 
ATOM      7  C   UNL d   1      30.096  17.117 -24.204  0.00  0.00     0.002 A 
ATOM      8  O   UNL d   1      33.240  16.582 -23.230  0.00  0.00    -0.259 OA
ATOM      9  C   UNL d   1      30.507  15.667 -23.463  0.00  0.00     0.025 A 
ATOM     10  C   UNL d   1      29.530  16.519 -24.071  0.00  0.00     0.000 A 
ATOM     11  C   UNL d   1      29.733  15.814 -23.710  0.00  0.00     0.002 A 
ATOM     12  C   UNL d   1      29.868  17.815 -24.568  0.00  0.00     0.000 A 
ATOM     13  C   UNL d   1      28.764  16.624 -24.297  0.00  0.00     0.000 A 
ATOM     14  C   UNL d   1      29.071  17.927 -24.804  0.00  0.00     0.000 A 
ATOM     15  C   UNL d   1      28.521  17.337 -24.671  0.00  0.00     0.000 A 
ENDROOT
BRANCH   1  16
ATOM     16  C   UNL d   1      32.868  18.030 -23.961  0.00  0.00     0.305 C 
ATOM     17  O   UNL d   1      33.202  18.073 -24.714  0.00  0.00    -0.259 OA
BRANCH  16  18
ATOM     18  O   UNL d   1      33.117  18.531 -23.359  0.00  0.00    -0.271 OA
BRANCH  18  19
ATOM     19  C   UNL d   1      33.182  19.343 -23.514  0.00  0.00     0.127 C 
ATOM     20  C   UNL d   1      33.241  19.597 -24.307  0.00  0.00     0.029 C 
BRANCH  19  21
ATOM     21  C   UNL d   1      33.192  19.913 -22.921  0.00  0.00     0.134 A 
ATOM     22  N   UNL d   1      33.221  19.810 -22.117  0.00  0.00    -0.236 NA
ATOM     23  C   UNL d   1      33.218  20.589 -21.786  0.00  0.00     0.088 A 
ATOM     24  C   UNL d   1      33.240  20.844 -21.009  0.00  0.00     0.020 A 
ATOM     25  C   UNL d   1      33.189  21.103 -22.341  0.00  0.00     0.049 A 
ATOM     26  C   UNL d   1      33.231  21.666 -20.786  0.00  0.00     0.002 A 
ATOM     27  C   UNL d   1      33.201  22.177 -21.388  0.00  0.00     0.001 A 
ATOM     28  C   UNL d   1      33.179  21.920 -22.170  0.00  0.00     0.008 A 
ATOM     29  S   UNL d   1      33.170  20.727 -23.077  0.00  0.00    -0.065 SA
ENDBRANCH  19  21
ENDBRANCH  18  19
ENDBRANCH  16  18
ENDBRANCH   1  16
TORSDOF 4
ENDMDL
MODEL 2
REMARK VINA RESULT:      -2.3      1.429      5.382
REMARK  4 active torsions:
REMARK  status: ('A' for Active; 'I' for Inactive)
REMARK    1  A    between atoms: C_6  and  C_1 
REMARK    2  A    between atoms: C_3  and  C_15 
REMARK    3  A    between atoms: O_11  and  C_6 
REMARK    4  A    between atoms: C_15  and  O_11 
ROOT
ATOM      1  C   UNL d   1      32.897  19.600 -23.042  0.00  0.00     0.127 A 
ATOM      2  C   UNL d   1      33.121  19.972 -23.732  0.00  0.00     0.305 A 
ATOM      3  C   UNL d   1      32.778  20.046 -22.351  0.00  0.00     0.013 A 
ATOM      4  C   UNL d   1      32.896  20.869 -22.402  0.00  0.00     0.023 A 
ATOM      5  O   UNL d   1      33.239  20.772 -23.789  0.00  0.00    -0.273 OA
ATOM      6  C   UNL d   1      33.119  21.240 -23.086  0.00  0.00     0.103 A 
ATOM      7  C   UNL d   1      32.778  21.336 -21.705  0.00  0.00     0.002 A 
ATOM      8  O   UNL d   1      33.240  19.487 -24.441  0.00  0.00    -0.259 OA
ATOM      9  C   UNL d   1      33.240  22.070 -23.142  0.00  0.00     0.025 A 
ATOM     10  C   UNL d   1      32.897  22.160 -21.755  0.00  0.00     0.000 A 
ATOM     11  C   UNL d   1      33.123  22.515 -22.457  0.00  0.00     0.002 A 
ATOM     12  C   UNL d   1      32.553  21.004 -20.990  0.00  0.00     0.000 A 
ATOM     13  C   UNL d   1      32.792  22.629 -21.109  0.00  0.00     0.000 A 
ATOM     14  C   UNL d   1      32.443  21.490 -20.315  0.00  0.00     0.000 A 
ATOM     15  C   UNL d   1      32.561  22.296 -20.372  0.00  0.00     0.000 A 
ENDROOT
BRANCH   1  16
ATOM     16  C   UNL d   1      32.782  18.726 -23.033  0.00  0.00     0.305 C 
ATOM     17  O   UNL d   1      33.241  18.296 -22.499  0.00  0.00    -0.259 OA
BRANCH  16  18
ATOM     18  O   UNL d   1      32.246  18.348 -23.528  0.00  0.00    -0.271 OA
BRANCH  18  19
ATOM     19  C   UNL d   1      32.154  17.527 -23.467  0.00  0.00     0.127 C 
ATOM     20  C   UNL d   1      32.776  17.076 -23.141  0.00  0.00     0.029 C 
BRANCH  19  21
ATOM     21  C   UNL d   1      31.476  17.132 -23.715  0.00  0.00     0.134 A 
ATOM     22  N   UNL d   1      31.152  16.446 -23.426  0.00  0.00    -0.236 NA
ATOM     23  C   UNL d   1      30.460  16.305 -23.892  0.00  0.00     0.088 A 
ATOM     24  C   UNL d   1      29.907  15.704 -23.866  0.00  0.00     0.020 A 
ATOM     25  C   UNL d   1      30.382  16.855 -24.407  0.00  0.00     0.049 A 
ATOM     26  C   UNL d   1      29.238  15.660 -24.391  0.00  0.00     0.002 A 
ATOM     27  C   UNL d   1      29.185  16.248 -24.917  0.00  0.00     0.001 A 
ATOM     28  C   UNL d   1      29.742  16.854 -24.943  0.00  0.00     0.008 A 
ATOM     29  S   UNL d   1      30.998  17.402 -24.336  0.00  0.00    -0.065 SA
ENDBRANCH  19  21
ENDBRANCH  18  19
ENDBRANCH  16  18
ENDBRANCH   1  16
TORSDOF 4
ENDMDL
MODEL 3
REMARK VINA RESULT:      -2.2      1.740      5.281
REMARK  4 active torsions:
REMARK  status: ('A' for Active; 'I' for Inactive)
REMARK    1  A    between atoms: C_6  and  C_1 
REMARK    2  A    between atoms: C_3  and  C_15 
REMARK    3  A    between atoms: O_11  and  C_6 
REMARK    4  A    between atoms: C_15  and  O_11 
ROOT
ATOM      1  C   UNL d   1      32.599  18.060 -23.450  0.00  0.00     0.127 A 
ATOM      2  C   UNL d   1      32.749  18.311 -24.212  0.00  0.00     0.305 A 
ATOM      3  C   UNL d   1      32.644  18.601 -22.821  0.00  0.00     0.013 A 
ATOM      4  C   UNL d   1      32.844  19.388 -23.005  0.00  0.00     0.023 A 
ATOM      5  O   UNL d   1      32.945  19.075 -24.399  0.00  0.00    -0.273 OA
ATOM      6  C   UNL d   1      32.993  19.638 -23.762  0.00  0.00     0.103 A 
ATOM      7  C   UNL d   1      32.893  19.950 -22.374  0.00  0.00     0.002 A 
ATOM      8  O   UNL d   1      32.697  17.730 -24.853  0.00  0.00    -0.259 OA
ATOM      9  C   UNL d   1      33.196  20.432 -23.953  0.00  0.00     0.025 A 
ATOM     10  C   UNL d   1      33.094  20.739 -22.558  0.00  0.00     0.000 A 
ATOM     11  C   UNL d   1      33.241  20.970 -23.329  0.00  0.00     0.002 A 
ATOM     12  C   UNL d   1      32.751  19.743 -21.593  0.00  0.00     0.000 A 
ATOM     13  C   UNL d   1      33.148  21.294 -21.978  0.00  0.00     0.000 A 
ATOM     14  C   UNL d   1      32.806  20.319 -20.986  0.00  0.00     0.000 A 
ATOM     15  C   UNL d   1      33.003  21.089 -21.175  0.00  0.00     0.000 A 
ENDROOT
BRANCH   1  16
ATOM     16  C   UNL d   1      32.391  17.217 -23.299  0.00  0.00     0.305 C 
ATOM     17  O   UNL d   1      33.009  16.672 -23.322  0.00  0.00    -0.259 OA
BRANCH  16  18
ATOM     18  O   UNL d   1      31.621  16.977 -23.143  0.00  0.00    -0.271 OA
BRANCH  18  19
ATOM     19  C   UNL d   1      31.374  16.230 -23.402  0.00  0.00     0.127 C 
ATOM     20  C   UNL d   1      31.942  15.624 -23.481  0.00  0.00     0.029 C 
BRANCH  19  21
ATOM     21  C   UNL d   1      30.591  16.055 -23.587  0.00  0.00     0.134 A 
ATOM     22  N   UNL d   1      30.243  15.987 -24.316  0.00  0.00    -0.236 NA
ATOM     23  C   UNL d   1      29.432  15.802 -24.168  0.00  0.00     0.088 A 
ATOM     24  C   UNL d   1      28.807  15.668 -24.678  0.00  0.00     0.020 A 
ATOM     25  C   UNL d   1      29.311  15.763 -23.421  0.00  0.00     0.049 A 
ATOM     26  C   UNL d   1      28.018  15.486 -24.415  0.00  0.00     0.002 A 
ATOM     27  C   UNL d   1      27.924  15.453 -23.631  0.00  0.00     0.001 A 
ATOM     28  C   UNL d   1      28.553  15.588 -23.116  0.00  0.00     0.008 A 
ATOM     29  S   UNL d   1      30.012  15.916 -23.010  0.00  0.00    -0.065 SA
ENDBRANCH  19  21
ENDBRANCH  18  19
ENDBRANCH  16  18
ENDBRANCH   1  16
TORSDOF 4
ENDMDL
MODEL 4
REMARK VINA RESULT:      -1.1      1.356      2.189
REMARK  4 active torsions:
REMARK  status: ('A' for Active; 'I' for Inactive)
REMARK    1  A    between atoms: C_6  and  C_1 
REMARK    2  A    between atoms: C_3  and  C_15 
REMARK    3  A    between atoms: O_11  and  C_6 
REMARK    4  A    between atoms: C_15  and  O_11 
ROOT
ATOM      1  C   UNL d   1      32.580  18.494 -23.081  0.00  0.00     0.127 A 
ATOM      2  C   UNL d   1      32.693  18.802 -23.827  0.00  0.00     0.305 A 
ATOM      3  C   UNL d   1      32.105  17.820 -22.980  0.00  0.00     0.013 A 
ATOM      4  C   UNL d   1      31.762  17.487 -23.662  0.00  0.00     0.023 A 
ATOM      5  O   UNL d   1      32.363  18.483 -24.496  0.00  0.00    -0.273 OA
ATOM      6  C   UNL d   1      31.874  17.792 -24.404  0.00  0.00     0.103 A 
ATOM      7  C   UNL d   1      31.275  16.799 -23.574  0.00  0.00     0.002 A 
ATOM      8  O   UNL d   1      33.193  19.506 -23.910  0.00  0.00    -0.259 OA
ATOM      9  C   UNL d   1      31.530  17.459 -25.096  0.00  0.00     0.025 A 
ATOM     10  C   UNL d   1      30.932  16.465 -24.257  0.00  0.00     0.000 A 
ATOM     11  C   UNL d   1      31.058  16.790 -24.997  0.00  0.00     0.002 A 
ATOM     12  C   UNL d   1      31.134  16.456 -22.843  0.00  0.00     0.000 A 
ATOM     13  C   UNL d   1      30.465  15.812 -24.202  0.00  0.00     0.000 A 
ATOM     14  C   UNL d   1      30.647  15.775 -22.783  0.00  0.00     0.000 A 
ATOM     15  C   UNL d   1      30.315  15.454 -23.456  0.00  0.00     0.000 A 
ENDROOT
BRANCH   1  16
ATOM     16  C   UNL d   1      32.962  18.878 -22.385  0.00  0.00     0.305 C 
ATOM     17  O   UNL d   1      33.240  18.378 -21.792  0.00  0.00    -0.259 OA
BRANCH  16  18
ATOM     18  O   UNL d   1      33.041  19.693 -22.323  0.00  0.00    -0.271 OA
BRANCH  18  19
ATOM     19  C   UNL d   1      33.011  20.042 -21.572  0.00  0.00     0.127 C 
ATOM     20  C   UNL d   1      33.120  19.561 -20.900  0.00  0.00     0.029 C 
BRANCH  19  21
ATOM     21  C   UNL d   1      32.877  20.846 -21.457  0.00  0.00     0.134 A 
ATOM     22  N   UNL d   1      32.940  21.454 -21.991  0.00  0.00    -0.236 NA
ATOM     23  C   UNL d   1      32.737  22.156 -21.564  0.00  0.00     0.088 A 
ATOM     24  C   UNL d   1      32.699  22.938 -21.800  0.00  0.00     0.020 A 
ATOM     25  C   UNL d   1      32.570  21.980 -20.846  0.00  0.00     0.049 A 
ATOM     26  C   UNL d   1      32.479  23.574 -21.278  0.00  0.00     0.002 A 
ATOM     27  C   UNL d   1      32.312  23.358 -20.537  0.00  0.00     0.001 A 
ATOM     28  C   UNL d   1      32.350  22.571 -20.298  0.00  0.00     0.008 A 
ATOM     29  S   UNL d   1      32.644  21.165 -20.728  0.00  0.00    -0.065 SA
ENDBRANCH  19  21
ENDBRANCH  18  19
ENDBRANCH  16  18
ENDBRANCH   1  16
TORSDOF 4
ENDMDL
