MODEL 1
REMARK VINA RESULT:      -2.1      0.000      0.000
REMARK  6 active torsions:
REMARK  status: ('A' for Active; 'I' for Inactive)
REMARK    1  A    between atoms: N_5  and  S_1 
REMARK    2  A    between atoms: C_6  and  S_1 
REMARK    3  A    between atoms: C_2  and  C_11 
REMARK    4  A    between atoms: C_9  and  N_5 
REMARK    5  A    between atoms: C_10  and  C_9 
REMARK       I    between atoms: N_15  and  C_10 
REMARK    6  A    between atoms: C_19  and  N_15 
ROOT
ATOM      1  C   UNL d   1      33.098  20.955 -20.801  0.00  0.00     0.024 A 
ATOM      2  C   UNL d   1      33.207  20.166 -20.583  0.00  0.00     0.004 A 
ATOM      3  C   UNL d   1      33.022  21.154 -21.595  0.00  0.00     0.004 A 
ATOM      4  C   UNL d   1      33.163  19.772 -21.962  0.00  0.00     0.085 A 
ATOM      5  C   UNL d   1      33.055  20.558 -22.177  0.00  0.00     0.019 A 
ATOM      6  C   UNL d   1      33.240  19.573 -21.156  0.00  0.00     0.019 A 
ENDROOT
BRANCH   4   7
ATOM      7  N   UNL d   1      33.193  19.193 -22.550  0.00  0.00    -0.207 NA
ATOM      8  C   UNL d   1      32.575  19.124 -23.084  0.00  0.00     0.299 C 
ATOM      9  O   UNL d   1      31.926  19.627 -23.037  0.00  0.00    -0.263 OA
BRANCH   8  10
ATOM     10  C   UNL d   1      32.607  18.539 -23.677  0.00  0.00     0.174 C 
BRANCH  10  11
ATOM     11  N   UNL d   1      32.577  17.743 -23.472  0.00  0.00    -0.152 NA
BRANCH  11  12
ATOM     12  S   UNL d   1      32.014  17.249 -23.819  0.00  0.00     0.285 S 
ATOM     13  O   UNL d   1      32.391  17.338 -24.548  0.00  0.00    -0.198 OA
ATOM     14  O   UNL d   1      31.644  17.165 -23.086  0.00  0.00    -0.198 OA
BRANCH  12  15
ATOM     15  C   UNL d   1      31.456  16.760 -24.158  0.00  0.00     0.106 A 
ATOM     16  C   UNL d   1      30.753  17.081 -24.453  0.00  0.00     0.024 A 
ATOM     17  C   UNL d   1      30.188  16.586 -24.796  0.00  0.00     0.059 A 
ATOM     18 CL   UNL d   1      29.471  16.906 -25.096  0.00  0.00    -0.082 Cl
ATOM     19  C   UNL d   1      30.316  15.775 -24.850  0.00  0.00     0.011 A 
ATOM     20  C   UNL d   1      31.020  15.453 -24.556  0.00  0.00     0.002 A 
ATOM     21  C   UNL d   1      31.589  15.953 -24.210  0.00  0.00     0.013 A 
ENDBRANCH  12  15
ENDBRANCH  11  12
ENDBRANCH  10  11
ENDBRANCH   8  10
ENDBRANCH   4   7
BRANCH   1  22
ATOM     22  C   UNL d   1      33.064  21.557 -20.230  0.00  0.00     0.111 A 
ATOM     23  N   UNL d   1      33.168  21.420 -19.429  0.00  0.00    -0.239 NA
ATOM     24  C   UNL d   1      33.098  22.138 -19.028  0.00  0.00     0.088 A 
ATOM     25  C   UNL d   1      33.150  22.334 -18.230  0.00  0.00     0.020 A 
ATOM     26  C   UNL d   1      32.949  22.723 -19.588  0.00  0.00     0.049 A 
ATOM     27  C   UNL d   1      33.053  23.117 -17.993  0.00  0.00     0.002 A 
ATOM     28  C   UNL d   1      32.904  23.702 -18.554  0.00  0.00     0.001 A 
ATOM     29  C   UNL d   1      32.852  23.506 -19.352  0.00  0.00     0.008 A 
ATOM     30  S   UNL d   1      32.928  22.364 -20.333  0.00  0.00    -0.066 SA
ENDBRANCH   1  22
TORSDOF 6
ENDMDL
MODEL 2
REMARK VINA RESULT:       0.8      0.870      1.201
REMARK  6 active torsions:
REMARK  status: ('A' for Active; 'I' for Inactive)
REMARK    1  A    between atoms: N_5  and  S_1 
REMARK    2  A    between atoms: C_6  and  S_1 
REMARK    3  A    between atoms: C_2  and  C_11 
REMARK    4  A    between atoms: C_9  and  N_5 
REMARK    5  A    between atoms: C_10  and  C_9 
REMARK       I    between atoms: N_15  and  C_10 
REMARK    6  A    between atoms: C_19  and  N_15 
ROOT
ATOM      1  C   UNL d   1      32.908  21.583 -20.520  0.00  0.00     0.024 A 
ATOM      2  C   UNL d   1      32.573  21.880 -21.213  0.00  0.00     0.004 A 
ATOM      3  C   UNL d   1      33.241  20.832 -20.515  0.00  0.00     0.004 A 
ATOM      4  C   UNL d   1      32.907  20.667 -21.903  0.00  0.00     0.085 A 
ATOM      5  C   UNL d   1      33.240  20.373 -21.211  0.00  0.00     0.019 A 
ATOM      6  C   UNL d   1      32.569  21.429 -21.905  0.00  0.00     0.019 A 
ENDROOT
BRANCH   4   7
ATOM      7  N   UNL d   1      32.913  20.201 -22.584  0.00  0.00    -0.207 NA
ATOM      8  C   UNL d   1      32.990  19.387 -22.518  0.00  0.00     0.299 C 
ATOM      9  O   UNL d   1      33.061  19.034 -21.779  0.00  0.00    -0.263 OA
BRANCH   8  10
ATOM     10  C   UNL d   1      32.996  18.917 -23.207  0.00  0.00     0.174 C 
BRANCH  10  11
ATOM     11  N   UNL d   1      32.288  18.711 -23.571  0.00  0.00    -0.152 NA
BRANCH  11  12
ATOM     12  S   UNL d   1      32.196  17.959 -23.897  0.00  0.00     0.285 S 
ATOM     13  O   UNL d   1      31.377  18.032 -23.826  0.00  0.00    -0.198 OA
ATOM     14  O   UNL d   1      33.015  17.894 -23.965  0.00  0.00    -0.198 OA
BRANCH  12  15
ATOM     15  C   UNL d   1      32.109  17.214 -24.220  0.00  0.00     0.106 A 
ATOM     16  C   UNL d   1      31.408  16.793 -24.099  0.00  0.00     0.024 A 
ATOM     17  C   UNL d   1      31.320  16.040 -24.426  0.00  0.00     0.059 A 
ATOM     18 CL   UNL d   1      30.609  15.607 -24.306  0.00  0.00    -0.082 Cl
ATOM     19  C   UNL d   1      31.922  15.701 -24.873  0.00  0.00     0.011 A 
ATOM     20  C   UNL d   1      32.624  16.123 -24.994  0.00  0.00     0.002 A 
ATOM     21  C   UNL d   1      32.712  16.883 -24.664  0.00  0.00     0.013 A 
ENDBRANCH  12  15
ENDBRANCH  11  12
ENDBRANCH  10  11
ENDBRANCH   8  10
ENDBRANCH   4   7
BRANCH   1  22
ATOM     22  C   UNL d   1      32.915  22.030 -19.820  0.00  0.00     0.111 A 
ATOM     23  N   UNL d   1      33.140  21.721 -19.095  0.00  0.00    -0.239 NA
ATOM     24  C   UNL d   1      33.081  22.317 -18.526  0.00  0.00     0.088 A 
ATOM     25  C   UNL d   1      33.232  22.326 -17.717  0.00  0.00     0.020 A 
ATOM     26  C   UNL d   1      32.817  22.999 -18.905  0.00  0.00     0.049 A 
ATOM     27  C   UNL d   1      33.119  23.020 -17.287  0.00  0.00     0.002 A 
ATOM     28  C   UNL d   1      32.856  23.703 -17.667  0.00  0.00     0.001 A 
ATOM     29  C   UNL d   1      32.704  23.692 -18.477  0.00  0.00     0.008 A 
ATOM     30  S   UNL d   1      32.715  22.822 -19.707  0.00  0.00    -0.066 SA
ENDBRANCH   1  22
TORSDOF 6
ENDMDL
