MODEL 1
REMARK VINA RESULT:      -3.2      0.000      0.000
REMARK  5 active torsions:
REMARK  status: ('A' for Active; 'I' for Inactive)
REMARK    1  A    between atoms: S_2  and  C_1 
REMARK    2  A    between atoms: N_3  and  C_1 
REMARK    3  A    between atoms: C_4  and  C_1 
REMARK    4  A    between atoms: C_6  and  S_2 
REMARK       I    between atoms: C_5  and  N_3 
REMARK    5  A    between atoms: C_9  and  C_5 
ROOT
ATOM      1  C   UNL d   1      32.087  16.794 -24.113  0.00  0.00     0.193 C 
ENDROOT
BRANCH   1   2
ATOM      2  S   UNL d   1      31.345  16.492 -24.079  0.00  0.00     0.228 S 
ATOM      3  O   UNL d   1      31.558  15.984 -23.461  0.00  0.00    -0.216 OA
ATOM      4  O   UNL d   1      31.156  16.941 -24.625  0.00  0.00    -0.216 OA
BRANCH   2   5
ATOM      5  C   UNL d   1      30.690  16.252 -24.076  0.00  0.00     0.090 A 
ATOM      6  C   UNL d   1      30.356  15.859 -23.399  0.00  0.00     0.012 A 
ATOM      7  C   UNL d   1      29.551  15.572 -23.417  0.00  0.00     0.012 A 
ATOM      8  C   UNL d   1      29.085  15.680 -24.112  0.00  0.00     0.058 A 
ATOM      9  C   UNL d   1      29.406  16.064 -24.779  0.00  0.00     0.012 A 
ATOM     10 CL   UNL d   1      28.499  15.461 -24.100  0.00  0.00    -0.082 Cl
ATOM     11  C   UNL d   1      30.211  16.351 -24.761  0.00  0.00     0.012 A 
ENDBRANCH   2   5
ENDBRANCH   1   2
BRANCH   1  12
ATOM     12  N   UNL d   1      32.206  17.636 -24.057  0.00  0.00    -0.195 NA
ATOM     13  C   UNL d   1      32.643  18.005 -23.422  0.00  0.00     0.280 C 
ATOM     14  O   UNL d   1      32.987  17.492 -22.799  0.00  0.00    -0.265 OA
BRANCH  13  15
ATOM     15  C   UNL d   1      32.801  18.696 -23.279  0.00  0.00     0.058 A 
ATOM     16  C   UNL d   1      32.794  18.817 -22.464  0.00  0.00     0.005 A 
ATOM     17  C   UNL d   1      32.957  19.559 -22.150  0.00  0.00     0.000 A 
ATOM     18  C   UNL d   1      33.127  20.182 -22.664  0.00  0.00     0.000 A 
ATOM     19  C   UNL d   1      33.134  20.061 -23.479  0.00  0.00     0.000 A 
ATOM     20  C   UNL d   1      33.241  20.713 -22.377  0.00  0.00     0.000 C 
ATOM     21  C   UNL d   1      32.971  19.317 -23.781  0.00  0.00     0.005 A 
ENDBRANCH  13  15
ENDBRANCH   1  12
BRANCH   1  22
ATOM     22  C   UNL d   1      32.718  16.265 -24.203  0.00  0.00     0.144 C 
ATOM     23 CL   UNL d   1      33.182  16.275 -24.940  0.00  0.00    -0.068 Cl
ATOM     24 CL   UNL d   1      32.930  15.708 -23.598  0.00  0.00    -0.068 Cl
ENDBRANCH   1  22
TORSDOF 5
ENDMDL
MODEL 2
REMARK VINA RESULT:      -3.2      1.154      4.227
REMARK  5 active torsions:
REMARK  status: ('A' for Active; 'I' for Inactive)
REMARK    1  A    between atoms: S_2  and  C_1 
REMARK    2  A    between atoms: N_3  and  C_1 
REMARK    3  A    between atoms: C_4  and  C_1 
REMARK    4  A    between atoms: C_6  and  S_2 
REMARK       I    between atoms: C_5  and  N_3 
REMARK    5  A    between atoms: C_9  and  C_5 
ROOT
ATOM      1  C   UNL d   1      32.011  16.782 -23.997  0.00  0.00     0.193 C 
ENDROOT
BRANCH   1   2
ATOM      2  S   UNL d   1      32.289  17.510 -23.807  0.00  0.00     0.228 S 
ATOM      3  O   UNL d   1      32.768  17.194 -23.210  0.00  0.00    -0.216 OA
ATOM      4  O   UNL d   1      31.866  17.790 -24.334  0.00  0.00    -0.216 OA
BRANCH   2   5
ATOM      5  C   UNL d   1      32.510  18.157 -23.667  0.00  0.00     0.090 A 
ATOM      6  C   UNL d   1      32.763  18.690 -24.281  0.00  0.00     0.012 A 
ATOM      7  C   UNL d   1      33.030  19.479 -24.087  0.00  0.00     0.012 A 
ATOM      8  C   UNL d   1      33.042  19.729 -23.281  0.00  0.00     0.058 A 
ATOM      9  C   UNL d   1      32.795  19.212 -22.675  0.00  0.00     0.012 A 
ATOM     10 CL   UNL d   1      33.241  20.311 -23.166  0.00  0.00    -0.082 Cl
ATOM     11  C   UNL d   1      32.528  18.423 -22.869  0.00  0.00     0.012 A 
ENDBRANCH   2   5
ENDBRANCH   1   2
BRANCH   1  12
ATOM     12  N   UNL d   1      31.188  16.680 -24.192  0.00  0.00    -0.195 NA
ATOM     13  C   UNL d   1      30.686  16.100 -23.814  0.00  0.00     0.280 C 
ATOM     14  O   UNL d   1      31.036  15.585 -23.196  0.00  0.00    -0.265 OA
BRANCH  13  15
ATOM     15  C   UNL d   1      29.989  15.931 -23.901  0.00  0.00     0.058 A 
ATOM     16  C   UNL d   1      29.615  15.922 -23.167  0.00  0.00     0.005 A 
ATOM     17  C   UNL d   1      28.814  15.745 -23.108  0.00  0.00     0.000 A 
ATOM     18  C   UNL d   1      28.390  15.578 -23.795  0.00  0.00     0.000 A 
ATOM     19  C   UNL d   1      28.764  15.587 -24.529  0.00  0.00     0.000 A 
ATOM     20  C   UNL d   1      27.797  15.453 -23.694  0.00  0.00     0.000 C 
ATOM     21  C   UNL d   1      29.563  15.764 -24.577  0.00  0.00     0.005 A 
ENDBRANCH  13  15
ENDBRANCH   1  12
BRANCH   1  22
ATOM     22  C   UNL d   1      32.546  16.150 -23.995  0.00  0.00     0.144 C 
ATOM     23 CL   UNL d   1      32.816  15.818 -24.753  0.00  0.00    -0.068 Cl
ATOM     24 CL   UNL d   1      32.843  15.811 -23.275  0.00  0.00    -0.068 Cl
ENDBRANCH   1  22
TORSDOF 5
ENDMDL
MODEL 3
REMARK VINA RESULT:      -0.9      4.754      6.957
REMARK  5 active torsions:
REMARK  status: ('A' for Active; 'I' for Inactive)
REMARK    1  A    between atoms: S_2  and  C_1 
REMARK    2  A    between atoms: N_3  and  C_1 
REMARK    3  A    between atoms: C_4  and  C_1 
REMARK    4  A    between atoms: C_6  and  S_2 
REMARK       I    between atoms: C_5  and  N_3 
REMARK    5  A    between atoms: C_9  and  C_5 
ROOT
ATOM      1  C   UNL d   1      32.781  22.387 -20.646  0.00  0.00     0.193 C 
ENDROOT
BRANCH   1   2
ATOM      2  S   UNL d   1      32.845  22.564 -19.866  0.00  0.00     0.228 S 
ATOM      3  O   UNL d   1      32.407  23.259 -19.967  0.00  0.00    -0.216 OA
ATOM      4  O   UNL d   1      33.232  21.950 -19.777  0.00  0.00    -0.216 OA
BRANCH   2   5
ATOM      5  C   UNL d   1      32.920  22.687 -19.184  0.00  0.00     0.090 A 
ATOM      6  C   UNL d   1      32.924  22.059 -18.609  0.00  0.00     0.012 A 
ATOM      7  C   UNL d   1      33.017  22.233 -17.777  0.00  0.00     0.012 A 
ATOM      8  C   UNL d   1      33.107  23.034 -17.527  0.00  0.00     0.058 A 
ATOM      9  C   UNL d   1      33.104  23.654 -18.085  0.00  0.00     0.012 A 
ATOM     10 CL   UNL d   1      33.173  23.136 -16.913  0.00  0.00    -0.082 Cl
ATOM     11  C   UNL d   1      33.011  23.480 -18.916  0.00  0.00     0.012 A 
ENDBRANCH   2   5
ENDBRANCH   1   2
BRANCH   1  12
ATOM     12  N   UNL d   1      33.105  21.658 -20.944  0.00  0.00    -0.195 NA
ATOM     13  C   UNL d   1      32.628  21.040 -21.292  0.00  0.00     0.280 C 
ATOM     14  O   UNL d   1      31.761  21.163 -21.345  0.00  0.00    -0.265 OA
BRANCH  13  15
ATOM     15  C   UNL d   1      32.796  20.395 -21.571  0.00  0.00     0.058 A 
ATOM     16  C   UNL d   1      32.644  20.397 -22.381  0.00  0.00     0.005 A 
ATOM     17  C   UNL d   1      32.789  19.727 -22.835  0.00  0.00     0.000 A 
ATOM     18  C   UNL d   1      33.089  19.052 -22.467  0.00  0.00     0.000 A 
ATOM     19  C   UNL d   1      33.241  19.050 -21.658  0.00  0.00     0.000 A 
ATOM     20  C   UNL d   1      33.178  18.582 -22.853  0.00  0.00     0.000 C 
ATOM     21  C   UNL d   1      33.093  19.723 -21.214  0.00  0.00     0.005 A 
ENDBRANCH  13  15
ENDBRANCH   1  12
BRANCH   1  22
ATOM     22  C   UNL d   1      32.394  22.931 -21.137  0.00  0.00     0.144 C 
ATOM     23 CL   UNL d   1      32.855  23.382 -21.721  0.00  0.00    -0.068 Cl
ATOM     24 CL   UNL d   1      31.556  23.064 -21.091  0.00  0.00    -0.068 Cl
ENDBRANCH   1  22
TORSDOF 5
ENDMDL
