MODEL 1
REMARK VINA RESULT:      -5.9      0.000      0.000
REMARK  7 active torsions:
REMARK  status: ('A' for Active; 'I' for Inactive)
REMARK    1  A    between atoms: C_20  and  N_1 
REMARK       I    between atoms: C_6  and  N_7 
REMARK    2  A    between atoms: C_10  and  C_6 
REMARK    3  A    between atoms: N_7  and  C_24 
REMARK    4  A    between atoms: C_9  and  N_7 
REMARK    5  A    between atoms: O_29  and  C_11 
REMARK    6  A    between atoms: C_23  and  C_20 
REMARK    7  A    between atoms: C_24  and  C_23 
ROOT
ATOM      1  C   UNL d   1      53.115  32.610  53.175  0.00  0.00     0.085 C 
ENDROOT
BRANCH   1   2
ATOM      2  N   UNL d   1      53.542  32.287  53.791  0.00  0.00    -0.271 N 
ATOM      3  C   UNL d   1      53.503  31.471  53.929  0.00  0.00     0.271 C 
ATOM      4  O   UNL d   1      53.931  31.144  54.547  0.00  0.00    -0.266 OA
BRANCH   3   5
ATOM      5  C   UNL d   1      53.034  30.993  53.447  0.00  0.00     0.086 A 
ATOM      6  S   UNL d   1      52.269  30.719  53.603  0.00  0.00    -0.082 SA
ATOM      7  C   UNL d   1      52.026  30.272  52.985  0.00  0.00     0.036 A 
ATOM      8  C   UNL d   1      52.606  30.244  52.429  0.00  0.00     0.008 A 
ATOM      9  C   UNL d   1      53.260  30.703  52.713  0.00  0.00     0.012 A 
ENDBRANCH   3   5
BRANCH   2  10
ATOM     10  C   UNL d   1      54.008  32.763  54.271  0.00  0.00     0.089 A 
ATOM     11  C   UNL d   1      54.733  33.061  53.994  0.00  0.00     0.110 A 
ATOM     12  C   UNL d   1      55.196  33.535  54.471  0.00  0.00     0.026 A 
ATOM     13  C   UNL d   1      54.949  33.725  55.240  0.00  0.00     0.002 A 
ATOM     14  C   UNL d   1      54.235  33.430  55.509  0.00  0.00     0.002 A 
ATOM     15  C   UNL d   1      55.417  34.203  55.722  0.00  0.00     0.000 C 
ATOM     16  C   UNL d   1      53.772  32.956  55.033  0.00  0.00     0.020 A 
BRANCH  11  17
ATOM     17  O   UNL d   1      54.985  32.881  53.241  0.00  0.00    -0.327 OA
ATOM     18  C   UNL d   1      55.717  33.135  52.984  0.00  0.00     0.181 C 
ENDBRANCH  11  17
ENDBRANCH   2  10
ENDBRANCH   1   2
BRANCH   1  19
ATOM     19  C   UNL d   1      52.480  33.147  53.335  0.00  0.00     0.038 C 
BRANCH  19  20
ATOM     20  C   UNL d   1      52.351  33.808  52.848  0.00  0.00     0.088 C 
BRANCH  20  21
ATOM     21  N   UNL d   1      51.553  34.071  52.696  0.00  0.00    -0.240 N 
ATOM     22  C   UNL d   1      51.118  34.449  53.287  0.00  0.00     0.267 A 
ATOM     23  C   UNL d   1      50.345  34.708  53.149  0.00  0.00     0.057 A 
ATOM     24  O   UNL d   1      51.462  34.580  54.057  0.00  0.00    -0.267 OA
ATOM     25  C   UNL d   1      49.920  35.078  53.727  0.00  0.00     0.005 A 
ATOM     26  C   UNL d   1      50.016  34.576  52.394  0.00  0.00     0.009 A 
ATOM     27  C   UNL d   1      49.142  35.335  53.582  0.00  0.00     0.000 A 
ATOM     28  C   UNL d   1      48.821  35.204  52.838  0.00  0.00     0.000 A 
ATOM     29  C   UNL d   1      49.247  34.834  52.260  0.00  0.00     0.000 A 
ATOM     30  C   UNL d   1      48.920  34.702  51.508  0.00  0.00     0.000 A 
ATOM     31  C   UNL d   1      49.355  34.325  50.917  0.00  0.00     0.000 A 
ATOM     32  C   UNL d   1      50.127  34.069  51.063  0.00  0.00     0.005 A 
ATOM     33  C   UNL d   1      50.450  34.198  51.803  0.00  0.00     0.057 A 
ATOM     34  C   UNL d   1      51.226  33.943  51.952  0.00  0.00     0.267 A 
ATOM     35  O   UNL d   1      51.667  33.559  51.352  0.00  0.00    -0.267 OA
ENDBRANCH  20  21
ENDBRANCH  19  20
ENDBRANCH   1  19
TORSDOF 7
ENDMDL
MODEL 2
REMARK VINA RESULT:      -4.2      0.962      2.493
REMARK  7 active torsions:
REMARK  status: ('A' for Active; 'I' for Inactive)
REMARK    1  A    between atoms: C_20  and  N_1 
REMARK       I    between atoms: C_6  and  N_7 
REMARK    2  A    between atoms: C_10  and  C_6 
REMARK    3  A    between atoms: N_7  and  C_24 
REMARK    4  A    between atoms: C_9  and  N_7 
REMARK    5  A    between atoms: O_29  and  C_11 
REMARK    6  A    between atoms: C_23  and  C_20 
REMARK    7  A    between atoms: C_24  and  C_23 
ROOT
ATOM      1  C   UNL d   1      53.193  33.148  53.522  0.00  0.00     0.085 C 
ENDROOT
BRANCH   1   2
ATOM      2  N   UNL d   1      53.333  32.469  53.954  0.00  0.00    -0.271 N 
ATOM      3  C   UNL d   1      53.769  32.517  54.656  0.00  0.00     0.271 C 
ATOM      4  O   UNL d   1      53.910  31.836  55.091  0.00  0.00    -0.266 OA
BRANCH   3   5
ATOM      5  C   UNL d   1      54.059  33.245  54.914  0.00  0.00     0.086 A 
ATOM      6  S   UNL d   1      54.791  33.586  54.734  0.00  0.00    -0.082 SA
ATOM      7  C   UNL d   1      54.841  34.295  55.102  0.00  0.00     0.036 A 
ATOM      8  C   UNL d   1      54.166  34.431  55.518  0.00  0.00     0.008 A 
ATOM      9  C   UNL d   1      53.654  33.763  55.406  0.00  0.00     0.012 A 
ENDBRANCH   3   5
BRANCH   2  10
ATOM     10  C   UNL d   1      53.044  31.745  53.697  0.00  0.00     0.089 A 
ATOM     11  C   UNL d   1      53.503  31.258  53.202  0.00  0.00     0.110 A 
ATOM     12  C   UNL d   1      53.216  30.538  52.947  0.00  0.00     0.026 A 
ATOM     13  C   UNL d   1      52.462  30.281  53.179  0.00  0.00     0.002 A 
ATOM     14  C   UNL d   1      52.013  30.762  53.666  0.00  0.00     0.002 A 
ATOM     15  C   UNL d   1      52.172  29.553  52.921  0.00  0.00     0.000 C 
ATOM     16  C   UNL d   1      52.300  31.482  53.921  0.00  0.00     0.020 A 
BRANCH  11  17
ATOM     17  O   UNL d   1      54.244  31.501  52.969  0.00  0.00    -0.327 OA
ATOM     18  C   UNL d   1      54.736  30.985  52.572  0.00  0.00     0.181 C 
ENDBRANCH  11  17
ENDBRANCH   2  10
ENDBRANCH   1   2
BRANCH   1  19
ATOM     19  C   UNL d   1      52.402  33.359  53.306  0.00  0.00     0.038 C 
BRANCH  19  20
ATOM     20  C   UNL d   1      52.249  34.064  52.895  0.00  0.00     0.088 C 
BRANCH  20  21
ATOM     21  N   UNL d   1      51.446  34.262  52.680  0.00  0.00    -0.240 N 
ATOM     22  C   UNL d   1      50.944  34.621  53.227  0.00  0.00     0.267 A 
ATOM     23  C   UNL d   1      50.166  34.817  53.029  0.00  0.00     0.057 A 
ATOM     24  O   UNL d   1      51.222  34.799  54.015  0.00  0.00    -0.267 OA
ATOM     25  C   UNL d   1      49.674  35.168  53.565  0.00  0.00     0.005 A 
ATOM     26  C   UNL d   1      49.901  34.641  52.258  0.00  0.00     0.009 A 
ATOM     27  C   UNL d   1      48.892  35.362  53.359  0.00  0.00     0.000 A 
ATOM     28  C   UNL d   1      48.635  35.188  52.600  0.00  0.00     0.000 A 
ATOM     29  C   UNL d   1      49.126  34.836  52.063  0.00  0.00     0.000 A 
ATOM     30  C   UNL d   1      48.864  34.660  51.295  0.00  0.00     0.000 A 
ATOM     31  C   UNL d   1      49.366  34.301  50.748  0.00  0.00     0.000 A 
ATOM     32  C   UNL d   1      50.143  34.109  50.954  0.00  0.00     0.005 A 
ATOM     33  C   UNL d   1      50.403  34.282  51.711  0.00  0.00     0.057 A 
ATOM     34  C   UNL d   1      51.182  34.090  51.920  0.00  0.00     0.267 A 
ATOM     35  O   UNL d   1      51.692  33.725  51.364  0.00  0.00    -0.267 OA
ENDBRANCH  20  21
ENDBRANCH  19  20
ENDBRANCH   1  19
TORSDOF 7
ENDMDL
MODEL 3
REMARK VINA RESULT:      -4.1      1.314      1.846
REMARK  7 active torsions:
REMARK  status: ('A' for Active; 'I' for Inactive)
REMARK    1  A    between atoms: C_20  and  N_1 
REMARK       I    between atoms: C_6  and  N_7 
REMARK    2  A    between atoms: C_10  and  C_6 
REMARK    3  A    between atoms: N_7  and  C_24 
REMARK    4  A    between atoms: C_9  and  N_7 
REMARK    5  A    between atoms: O_29  and  C_11 
REMARK    6  A    between atoms: C_23  and  C_20 
REMARK    7  A    between atoms: C_24  and  C_23 
ROOT
ATOM      1  C   UNL d   1      52.045  33.199  53.564  0.00  0.00     0.085 C 
ENDROOT
BRANCH   1   2
ATOM      2  N   UNL d   1      52.828  33.429  53.552  0.00  0.00    -0.271 N 
ATOM      3  C   UNL d   1      53.411  32.874  53.361  0.00  0.00     0.271 C 
ATOM      4  O   UNL d   1      54.199  33.102  53.348  0.00  0.00    -0.266 OA
BRANCH   3   5
ATOM      5  C   UNL d   1      53.200  32.096  53.186  0.00  0.00     0.086 A 
ATOM      6  S   UNL d   1      53.273  31.433  53.676  0.00  0.00    -0.082 SA
ATOM      7  C   UNL d   1      53.000  30.792  53.282  0.00  0.00     0.036 A 
ATOM      8  C   UNL d   1      52.750  31.011  52.550  0.00  0.00     0.008 A 
ATOM      9  C   UNL d   1      52.873  31.848  52.474  0.00  0.00     0.012 A 
ENDBRANCH   3   5
BRANCH   2  10
ATOM     10  C   UNL d   1      53.039  34.203  53.726  0.00  0.00     0.089 A 
ATOM     11  C   UNL d   1      53.196  34.432  54.510  0.00  0.00     0.110 A 
ATOM     12  C   UNL d   1      53.406  35.202  54.684  0.00  0.00     0.026 A 
ATOM     13  C   UNL d   1      53.464  35.767  54.079  0.00  0.00     0.002 A 
ATOM     14  C   UNL d   1      53.308  35.538  53.309  0.00  0.00     0.002 A 
ATOM     15  C   UNL d   1      53.676  36.545  54.255  0.00  0.00     0.000 C 
ATOM     16  C   UNL d   1      53.099  34.769  53.135  0.00  0.00     0.020 A 
BRANCH  11  17
ATOM     17  O   UNL d   1      53.142  33.885  55.111  0.00  0.00    -0.327 OA
ATOM     18  C   UNL d   1      53.395  34.079  55.863  0.00  0.00     0.181 C 
ENDBRANCH  11  17
ENDBRANCH   2  10
ENDBRANCH   1   2
BRANCH   1  19
ATOM     19  C   UNL d   1      51.451  33.697  53.222  0.00  0.00     0.038 C 
BRANCH  19  20
ATOM     20  C   UNL d   1      50.647  33.491  53.268  0.00  0.00     0.088 C 
BRANCH  20  21
ATOM     21  N   UNL d   1      50.059  34.006  52.925  0.00  0.00    -0.240 N 
ATOM     22  C   UNL d   1      49.688  34.582  53.385  0.00  0.00     0.267 A 
ATOM     23  C   UNL d   1      49.117  35.085  53.061  0.00  0.00     0.057 A 
ATOM     24  O   UNL d   1      49.889  34.670  54.210  0.00  0.00    -0.267 OA
ATOM     25  C   UNL d   1      48.755  35.649  53.512  0.00  0.00     0.005 A 
ATOM     26  C   UNL d   1      48.926  34.995  52.255  0.00  0.00     0.009 A 
ATOM     27  C   UNL d   1      48.181  36.152  53.180  0.00  0.00     0.000 A 
ATOM     28  C   UNL d   1      47.995  36.060  52.386  0.00  0.00     0.000 A 
ATOM     29  C   UNL d   1      48.358  35.496  51.936  0.00  0.00     0.000 A 
ATOM     30  C   UNL d   1      48.168  35.404  51.133  0.00  0.00     0.000 A 
ATOM     31  C   UNL d   1      48.539  34.828  50.672  0.00  0.00     0.000 A 
ATOM     32  C   UNL d   1      49.108  34.330  51.004  0.00  0.00     0.005 A 
ATOM     33  C   UNL d   1      49.296  34.419  51.795  0.00  0.00     0.057 A 
ATOM     34  C   UNL d   1      49.868  33.919  52.129  0.00  0.00     0.267 A 
ATOM     35  O   UNL d   1      50.244  33.334  51.662  0.00  0.00    -0.267 OA
ENDBRANCH  20  21
ENDBRANCH  19  20
ENDBRANCH   1  19
TORSDOF 7
ENDMDL
MODEL 4
REMARK VINA RESULT:      -3.9      1.585      4.877
REMARK  7 active torsions:
REMARK  status: ('A' for Active; 'I' for Inactive)
REMARK    1  A    between atoms: C_20  and  N_1 
REMARK       I    between atoms: C_6  and  N_7 
REMARK    2  A    between atoms: C_10  and  C_6 
REMARK    3  A    between atoms: N_7  and  C_24 
REMARK    4  A    between atoms: C_9  and  N_7 
REMARK    5  A    between atoms: O_29  and  C_11 
REMARK    6  A    between atoms: C_23  and  C_20 
REMARK    7  A    between atoms: C_24  and  C_23 
ROOT
ATOM      1  C   UNL d   1      53.361  33.405  53.610  0.00  0.00     0.085 C 
ENDROOT
BRANCH   1   2
ATOM      2  N   UNL d   1      52.839  33.986  53.847  0.00  0.00    -0.271 N 
ATOM      3  C   UNL d   1      53.065  34.517  54.439  0.00  0.00     0.271 C 
ATOM      4  O   UNL d   1      52.542  35.102  54.680  0.00  0.00    -0.266 OA
BRANCH   3   5
ATOM      5  C   UNL d   1      53.812  34.458  54.785  0.00  0.00     0.086 A 
ATOM      6  S   UNL d   1      54.534  34.705  54.465  0.00  0.00    -0.082 SA
ATOM      7  C   UNL d   1      55.116  34.540  54.989  0.00  0.00     0.036 A 
ATOM      8  C   UNL d   1      54.801  34.193  55.642  0.00  0.00     0.008 A 
ATOM      9  C   UNL d   1      53.962  34.134  55.525  0.00  0.00     0.012 A 
ENDBRANCH   3   5
BRANCH   2  10
ATOM     10  C   UNL d   1      52.096  34.045  53.503  0.00  0.00     0.089 A 
ATOM     11  C   UNL d   1      52.008  34.354  52.736  0.00  0.00     0.110 A 
ATOM     12  C   UNL d   1      51.269  34.413  52.394  0.00  0.00     0.026 A 
ATOM     13  C   UNL d   1      50.595  34.164  52.808  0.00  0.00     0.002 A 
ATOM     14  C   UNL d   1      50.684  33.860  53.563  0.00  0.00     0.002 A 
ATOM     15  C   UNL d   1      49.848  34.223  52.463  0.00  0.00     0.000 C 
ATOM     16  C   UNL d   1      51.423  33.801  53.905  0.00  0.00     0.020 A 
BRANCH  11  17
ATOM     17  O   UNL d   1      52.664  34.601  52.321  0.00  0.00    -0.327 OA
ATOM     18  C   UNL d   1      52.604  34.763  51.523  0.00  0.00     0.181 C 
ENDBRANCH  11  17
ENDBRANCH   2  10
ENDBRANCH   1   2
BRANCH   1  19
ATOM     19  C   UNL d   1      53.152  32.588  53.690  0.00  0.00     0.038 C 
BRANCH  19  20
ATOM     20  C   UNL d   1      53.669  31.991  53.431  0.00  0.00     0.088 C 
BRANCH  20  21
ATOM     21  N   UNL d   1      53.466  31.171  53.560  0.00  0.00    -0.240 N 
ATOM     22  C   UNL d   1      53.638  30.807  54.280  0.00  0.00     0.267 A 
ATOM     23  C   UNL d   1      53.445  30.014  54.414  0.00  0.00     0.057 A 
ATOM     24  O   UNL d   1      54.020  31.245  54.904  0.00  0.00    -0.267 OA
ATOM     25  C   UNL d   1      53.613  29.657  55.119  0.00  0.00     0.005 A 
ATOM     26  C   UNL d   1      53.072  29.591  53.799  0.00  0.00     0.009 A 
ATOM     27  C   UNL d   1      53.417  28.859  55.246  0.00  0.00     0.000 A 
ATOM     28  C   UNL d   1      53.049  28.446  54.640  0.00  0.00     0.000 A 
ATOM     29  C   UNL d   1      52.881  28.803  53.935  0.00  0.00     0.000 A 
ATOM     30  C   UNL d   1      52.509  28.384  53.322  0.00  0.00     0.000 A 
ATOM     31  C   UNL d   1      52.338  28.748  52.602  0.00  0.00     0.000 A 
ATOM     32  C   UNL d   1      52.533  29.541  52.477  0.00  0.00     0.005 A 
ATOM     33  C   UNL d   1      52.900  29.956  53.079  0.00  0.00     0.057 A 
ATOM     34  C   UNL d   1      53.097  30.752  52.955  0.00  0.00     0.267 A 
ATOM     35  O   UNL d   1      52.923  31.122  52.224  0.00  0.00    -0.267 OA
ENDBRANCH  20  21
ENDBRANCH  19  20
ENDBRANCH   1  19
TORSDOF 7
ENDMDL
MODEL 5
REMARK VINA RESULT:      -3.9      1.422      3.031
REMARK  7 active torsions:
REMARK  status: ('A' for Active; 'I' for Inactive)
REMARK    1  A    between atoms: C_20  and  N_1 
REMARK       I    between atoms: C_6  and  N_7 
REMARK    2  A    between atoms: C_10  and  C_6 
REMARK    3  A    between atoms: N_7  and  C_24 
REMARK    4  A    between atoms: C_9  and  N_7 
REMARK    5  A    between atoms: O_29  and  C_11 
REMARK    6  A    between atoms: C_23  and  C_20 
REMARK    7  A    between atoms: C_24  and  C_23 
ROOT
ATOM      1  C   UNL d   1      52.134  33.472  53.847  0.00  0.00     0.085 C 
ENDROOT
BRANCH   1   2
ATOM      2  N   UNL d   1      52.872  33.196  53.632  0.00  0.00    -0.271 N 
ATOM      3  C   UNL d   1      53.511  33.721  53.614  0.00  0.00     0.271 C 
ATOM      4  O   UNL d   1      54.254  33.446  53.397  0.00  0.00    -0.266 OA
BRANCH   3   5
ATOM      5  C   UNL d   1      53.401  34.514  53.812  0.00  0.00     0.086 A 
ATOM      6  S   UNL d   1      53.393  34.845  54.571  0.00  0.00    -0.082 SA
ATOM      7  C   UNL d   1      53.269  35.633  54.505  0.00  0.00     0.036 A 
ATOM      8  C   UNL d   1      53.196  35.831  53.729  0.00  0.00     0.008 A 
ATOM      9  C   UNL d   1      53.279  35.120  53.272  0.00  0.00     0.012 A 
ENDBRANCH   3   5
BRANCH   2  10
ATOM     10  C   UNL d   1      52.981  32.407  53.434  0.00  0.00     0.089 A 
ATOM     11  C   UNL d   1      53.213  31.855  54.011  0.00  0.00     0.110 A 
ATOM     12  C   UNL d   1      53.322  31.070  53.814  0.00  0.00     0.026 A 
ATOM     13  C   UNL d   1      53.202  30.813  53.035  0.00  0.00     0.002 A 
ATOM     14  C   UNL d   1      52.973  31.358  52.469  0.00  0.00     0.002 A 
ATOM     15  C   UNL d   1      53.312  30.020  52.836  0.00  0.00     0.000 C 
ATOM     16  C   UNL d   1      52.864  32.143  52.666  0.00  0.00     0.020 A 
BRANCH  11  17
ATOM     17  O   UNL d   1      53.334  32.097  54.778  0.00  0.00    -0.327 OA
ATOM     18  C   UNL d   1      53.675  31.588  55.318  0.00  0.00     0.181 C 
ENDBRANCH  11  17
ENDBRANCH   2  10
ENDBRANCH   1   2
BRANCH   1  19
ATOM     19  C   UNL d   1      51.541  33.605  53.257  0.00  0.00     0.038 C 
BRANCH  19  20
ATOM     20  C   UNL d   1      50.736  33.506  53.435  0.00  0.00     0.088 C 
BRANCH  20  21
ATOM     21  N   UNL d   1      50.153  33.988  53.038  0.00  0.00    -0.240 N 
ATOM     22  C   UNL d   1      49.989  33.870  52.238  0.00  0.00     0.267 A 
ATOM     23  C   UNL d   1      49.427  34.331  51.845  0.00  0.00     0.057 A 
ATOM     24  O   UNL d   1      50.401  33.265  51.799  0.00  0.00    -0.267 OA
ATOM     25  C   UNL d   1      49.266  34.216  51.062  0.00  0.00     0.005 A 
ATOM     26  C   UNL d   1      49.028  34.920  52.280  0.00  0.00     0.009 A 
ATOM     27  C   UNL d   1      48.699  34.684  50.672  0.00  0.00     0.000 A 
ATOM     28  C   UNL d   1      48.309  35.262  51.103  0.00  0.00     0.000 A 
ATOM     29  C   UNL d   1      48.469  35.378  51.887  0.00  0.00     0.000 A 
ATOM     30  C   UNL d   1      48.073  35.964  52.322  0.00  0.00     0.000 A 
ATOM     31  C   UNL d   1      48.237  36.081  53.122  0.00  0.00     0.000 A 
ATOM     32  C   UNL d   1      48.800  35.616  53.507  0.00  0.00     0.005 A 
ATOM     33  C   UNL d   1      49.192  35.038  53.080  0.00  0.00     0.057 A 
ATOM     34  C   UNL d   1      49.758  34.570  53.465  0.00  0.00     0.267 A 
ATOM     35  O   UNL d   1      49.924  34.689  54.278  0.00  0.00    -0.267 OA
ENDBRANCH  20  21
ENDBRANCH  19  20
ENDBRANCH   1  19
TORSDOF 7
ENDMDL
