MODEL 1
REMARK VINA RESULT:      21.9      0.000      0.000
REMARK  3 active torsions:
REMARK  status: ('A' for Active; 'I' for Inactive)
REMARK    1  A    between atoms: C_9  and  C_1 
REMARK       I    between atoms: N_12  and  C_9 
REMARK    2  A    between atoms: C_16  and  N_12 
REMARK    3  A    between atoms: C_17  and  C_16 
ROOT
ATOM      1  C   UNL d   1      45.586 -16.645  43.847  0.00  0.00     0.108 A 
ATOM      2  C   UNL d   1      45.924 -17.876  43.489  0.00  0.00     0.044 A 
ATOM      3  C   UNL d   1      45.887 -17.392  42.782  0.00  0.00     0.112 A 
ATOM      4  S   UNL d   1      45.676 -16.623  43.010  0.00  0.00    -0.061 SA
ATOM      5  C   UNL d   1      45.734 -17.393  44.136  0.00  0.00     0.116 A 
ATOM      6  N   UNL d   1      46.049 -17.723  42.059  0.00  0.00    -0.239 NA
ATOM      7  C   UNL d   1      46.283 -18.986  42.689  0.00  0.00     0.057 A 
ATOM      8  C   UNL d   1      46.120 -18.660  43.429  0.00  0.00     0.008 A 
ATOM      9  C   UNL d   1      46.248 -18.523  42.012  0.00  0.00     0.085 A 
ATOM     10  C   UNL d   1      46.483 -19.790  42.638  0.00  0.00     0.197 A 
ATOM     11  N   UNL d   1      45.695 -17.617  44.951  0.00  0.00    -0.147 N 
ATOM     12  O   UNL d   1      46.518 -20.260  43.326  0.00  0.00    -0.286 OA
ATOM     13  C   UNL d   1      46.412 -18.853  41.268  0.00  0.00     0.019 A 
ATOM     14  C   UNL d   1      46.646 -20.127  41.913  0.00  0.00     0.042 A 
ATOM     15  C   UNL d   1      46.610 -19.643  41.205  0.00  0.00     0.005 A 
ENDROOT
BRANCH   1  16
ATOM     16  C   UNL d   1      45.375 -15.996  44.325  0.00  0.00     0.287 C 
ATOM     17  N   UNL d   1      45.707 -15.264  44.150  0.00  0.00    -0.206 NA
ATOM     18  O   UNL d   1      44.853 -16.068  44.953  0.00  0.00    -0.265 OA
BRANCH  17  19
ATOM     19  C   UNL d   1      45.508 -14.604  44.618  0.00  0.00     0.102 C 
BRANCH  19  20
ATOM     20  C   UNL d   1      45.615 -13.843  44.326  0.00  0.00     0.019 A 
ATOM     21  C   UNL d   1      45.256 -13.616  43.621  0.00  0.00     0.002 A 
ATOM     22  C   UNL d   1      45.367 -12.851  43.333  0.00  0.00     0.000 A 
ATOM     23  C   UNL d   1      45.829 -12.317  43.740  0.00  0.00     0.000 A 
ATOM     24  C   UNL d   1      46.191 -12.537  44.444  0.00  0.00     0.000 A 
ATOM     25  C   UNL d   1      46.085 -13.301  44.740  0.00  0.00     0.002 A 
ENDBRANCH  19  20
ENDBRANCH  17  19
ENDBRANCH   1  16
TORSDOF 3
ENDMDL
