MODEL 1
REMARK VINA RESULT:      65.3      0.000      0.000
REMARK  4 active torsions:
REMARK  status: ('A' for Active; 'I' for Inactive)
REMARK    1  A    between atoms: N_3  and  S_1 
REMARK    2  A    between atoms: C_5  and  S_1 
REMARK    3  A    between atoms: C_2  and  C_9 
REMARK       I    between atoms: N_4  and  C_2 
REMARK    4  A    between atoms: C_11  and  N_3 
ROOT
ATOM      1  C   UNL d   1     -54.788-101.438 -41.308  0.00  0.00     0.057 A 
ATOM      2  C   UNL d   1     -54.740-100.094 -42.258  0.00  0.00     0.094 A 
ATOM      3  C   UNL d   1     -54.798-101.514 -42.131  0.00  0.00     0.006 A 
ATOM      4  C   UNL d   1     -54.754-100.693 -40.957  0.00  0.00     0.006 A 
ATOM      5  C   UNL d   1     -54.773-100.838 -42.604  0.00  0.00     0.020 A 
ATOM      6  C   UNL d   1     -54.730-100.020 -41.425  0.00  0.00     0.020 A 
ENDROOT
BRANCH   2   7
ATOM      7  N   UNL d   1     -54.716 -99.421 -42.725  0.00  0.00    -0.158 NA
BRANCH   7   8
ATOM      8  S   UNL d   1     -55.326 -99.271 -43.263  0.00  0.00     0.285 S 
ATOM      9  O   UNL d   1     -54.787 -99.287 -43.888  0.00  0.00    -0.198 OA
ATOM     10  O   UNL d   1     -55.864 -99.255 -42.636  0.00  0.00    -0.198 OA
BRANCH   8  11
ATOM     11  C   UNL d   1     -55.936 -99.121 -43.795  0.00  0.00     0.107 A 
ATOM     12  C   UNL d   1     -56.723 -99.129 -43.537  0.00  0.00     0.043 A 
ATOM     13  C   UNL d   1     -57.336 -98.979 -44.071  0.00  0.00     0.141 A 
ATOM     14  F   UNL d   1     -58.130 -98.986 -43.818  0.00  0.00    -0.204 F 
ATOM     15  C   UNL d   1     -57.161 -98.822 -44.862  0.00  0.00     0.030 A 
ATOM     16  C   UNL d   1     -56.380 -98.814 -45.117  0.00  0.00     0.003 A 
ATOM     17  C   UNL d   1     -55.765 -98.963 -44.587  0.00  0.00     0.013 A 
ENDBRANCH   8  11
ENDBRANCH   7   8
ENDBRANCH   2   7
BRANCH   1  18
ATOM     18  C   UNL d   1     -54.813-102.122 -40.821  0.00  0.00     0.265 C 
ATOM     19  N   UNL d   1     -54.787-102.039 -39.998  0.00  0.00    -0.272 N 
ATOM     20  C   UNL d   1     -54.811-102.711 -39.518  0.00  0.00     0.083 A 
ATOM     21  C   UNL d   1     -54.738-101.294 -39.656  0.00  0.00     0.083 A 
ATOM     22  C   UNL d   1     -54.786-102.631 -38.697  0.00  0.00     0.019 A 
ATOM     23  C   UNL d   1     -54.737-101.884 -38.371  0.00  0.00     0.003 A 
ATOM     24  C   UNL d   1     -54.713-101.217 -38.844  0.00  0.00     0.019 A 
ATOM     25  O   UNL d   1     -54.862-102.876 -41.170  0.00  0.00    -0.267 OA
ENDBRANCH   1  18
TORSDOF 4
ENDMDL
