MODEL 1
REMARK VINA RESULT:      -2.1      0.000      0.000
REMARK  4 active torsions:
REMARK  status: ('A' for Active; 'I' for Inactive)
REMARK    1  A    between atoms: C_14  and  N_3 
REMARK    2  A    between atoms: C_9  and  C_5 
REMARK    3  A    between atoms: C_19  and  C_14 
REMARK    4  A    between atoms: C_23  and  C_19 
ROOT
ATOM      1  C   UNL d   1      58.345  -0.984  30.129  0.00  0.00     0.083 A 
ATOM      2  C   UNL d   1      57.866  -1.623  30.328  0.00  0.00     0.161 A 
ATOM      3  N   UNL d   1      58.720  -2.040  29.386  0.00  0.00    -0.272 N 
ATOM      4  C   UNL d   1      58.092  -2.279  29.872  0.00  0.00     0.288 A 
ATOM      5  C   UNL d   1      58.875  -1.239  29.546  0.00  0.00     0.072 A 
ATOM      6  C   UNL d   1      58.244  -0.254  30.498  0.00  0.00     0.201 A 
ATOM      7  O   UNL d   1      57.274  -1.529  30.907  0.00  0.00    -0.302 OA
ATOM      8  C   UNL d   1      57.657  -0.166  31.071  0.00  0.00     0.062 A 
ATOM      9  C   UNL d   1      57.175  -0.801  31.273  0.00  0.00     0.103 A 
ATOM     10  O   UNL d   1      57.759  -3.027  29.896  0.00  0.00    -0.264 OA
ATOM     11  O   UNL d   1      58.724   0.384  30.299  0.00  0.00    -0.286 OA
ATOM     12  C   UNL d   1      57.554   0.569  31.443  0.00  0.00     0.005 A 
ATOM     13  C   UNL d   1      56.584  -0.701  31.854  0.00  0.00     0.025 A 
ATOM     14  C   UNL d   1      56.971   0.663  32.013  0.00  0.00     0.000 A 
ATOM     15  C   UNL d   1      56.485   0.026  32.219  0.00  0.00     0.002 A 
ENDROOT
BRANCH   5  16
ATOM     16  C   UNL d   1      59.357  -0.603  29.344  0.00  0.00     0.019 A 
ATOM     17  C   UNL d   1      60.009  -0.401  29.814  0.00  0.00     0.031 A 
ATOM     18  C   UNL d   1      60.488   0.236  29.608  0.00  0.00     0.140 A 
ATOM     19  F   UNL d   1      61.133   0.429  30.081  0.00  0.00    -0.204 F 
ATOM     20  C   UNL d   1      60.321   0.681  28.926  0.00  0.00     0.030 A 
ATOM     21  C   UNL d   1      59.671   0.480  28.455  0.00  0.00     0.002 A 
ATOM     22  C   UNL d   1      59.189  -0.163  28.667  0.00  0.00     0.002 A 
ENDBRANCH   5  16
BRANCH   3  23
ATOM     23  C   UNL d   1      59.119  -2.511  28.842  0.00  0.00     0.086 C 
BRANCH  23  24
ATOM     24  C   UNL d   1      59.355  -3.270  29.054  0.00  0.00     0.065 C 
BRANCH  24  25
ATOM     25  C   UNL d   1      59.714  -3.761  28.498  0.00  0.00     0.236 C 
ATOM     26  O   UNL d   1      60.510  -3.924  28.552  0.00  0.00    -0.283 OA
ENDBRANCH  24  25
ENDBRANCH  23  24
ENDBRANCH   3  23
TORSDOF 4
ENDMDL
MODEL 2
REMARK VINA RESULT:      -0.4      1.024      3.496
REMARK  4 active torsions:
REMARK  status: ('A' for Active; 'I' for Inactive)
REMARK    1  A    between atoms: C_14  and  N_3 
REMARK    2  A    between atoms: C_9  and  C_5 
REMARK    3  A    between atoms: C_19  and  C_14 
REMARK    4  A    between atoms: C_23  and  C_19 
ROOT
ATOM      1  C   UNL d   1      59.234  -1.624  29.402  0.00  0.00     0.083 A 
ATOM      2  C   UNL d   1      58.551  -2.078  29.470  0.00  0.00     0.161 A 
ATOM      3  N   UNL d   1      58.242  -0.829  29.839  0.00  0.00    -0.272 N 
ATOM      4  C   UNL d   1      57.934  -1.592  29.739  0.00  0.00     0.288 A 
ATOM      5  C   UNL d   1      59.047  -0.850  29.629  0.00  0.00     0.072 A 
ATOM      6  C   UNL d   1      59.939  -1.965  29.143  0.00  0.00     0.201 A 
ATOM      7  O   UNL d   1      58.573  -2.888  29.275  0.00  0.00    -0.302 OA
ATOM      8  C   UNL d   1      59.957  -2.767  28.952  0.00  0.00     0.062 A 
ATOM      9  C   UNL d   1      59.276  -3.225  29.019  0.00  0.00     0.103 A 
ATOM     10  O   UNL d   1      57.160  -1.822  29.882  0.00  0.00    -0.264 OA
ATOM     11  O   UNL d   1      60.622  -1.510  29.076  0.00  0.00    -0.286 OA
ATOM     12  C   UNL d   1      60.665  -3.111  28.692  0.00  0.00     0.005 A 
ATOM     13  C   UNL d   1      59.304  -4.035  28.823  0.00  0.00     0.025 A 
ATOM     14  C   UNL d   1      60.689  -3.909  28.501  0.00  0.00     0.000 A 
ATOM     15  C   UNL d   1      60.007  -4.372  28.566  0.00  0.00     0.002 A 
ENDROOT
BRANCH   5  16
ATOM     16  C   UNL d   1      59.728  -0.392  29.563  0.00  0.00     0.019 A 
ATOM     17  C   UNL d   1      60.094  -0.082  30.238  0.00  0.00     0.031 A 
ATOM     18  C   UNL d   1      60.775   0.375  30.167  0.00  0.00     0.140 A 
ATOM     19  F   UNL d   1      61.133   0.680  30.842  0.00  0.00    -0.204 F 
ATOM     20  C   UNL d   1      61.100   0.529  29.417  0.00  0.00     0.030 A 
ATOM     21  C   UNL d   1      60.734   0.220  28.742  0.00  0.00     0.002 A 
ATOM     22  C   UNL d   1      60.046  -0.242  28.817  0.00  0.00     0.002 A 
ENDBRANCH   5  16
BRANCH   3  23
ATOM     23  C   UNL d   1      57.827  -0.167  30.098  0.00  0.00     0.086 C 
BRANCH  23  24
ATOM     24  C   UNL d   1      57.427  -0.192  30.817  0.00  0.00     0.065 C 
BRANCH  24  25
ATOM     25  C   UNL d   1      57.208   0.509  31.190  0.00  0.00     0.236 C 
ATOM     26  O   UNL d   1      56.954   0.496  31.964  0.00  0.00    -0.283 OA
ENDBRANCH  24  25
ENDBRANCH  23  24
ENDBRANCH   3  23
TORSDOF 4
ENDMDL
