MODEL 1
REMARK VINA RESULT:      -4.5      0.000      0.000
REMARK  7 active torsions:
REMARK  status: ('A' for Active; 'I' for Inactive)
REMARK    1  A    between atoms: C_2  and  S_1 
REMARK    2  A    between atoms: N_11  and  S_1 
REMARK    3  A    between atoms: O_14  and  C_4 
REMARK    4  A    between atoms: N_10  and  C_15 
REMARK    5  A    between atoms: C_19  and  N_11 
REMARK    6  A    between atoms: C_15  and  C_16 
REMARK    7  A    between atoms: C_16  and  C_19 
ROOT
ATOM      1  S   UNL d   1     -41.590-122.536 -50.659  0.00  0.00     0.287 S 
ATOM      2  O   UNL d   1     -41.572-123.311 -50.929  0.00  0.00    -0.198 OA
ATOM      3  O   UNL d   1     -41.608-121.754 -50.387  0.00  0.00    -0.198 OA
ENDROOT
BRANCH   1   4
ATOM      4  C   UNL d   1     -41.872-122.795 -49.933  0.00  0.00     0.128 A 
ATOM      5  C   UNL d   1     -41.350-123.147 -49.393  0.00  0.00     0.026 A 
ATOM      6  C   UNL d   1     -41.637-123.410 -48.656  0.00  0.00     0.059 A 
ATOM      7 CL   UNL d   1     -41.123-123.756 -48.126  0.00  0.00    -0.082 Cl
ATOM      8  C   UNL d   1     -42.440-123.318 -48.470  0.00  0.00     0.013 A 
ATOM      9  C   UNL d   1     -42.950-122.969 -49.008  0.00  0.00     0.026 A 
ATOM     10  C   UNL d   1     -42.722-123.577 -47.745  0.00  0.00     0.001 C 
ATOM     11  C   UNL d   1     -42.664-122.706 -49.745  0.00  0.00     0.106 A 
BRANCH  11  12
ATOM     12  O   UNL d   1     -43.179-122.356 -50.284  0.00  0.00    -0.327 OA
ATOM     13  C   UNL d   1     -43.978-122.298 -50.101  0.00  0.00     0.181 C 
ENDBRANCH  11  12
ENDBRANCH   1   4
BRANCH   1  14
ATOM     14  N   UNL d   1     -41.305-122.274 -51.392  0.00  0.00    -0.157 NA
BRANCH  14  15
ATOM     15  C   UNL d   1     -41.303-122.791 -52.041  0.00  0.00     0.114 C 
BRANCH  15  16
ATOM     16  C   UNL d   1     -41.202-122.491 -52.803  0.00  0.00     0.041 C 
BRANCH  16  17
ATOM     17  C   UNL d   1     -41.410-122.944 -53.453  0.00  0.00     0.082 C 
BRANCH  17  18
ATOM     18  N   UNL d   1     -41.585-122.580 -54.168  0.00  0.00    -0.299 N 
ATOM     19  C   UNL d   1     -42.215-122.037 -54.219  0.00  0.00     0.107 A 
ATOM     20  C   UNL d   1     -42.389-121.673 -54.933  0.00  0.00     0.142 A 
ATOM     21  O   UNL d   1     -41.945-121.842 -55.603  0.00  0.00    -0.300 OA
ATOM     22  C   UNL d   1     -41.317-122.382 -55.560  0.00  0.00     0.142 A 
ATOM     23  C   UNL d   1     -41.140-122.751 -54.834  0.00  0.00     0.107 A 
ENDBRANCH  17  18
ENDBRANCH  16  17
ENDBRANCH  15  16
ENDBRANCH  14  15
ENDBRANCH   1  14
TORSDOF 7
ENDMDL
