MODEL 1
REMARK VINA RESULT:      22.0      0.000      0.000
REMARK  7 active torsions:
REMARK  status: ('A' for Active; 'I' for Inactive)
REMARK    1  A    between atoms: N_9  and  C_2 
REMARK    2  A    between atoms: C_8  and  C_14 
REMARK    3  A    between atoms: C_15  and  N_9 
REMARK    4  A    between atoms: C_14  and  C_16 
REMARK    5  A    between atoms: C_17  and  C_15 
REMARK    6  A    between atoms: C_16  and  C_18 
REMARK    7  A    between atoms: C_18  and  C_17 
ROOT
ATOM      1  N   UNL d   1      13.233  12.120  -4.501  0.00  0.00    -0.198 NA
ATOM      2  C   UNL d   1      13.288  12.695  -3.909  0.00  0.00     0.166 A 
ATOM      3  C   UNL d   1      13.202  12.347  -5.294  0.00  0.00     0.222 A 
ATOM      4  C   UNL d   1      13.312  13.495  -4.111  0.00  0.00     0.054 A 
ATOM      5  N   UNL d   1      13.227  13.149  -5.494  0.00  0.00    -0.217 NA
ATOM      6  C   UNL d   1      13.282  13.722  -4.903  0.00  0.00     0.087 A 
ATOM      7  S   UNL d   1      13.148  11.780  -5.891  0.00  0.00    -0.037 SA
ATOM      8  C   UNL d   1      13.367  14.062  -3.520  0.00  0.00     0.005 A 
ATOM      9  C   UNL d   1      13.307  14.516  -5.106  0.00  0.00     0.019 A 
ATOM     10  C   UNL d   1      13.392  14.866  -3.721  0.00  0.00     0.000 A 
ATOM     11  C   UNL d   1      13.362  15.093  -4.513  0.00  0.00     0.002 A 
ENDROOT
BRANCH   2  12
ATOM     12  N   UNL d   1      13.318  12.469  -3.118  0.00  0.00    -0.225 NA
BRANCH  12  13
ATOM     13  C   UNL d   1      13.894  11.935  -2.872  0.00  0.00     0.101 C 
BRANCH  13  14
ATOM     14  C   UNL d   1      13.986  11.780  -2.066  0.00  0.00     0.021 C 
BRANCH  14  15
ATOM     15  C   UNL d   1      13.775  12.356  -1.510  0.00  0.00     0.002 C 
BRANCH  15  16
ATOM     16  C   UNL d   1      14.202  12.426  -0.812  0.00  0.00     0.006 C 
BRANCH  16  17
ATOM     17  C   UNL d   1      14.972  12.725  -0.831  0.00  0.00     0.070 C 
BRANCH  17  18
ATOM     18  C   UNL d   1      15.180  13.351  -0.336  0.00  0.00     0.211 C 
ATOM     19  O   UNL d   1      14.598  13.838  -0.016  0.00  0.00    -0.644 OA
ATOM     20  O   UNL d   1      15.980  13.489  -0.160  0.00  0.00    -0.644 OA
ENDBRANCH  17  18
ENDBRANCH  16  17
ENDBRANCH  15  16
ENDBRANCH  14  15
ENDBRANCH  13  14
ENDBRANCH  12  13
ENDBRANCH   2  12
TORSDOF 7
ENDMDL
