MODEL 1
REMARK VINA RESULT:      53.9      0.000      0.000
REMARK  5 active torsions:
REMARK  status: ('A' for Active; 'I' for Inactive)
REMARK    1  A    between atoms: N_2  and  S_1 
REMARK    2  A    between atoms: C_8  and  S_1 
REMARK    3  A    between atoms: S_7  and  C_3 
REMARK    4  A    between atoms: C_11  and  S_7 
REMARK    5  A    between atoms: C_12  and  C_11 
ROOT
ATOM      1  N   UNL d   1      60.491  49.284  50.805  0.00  0.00    -0.208 N 
ATOM      2  C   UNL d   1      60.939  48.596  50.949  0.00  0.00     0.189 A 
ATOM      3  N   UNL d   1      61.159  48.593  51.750  0.00  0.00    -0.219 NA
ATOM      4  C   UNL d   1      60.436  49.708  51.523  0.00  0.00     0.114 A 
ATOM      5  C   UNL d   1      60.847  49.279  52.098  0.00  0.00     0.121 A 
ENDROOT
BRANCH   1   6
ATOM      6  S   UNL d   1      60.161  49.506  50.076  0.00  0.00     0.273 S 
ATOM      7  O   UNL d   1      60.918  49.465  49.763  0.00  0.00    -0.200 OA
ATOM      8  O   UNL d   1      60.075  49.708  49.276  0.00  0.00    -0.200 OA
BRANCH   6   9
ATOM      9  C   UNL d   1      59.391  49.552  50.375  0.00  0.00     0.104 A 
ATOM     10  C   UNL d   1      59.277  49.662  51.181  0.00  0.00     0.013 A 
ATOM     11  C   UNL d   1      58.509  49.707  51.478  0.00  0.00     0.001 A 
ATOM     12  C   UNL d   1      57.864  49.644  50.967  0.00  0.00     0.000 A 
ATOM     13  C   UNL d   1      57.984  49.535  50.162  0.00  0.00     0.001 A 
ATOM     14  C   UNL d   1      58.757  49.489  49.866  0.00  0.00     0.013 A 
ENDBRANCH   6   9
ENDBRANCH   1   6
BRANCH   2  15
ATOM     15  S   UNL d   1      61.131  48.013  50.386  0.00  0.00    -0.049 SA
BRANCH  15  16
ATOM     16  C   UNL d   1      61.634  47.389  50.594  0.00  0.00     0.038 C 
BRANCH  16  17
ATOM     17  C   UNL d   1      61.684  46.724  50.107  0.00  0.00     0.007 A 
ATOM     18  C   UNL d   1      61.077  46.167  50.094  0.00  0.00     0.001 A 
ATOM     19  C   UNL d   1      61.142  45.500  49.597  0.00  0.00     0.000 A 
ATOM     20  C   UNL d   1      61.812  45.400  49.120  0.00  0.00     0.000 A 
ATOM     21  C   UNL d   1      62.419  45.953  49.130  0.00  0.00     0.000 A 
ATOM     22  C   UNL d   1      62.360  46.613  49.619  0.00  0.00     0.001 A 
ENDBRANCH  16  17
ENDBRANCH  15  16
ENDBRANCH   2  15
TORSDOF 5
ENDMDL
MODEL 2
REMARK VINA RESULT:      54.2      2.201      3.492
REMARK  5 active torsions:
REMARK  status: ('A' for Active; 'I' for Inactive)
REMARK    1  A    between atoms: N_2  and  S_1 
REMARK    2  A    between atoms: C_8  and  S_1 
REMARK    3  A    between atoms: S_7  and  C_3 
REMARK    4  A    between atoms: C_11  and  S_7 
REMARK    5  A    between atoms: C_12  and  C_11 
ROOT
ATOM      1  N   UNL d   1      57.612  49.273  49.963  0.00  0.00    -0.208 N 
ATOM      2  C   UNL d   1      58.416  49.404  50.140  0.00  0.00     0.189 A 
ATOM      3  N   UNL d   1      58.793  49.668  49.450  0.00  0.00    -0.219 NA
ATOM      4  C   UNL d   1      57.494  49.457  49.157  0.00  0.00     0.114 A 
ATOM      5  C   UNL d   1      58.222  49.699  48.847  0.00  0.00     0.121 A 
ENDROOT
BRANCH   1   6
ATOM      6  S   UNL d   1      57.033  49.005  50.496  0.00  0.00     0.273 S 
ATOM      7  O   UNL d   1      57.293  49.588  51.012  0.00  0.00    -0.200 OA
ATOM      8  O   UNL d   1      56.555  48.926  51.169  0.00  0.00    -0.200 OA
BRANCH   6   9
ATOM      9  C   UNL d   1      56.759  48.412  49.988  0.00  0.00     0.104 A 
ATOM     10  C   UNL d   1      56.307  48.618  49.334  0.00  0.00     0.013 A 
ATOM     11  C   UNL d   1      56.034  48.027  48.829  0.00  0.00     0.001 A 
ATOM     12  C   UNL d   1      56.215  47.237  48.982  0.00  0.00     0.000 A 
ATOM     13  C   UNL d   1      56.666  47.036  49.638  0.00  0.00     0.001 A 
ATOM     14  C   UNL d   1      56.940  47.633  50.145  0.00  0.00     0.013 A 
ENDBRANCH   6   9
ENDBRANCH   1   6
BRANCH   2  15
ATOM     15  S   UNL d   1      58.776  49.290  50.883  0.00  0.00    -0.049 SA
BRANCH  15  16
ATOM     16  C   UNL d   1      59.464  49.708  51.075  0.00  0.00     0.038 C 
BRANCH  16  17
ATOM     17  C   UNL d   1      60.140  49.296  51.311  0.00  0.00     0.007 A 
ATOM     18  C   UNL d   1      60.674  49.635  51.840  0.00  0.00     0.001 A 
ATOM     19  C   UNL d   1      61.353  49.207  52.069  0.00  0.00     0.000 A 
ATOM     20  C   UNL d   1      61.487  48.447  51.767  0.00  0.00     0.000 A 
ATOM     21  C   UNL d   1      60.957  48.107  51.240  0.00  0.00     0.000 A 
ATOM     22  C   UNL d   1      60.286  48.524  51.010  0.00  0.00     0.001 A 
ENDBRANCH  16  17
ENDBRANCH  15  16
ENDBRANCH   2  15
TORSDOF 5
ENDMDL
MODEL 3
REMARK VINA RESULT:      56.6      1.155      2.006
REMARK  5 active torsions:
REMARK  status: ('A' for Active; 'I' for Inactive)
REMARK    1  A    between atoms: N_2  and  S_1 
REMARK    2  A    between atoms: C_8  and  S_1 
REMARK    3  A    between atoms: S_7  and  C_3 
REMARK    4  A    between atoms: C_11  and  S_7 
REMARK    5  A    between atoms: C_12  and  C_11 
ROOT
ATOM      1  N   UNL d   1      58.717  49.576  50.590  0.00  0.00    -0.208 N 
ATOM      2  C   UNL d   1      59.481  49.373  50.854  0.00  0.00     0.189 A 
ATOM      3  N   UNL d   1      59.478  49.376  51.684  0.00  0.00    -0.219 NA
ATOM      4  C   UNL d   1      58.240  49.705  51.263  0.00  0.00     0.114 A 
ATOM      5  C   UNL d   1      58.711  49.581  51.931  0.00  0.00     0.121 A 
ENDROOT
BRANCH   1   6
ATOM      6  S   UNL d   1      58.477  49.638  49.797  0.00  0.00     0.273 S 
ATOM      7  O   UNL d   1      59.272  49.667  49.598  0.00  0.00    -0.200 OA
ATOM      8  O   UNL d   1      58.489  49.707  48.971  0.00  0.00    -0.200 OA
BRANCH   6   9
ATOM      9  C   UNL d   1      57.670  49.610  49.981  0.00  0.00     0.104 A 
ATOM     10  C   UNL d   1      57.124  49.485  49.380  0.00  0.00     0.013 A 
ATOM     11  C   UNL d   1      56.321  49.457  49.563  0.00  0.00     0.001 A 
ATOM     12  C   UNL d   1      56.072  49.555  50.344  0.00  0.00     0.000 A 
ATOM     13  C   UNL d   1      56.622  49.680  50.940  0.00  0.00     0.001 A 
ATOM     14  C   UNL d   1      57.429  49.707  50.753  0.00  0.00     0.013 A 
ENDBRANCH   6   9
ENDBRANCH   1   6
BRANCH   2  15
ATOM     15  S   UNL d   1      60.135  49.199  50.368  0.00  0.00    -0.049 SA
BRANCH  15  16
ATOM     16  C   UNL d   1      60.870  49.032  50.710  0.00  0.00     0.038 C 
BRANCH  16  17
ATOM     17  C   UNL d   1      61.169  48.263  50.682  0.00  0.00     0.007 A 
ATOM     18  C   UNL d   1      61.582  47.996  50.021  0.00  0.00     0.001 A 
ATOM     19  C   UNL d   1      61.878  47.216  50.008  0.00  0.00     0.000 A 
ATOM     20  C   UNL d   1      61.758  46.715  50.656  0.00  0.00     0.000 A 
ATOM     21  C   UNL d   1      61.346  46.977  51.317  0.00  0.00     0.000 A 
ATOM     22  C   UNL d   1      61.052  47.745  51.335  0.00  0.00     0.001 A 
ENDBRANCH  16  17
ENDBRANCH  15  16
ENDBRANCH   2  15
TORSDOF 5
ENDMDL
