MODEL 1
REMARK VINA RESULT:      -2.3      0.000      0.000
REMARK  6 active torsions:
REMARK  status: ('A' for Active; 'I' for Inactive)
REMARK    1  A    between atoms: S_4  and  C_1 
REMARK    2  A    between atoms: C_9  and  N_2 
REMARK    3  A    between atoms: C_11  and  S_4 
REMARK    4  A    between atoms: C_6  and  C_11 
REMARK       I    between atoms: N_8  and  C_6 
REMARK    5  A    between atoms: C_12  and  N_8 
REMARK    6  A    between atoms: O_18  and  C_13 
ROOT
ATOM      1  S   UNL d   1     -42.091-122.532 -50.166  0.00  0.00    -0.044 SA
ENDROOT
BRANCH   1   2
ATOM      2  C   UNL d   1     -42.683-123.021 -49.859  0.00  0.00     0.180 A 
ATOM      3  N   UNL d   1     -42.715-123.314 -49.096  0.00  0.00    -0.284 N 
ATOM      4  C   UNL d   1     -43.399-123.774 -49.036  0.00  0.00     0.103 A 
ATOM      5  C   UNL d   1     -43.790-123.759 -49.775  0.00  0.00     0.120 A 
ATOM      6  N   UNL d   1     -43.341-123.296 -50.269  0.00  0.00    -0.219 NA
BRANCH   3   7
ATOM      7  C   UNL d   1     -42.184-123.197 -48.475  0.00  0.00     0.066 A 
ATOM      8  C   UNL d   1     -41.728-123.817 -48.201  0.00  0.00     0.018 A 
ATOM      9  C   UNL d   1     -41.197-123.700 -47.580  0.00  0.00     0.002 A 
ATOM     10  C   UNL d   1     -41.124-122.963 -47.233  0.00  0.00     0.000 A 
ATOM     11  C   UNL d   1     -41.584-122.335 -47.507  0.00  0.00     0.002 A 
ATOM     12  C   UNL d   1     -42.114-122.452 -48.128  0.00  0.00     0.018 A 
ENDBRANCH   3   7
ENDBRANCH   1   2
BRANCH   1  13
ATOM     13  C   UNL d   1     -42.266-121.988 -50.762  0.00  0.00     0.101 C 
BRANCH  13  14
ATOM     14  C   UNL d   1     -41.940-122.064 -51.502  0.00  0.00     0.286 C 
ATOM     15  N   UNL d   1     -42.422-122.075 -52.161  0.00  0.00    -0.208 NA
ATOM     16  O   UNL d   1     -41.123-122.131 -51.580  0.00  0.00    -0.265 OA
BRANCH  15  17
ATOM     17  C   UNL d   1     -42.098-122.153 -52.909  0.00  0.00     0.085 A 
ATOM     18  C   UNL d   1     -42.317-121.630 -53.512  0.00  0.00     0.021 A 
ATOM     19  C   UNL d   1     -41.994-121.703 -54.269  0.00  0.00     0.026 A 
ATOM     20  C   UNL d   1     -41.450-122.301 -54.421  0.00  0.00     0.094 A 
ATOM     21  C   UNL d   1     -41.237-122.820 -53.808  0.00  0.00     0.026 A 
ATOM     22  C   UNL d   1     -41.557-122.745 -53.067  0.00  0.00     0.021 A 
BRANCH  20  23
ATOM     23  O   UNL d   1     -41.127-122.371 -55.184  0.00  0.00    -0.328 OA
ATOM     24  C   UNL d   1     -41.459-121.934 -55.802  0.00  0.00     0.181 C 
ENDBRANCH  20  23
ENDBRANCH  15  17
ENDBRANCH  13  14
ENDBRANCH   1  13
TORSDOF 6
ENDMDL
MODEL 2
REMARK VINA RESULT:      -2.2      1.592      5.496
REMARK  6 active torsions:
REMARK  status: ('A' for Active; 'I' for Inactive)
REMARK    1  A    between atoms: S_4  and  C_1 
REMARK    2  A    between atoms: C_9  and  N_2 
REMARK    3  A    between atoms: C_11  and  S_4 
REMARK    4  A    between atoms: C_6  and  C_11 
REMARK       I    between atoms: N_8  and  C_6 
REMARK    5  A    between atoms: C_12  and  N_8 
REMARK    6  A    between atoms: O_18  and  C_13 
ROOT
ATOM      1  S   UNL d   1     -41.606-122.752 -52.432  0.00  0.00    -0.044 SA
ENDROOT
BRANCH   1   2
ATOM      2  C   UNL d   1     -41.470-122.025 -52.803  0.00  0.00     0.180 A 
ATOM      3  N   UNL d   1     -41.604-121.857 -53.592  0.00  0.00    -0.284 N 
ATOM      4  C   UNL d   1     -41.391-121.069 -53.717  0.00  0.00     0.103 A 
ATOM      5  C   UNL d   1     -41.123-120.752 -52.991  0.00  0.00     0.120 A 
ATOM      6  N   UNL d   1     -41.176-121.348 -52.441  0.00  0.00    -0.219 NA
BRANCH   3   7
ATOM      7  C   UNL d   1     -41.896-122.353 -54.183  0.00  0.00     0.066 A 
ATOM      8  C   UNL d   1     -42.619-122.197 -54.531  0.00  0.00     0.018 A 
ATOM      9  C   UNL d   1     -42.911-122.692 -55.123  0.00  0.00     0.002 A 
ATOM     10  C   UNL d   1     -42.480-123.343 -55.367  0.00  0.00     0.000 A 
ATOM     11  C   UNL d   1     -41.750-123.504 -55.017  0.00  0.00     0.002 A 
ATOM     12  C   UNL d   1     -41.458-123.008 -54.426  0.00  0.00     0.018 A 
ENDBRANCH   3   7
ENDBRANCH   1   2
BRANCH   1  13
ATOM     13  C   UNL d   1     -41.176-122.964 -51.759  0.00  0.00     0.101 C 
BRANCH  13  14
ATOM     14  C   UNL d   1     -41.558-123.204 -51.084  0.00  0.00     0.286 C 
ATOM     15  N   UNL d   1     -41.369-122.863 -50.366  0.00  0.00    -0.208 NA
ATOM     16  O   UNL d   1     -42.133-123.791 -51.129  0.00  0.00    -0.265 OA
BRANCH  15  17
ATOM     17  C   UNL d   1     -41.750-123.101 -49.681  0.00  0.00     0.085 A 
ATOM     18  C   UNL d   1     -42.570-123.019 -49.614  0.00  0.00     0.021 A 
ATOM     19  C   UNL d   1     -42.961-123.257 -48.926  0.00  0.00     0.026 A 
ATOM     20  C   UNL d   1     -42.527-123.578 -48.305  0.00  0.00     0.094 A 
ATOM     21  C   UNL d   1     -41.704-123.656 -48.384  0.00  0.00     0.026 A 
ATOM     22  C   UNL d   1     -41.325-123.421 -49.061  0.00  0.00     0.021 A 
BRANCH  20  23
ATOM     23  O   UNL d   1     -42.924-123.817 -47.614  0.00  0.00    -0.328 OA
ATOM     24  C   UNL d   1     -42.538-123.749 -46.886  0.00  0.00     0.181 C 
ENDBRANCH  20  23
ENDBRANCH  15  17
ENDBRANCH  13  14
ENDBRANCH   1  13
TORSDOF 6
ENDMDL
MODEL 3
REMARK VINA RESULT:      -1.0      1.163      2.034
REMARK  6 active torsions:
REMARK  status: ('A' for Active; 'I' for Inactive)
REMARK    1  A    between atoms: S_4  and  C_1 
REMARK    2  A    between atoms: C_9  and  N_2 
REMARK    3  A    between atoms: C_11  and  S_4 
REMARK    4  A    between atoms: C_6  and  C_11 
REMARK       I    between atoms: N_8  and  C_6 
REMARK    5  A    between atoms: C_12  and  N_8 
REMARK    6  A    between atoms: O_18  and  C_13 
ROOT
ATOM      1  S   UNL d   1     -42.030-123.165 -51.066  0.00  0.00    -0.044 SA
ENDROOT
BRANCH   1   2
ATOM      2  C   UNL d   1     -41.849-123.384 -50.289  0.00  0.00     0.180 A 
ATOM      3  N   UNL d   1     -42.362-123.358 -49.653  0.00  0.00    -0.284 N 
ATOM      4  C   UNL d   1     -41.947-123.626 -48.990  0.00  0.00     0.103 A 
ATOM      5  C   UNL d   1     -41.168-123.817 -49.229  0.00  0.00     0.120 A 
ATOM      6  N   UNL d   1     -41.123-123.665 -50.025  0.00  0.00    -0.219 NA
BRANCH   3   7
ATOM      7  C   UNL d   1     -43.150-123.117 -49.633  0.00  0.00     0.066 A 
ATOM      8  C   UNL d   1     -43.339-122.322 -49.653  0.00  0.00     0.018 A 
ATOM      9  C   UNL d   1     -44.128-122.081 -49.633  0.00  0.00     0.002 A 
ATOM     10  C   UNL d   1     -44.728-122.635 -49.594  0.00  0.00     0.000 A 
ATOM     11  C   UNL d   1     -44.541-123.439 -49.574  0.00  0.00     0.002 A 
ATOM     12  C   UNL d   1     -43.752-123.680 -49.593  0.00  0.00     0.018 A 
ENDBRANCH   3   7
ENDBRANCH   1   2
BRANCH   1  13
ATOM     13  C   UNL d   1     -41.435-123.122 -51.637  0.00  0.00     0.101 C 
BRANCH  13  14
ATOM     14  C   UNL d   1     -41.621-123.054 -52.425  0.00  0.00     0.286 C 
ATOM     15  N   UNL d   1     -41.553-122.331 -52.798  0.00  0.00    -0.208 NA
ATOM     16  O   UNL d   1     -41.878-123.717 -52.840  0.00  0.00    -0.265 OA
BRANCH  15  17
ATOM     17  C   UNL d   1     -41.740-122.256 -53.593  0.00  0.00     0.085 A 
ATOM     18  C   UNL d   1     -42.277-121.678 -53.840  0.00  0.00     0.021 A 
ATOM     19  C   UNL d   1     -42.469-121.598 -54.639  0.00  0.00     0.026 A 
ATOM     20  C   UNL d   1     -42.121-122.099 -55.191  0.00  0.00     0.094 A 
ATOM     21  C   UNL d   1     -41.583-122.676 -54.932  0.00  0.00     0.026 A 
ATOM     22  C   UNL d   1     -41.397-122.751 -54.146  0.00  0.00     0.021 A 
BRANCH  20  23
ATOM     23  O   UNL d   1     -42.317-122.016 -55.995  0.00  0.00    -0.328 OA
ATOM     24  C   UNL d   1     -41.881-121.491 -56.462  0.00  0.00     0.181 C 
ENDBRANCH  20  23
ENDBRANCH  15  17
ENDBRANCH  13  14
ENDBRANCH   1  13
TORSDOF 6
ENDMDL
