MODEL 1
REMARK VINA RESULT:     170.8      0.000      0.000
REMARK  4 active torsions:
REMARK  status: ('A' for Active; 'I' for Inactive)
REMARK    1  A    between atoms: N_10  and  C_3 
REMARK    2  A    between atoms: C_14  and  C_5 
REMARK    3  A    between atoms: C_15  and  C_9 
REMARK       I    between atoms: C_11  and  N_12 
REMARK    4  A    between atoms: C_13  and  C_11 
ROOT
ATOM      1  N   UNL d   1     -56.903-100.040 -43.150  0.00  0.00    -0.196 N 
ATOM      2  C   UNL d   1     -57.172 -99.818 -43.930  0.00  0.00     0.167 A 
ATOM      3  C   UNL d   1     -56.112-100.222 -43.047  0.00  0.00     0.152 A 
ATOM      4  N   UNL d   1     -58.239 -99.875 -42.657  0.00  0.00    -0.163 NA
ATOM      5  C   UNL d   1     -57.963 -99.630 -44.060  0.00  0.00     0.055 A 
ATOM      6  N   UNL d   1     -56.635 -99.791 -44.564  0.00  0.00    -0.231 NA
ATOM      7  C   UNL d   1     -55.576-100.198 -43.667  0.00  0.00     0.052 A 
ATOM      8  C   UNL d   1     -58.502 -99.658 -43.421  0.00  0.00     0.104 A 
ATOM      9  C   UNL d   1     -55.841 -99.979 -44.435  0.00  0.00     0.063 A 
ATOM     10  C   UNL d   1     -59.288 -99.471 -43.548  0.00  0.00     0.023 C 
ENDROOT
BRANCH   3  11
ATOM     11  N   UNL d   1     -55.835-100.448 -42.256  0.00  0.00    -0.286 N 
ATOM     12  C   UNL d   1     -55.756-101.162 -41.864  0.00  0.00     0.101 A 
ATOM     13  C   UNL d   1     -55.468-101.190 -41.094  0.00  0.00     0.102 A 
ATOM     14  N   UNL d   1     -55.258-100.490 -40.717  0.00  0.00    -0.267 N 
ATOM     15  C   UNL d   1     -54.970-100.503 -39.951  0.00  0.00     0.288 C 
ATOM     16  C   UNL d   1     -55.336 -99.777 -41.104  0.00  0.00     0.102 A 
ATOM     17  O   UNL d   1     -54.759 -99.804 -39.570  0.00  0.00    -0.264 OA
ATOM     18  C   UNL d   1     -55.626 -99.758 -41.877  0.00  0.00     0.101 A 
BRANCH  15  19
ATOM     19  C   UNL d   1     -54.891-101.217 -39.560  0.00  0.00     0.156 A 
ATOM     20  O   UNL d   1     -54.852-101.228 -38.737  0.00  0.00    -0.300 OA
ATOM     21  C   UNL d   1     -54.773-101.944 -38.346  0.00  0.00     0.123 A 
ATOM     22  C   UNL d   1     -54.733-102.638 -38.761  0.00  0.00     0.029 A 
ATOM     23  C   UNL d   1     -54.850-101.911 -39.975  0.00  0.00     0.032 A 
ENDBRANCH  15  19
ENDBRANCH   3  11
BRANCH   9  24
ATOM     24  C   UNL d   1     -55.273 -99.952 -45.098  0.00  0.00     0.036 C 
ATOM     25  C   UNL d   1     -54.711 -99.928 -45.757  0.00  0.00     0.006 C 
ATOM     26  C   UNL d   1     -54.825 -99.224 -45.262  0.00  0.00     0.006 C 
ATOM     27  C   UNL d   1     -55.156-100.654 -45.595  0.00  0.00     0.006 C 
ENDBRANCH   9  24
BRANCH   5  28
ATOM     28  C   UNL d   1     -58.224 -99.415 -44.816  0.00  0.00     0.004 A 
ATOM     29  C   UNL d   1     -58.975 -99.629 -45.069  0.00  0.00     0.001 A 
ATOM     30  C   UNL d   1     -59.238 -99.412 -45.834  0.00  0.00     0.011 A 
ATOM     31  C   UNL d   1     -58.747 -98.983 -46.333  0.00  0.00     0.058 A 
ATOM     32  C   UNL d   1     -57.980 -98.767 -46.069  0.00  0.00     0.011 A 
ATOM     33 CL   UNL d   1     -59.020 -98.758 -47.126  0.00  0.00    -0.082 Cl
ATOM     34  C   UNL d   1     -57.721 -98.981 -45.317  0.00  0.00     0.001 A 
ENDBRANCH   5  28
TORSDOF 4
ENDMDL
