MODEL 1
REMARK VINA RESULT:      -6.8      0.000      0.000
REMARK  4 active torsions:
REMARK  status: ('A' for Active; 'I' for Inactive)
REMARK    1  A    between atoms: S_6  and  C_1 
REMARK    2  A    between atoms: N_9  and  N_2 
REMARK    3  A    between atoms: C_12  and  S_6 
REMARK       I    between atoms: C_10  and  N_9 
REMARK    4  A    between atoms: C_11  and  C_10 
ROOT
ATOM      1  C   UNL d   1     -46.959  12.683  22.844  0.00  0.00     0.146 A 
ATOM      2  N   UNL d   1     -48.117  12.248  23.364  0.00  0.00    -0.188 N 
ATOM      3  C   UNL d   1     -47.349  12.027  23.157  0.00  0.00     0.199 A 
ATOM      4  C   UNL d   1     -48.209  13.050  23.178  0.00  0.00     0.184 A 
ATOM      5  C   UNL d   1     -47.495  13.320  22.857  0.00  0.00     0.131 A 
ATOM      6  N   UNL d   1     -48.842  13.569  23.257  0.00  0.00    -0.224 NA
ATOM      7  N   UNL d   1     -47.421  14.102  22.620  0.00  0.00    -0.240 NA
ATOM      8  C   UNL d   1     -48.766  14.356  23.018  0.00  0.00     0.101 A 
ATOM      9  C   UNL d   1     -48.047  14.615  22.698  0.00  0.00     0.099 A 
ATOM     10  N   UNL d   1     -47.028  11.275  23.249  0.00  0.00    -0.126 N 
ATOM     11  C   UNL d   1     -49.399  14.875  23.097  0.00  0.00     0.021 A 
ATOM     12  C   UNL d   1     -47.968  15.404  22.457  0.00  0.00     0.021 A 
ATOM     13  C   UNL d   1     -48.605  15.921  22.538  0.00  0.00     0.002 A 
ATOM     14  C   UNL d   1     -49.324  15.662  22.858  0.00  0.00     0.002 A 
ENDROOT
BRANCH   1  15
ATOM     15  S   UNL d   1     -46.194  12.710  22.571  0.00  0.00     0.214 S 
ATOM     16  O   UNL d   1     -46.259  12.683  21.744  0.00  0.00    -0.217 OA
ATOM     17  O   UNL d   1     -46.127  12.736  23.389  0.00  0.00    -0.217 OA
BRANCH  15  18
ATOM     18  C   UNL d   1     -45.411  12.737  22.304  0.00  0.00     0.088 A 
ATOM     19  C   UNL d   1     -45.102  13.265  21.750  0.00  0.00     0.011 A 
ATOM     20  C   UNL d   1     -44.308  13.223  21.540  0.00  0.00     0.001 A 
ATOM     21  C   UNL d   1     -43.821  12.654  21.883  0.00  0.00     0.000 A 
ATOM     22  C   UNL d   1     -44.128  12.128  22.435  0.00  0.00     0.001 A 
ATOM     23  C   UNL d   1     -43.028  12.612  21.673  0.00  0.00     0.000 C 
ATOM     24  C   UNL d   1     -44.931  12.166  22.651  0.00  0.00     0.011 A 
ENDBRANCH  15  18
ENDBRANCH   1  15
BRANCH   2  25
ATOM     25  N   UNL d   1     -48.696  11.768  23.695  0.00  0.00    -0.120 NA
ATOM     26  C   UNL d   1     -49.239  11.377  23.209  0.00  0.00     0.295 C 
ATOM     27  O   UNL d   1     -49.814  10.900  23.544  0.00  0.00    -0.264 OA
BRANCH  26  28
ATOM     28  C   UNL d   1     -49.201  11.468  22.389  0.00  0.00     0.059 A 
ATOM     29  C   UNL d   1     -48.830  11.307  21.667  0.00  0.00     0.005 A 
ATOM     30  C   UNL d   1     -49.502  11.784  21.689  0.00  0.00     0.005 A 
ENDBRANCH  26  28
ENDBRANCH   2  25
TORSDOF 4
ENDMDL
MODEL 2
REMARK VINA RESULT:      -6.7      8.583     10.008
REMARK  4 active torsions:
REMARK  status: ('A' for Active; 'I' for Inactive)
REMARK    1  A    between atoms: S_6  and  C_1 
REMARK    2  A    between atoms: N_9  and  N_2 
REMARK    3  A    between atoms: C_12  and  S_6 
REMARK       I    between atoms: C_10  and  N_9 
REMARK    4  A    between atoms: C_11  and  C_10 
ROOT
ATOM      1  C   UNL d   1     -38.748  14.300  19.246  0.00  0.00     0.146 A 
ATOM      2  N   UNL d   1     -38.782  14.753  17.983  0.00  0.00    -0.188 N 
ATOM      3  C   UNL d   1     -38.873  14.966  18.776  0.00  0.00     0.199 A 
ATOM      4  C   UNL d   1     -38.599  13.945  17.958  0.00  0.00     0.184 A 
ATOM      5  C   UNL d   1     -38.578  13.664  18.736  0.00  0.00     0.131 A 
ATOM      6  N   UNL d   1     -38.449  13.430  17.334  0.00  0.00    -0.224 NA
ATOM      7  N   UNL d   1     -38.408  12.875  18.884  0.00  0.00    -0.240 NA
ATOM      8  C   UNL d   1     -38.279  12.636  17.484  0.00  0.00     0.101 A 
ATOM      9  C   UNL d   1     -38.260  12.366  18.267  0.00  0.00     0.099 A 
ATOM     10  N   UNL d   1     -39.057  15.720  19.049  0.00  0.00    -0.126 N 
ATOM     11  C   UNL d   1     -38.129  12.120  16.861  0.00  0.00     0.021 A 
ATOM     12  C   UNL d   1     -38.089  11.570  18.421  0.00  0.00     0.021 A 
ATOM     13  C   UNL d   1     -37.940  11.056  17.794  0.00  0.00     0.002 A 
ATOM     14  C   UNL d   1     -37.958  11.326  17.011  0.00  0.00     0.002 A 
ENDROOT
BRANCH   1  15
ATOM     15  S   UNL d   1     -38.784  14.263  20.058  0.00  0.00     0.214 S 
ATOM     16  O   UNL d   1     -39.577  14.089  20.231  0.00  0.00    -0.217 OA
ATOM     17  O   UNL d   1     -37.999  14.436  19.888  0.00  0.00    -0.217 OA
BRANCH  15  18
ATOM     18  C   UNL d   1     -38.809  14.229  20.883  0.00  0.00     0.088 A 
ATOM     19  C   UNL d   1     -39.487  14.258  21.353  0.00  0.00     0.011 A 
ATOM     20  C   UNL d   1     -39.421  14.217  22.172  0.00  0.00     0.001 A 
ATOM     21  C   UNL d   1     -38.680  14.147  22.524  0.00  0.00     0.000 A 
ATOM     22  C   UNL d   1     -38.004  14.118  22.056  0.00  0.00     0.001 A 
ATOM     23  C   UNL d   1     -38.614  14.106  23.342  0.00  0.00     0.000 C 
ATOM     24  C   UNL d   1     -38.064  14.159  21.227  0.00  0.00     0.011 A 
ENDBRANCH  15  18
ENDBRANCH   1  15
BRANCH   2  25
ATOM     25  N   UNL d   1     -38.857  15.244  17.329  0.00  0.00    -0.120 NA
ATOM     26  C   UNL d   1     -39.607  15.432  17.035  0.00  0.00     0.295 C 
ATOM     27  O   UNL d   1     -39.676  15.922  16.383  0.00  0.00    -0.264 OA
BRANCH  26  28
ATOM     28  C   UNL d   1     -40.282  15.127  17.398  0.00  0.00     0.059 A 
ATOM     29  C   UNL d   1     -40.922  15.222  17.914  0.00  0.00     0.005 A 
ATOM     30  C   UNL d   1     -40.814  14.508  17.516  0.00  0.00     0.005 A 
ENDBRANCH  26  28
ENDBRANCH   2  25
TORSDOF 4
ENDMDL
MODEL 3
REMARK VINA RESULT:      -6.4      6.662      8.806
REMARK  4 active torsions:
REMARK  status: ('A' for Active; 'I' for Inactive)
REMARK    1  A    between atoms: S_6  and  C_1 
REMARK    2  A    between atoms: N_9  and  N_2 
REMARK    3  A    between atoms: C_12  and  S_6 
REMARK       I    between atoms: C_10  and  N_9 
REMARK    4  A    between atoms: C_11  and  C_10 
ROOT
ATOM      1  C   UNL d   1     -39.515  14.379  19.558  0.00  0.00     0.146 A 
ATOM      2  N   UNL d   1     -40.252  15.103  20.413  0.00  0.00    -0.188 N 
ATOM      3  C   UNL d   1     -40.110  14.947  19.615  0.00  0.00     0.199 A 
ATOM      4  C   UNL d   1     -39.742  14.628  20.859  0.00  0.00     0.184 A 
ATOM      5  C   UNL d   1     -39.286  14.180  20.333  0.00  0.00     0.131 A 
ATOM      6  N   UNL d   1     -39.630  14.542  21.670  0.00  0.00    -0.224 NA
ATOM      7  N   UNL d   1     -38.726  13.653  20.619  0.00  0.00    -0.240 NA
ATOM      8  C   UNL d   1     -39.066  14.011  21.957  0.00  0.00     0.101 A 
ATOM      9  C   UNL d   1     -38.616  13.568  21.421  0.00  0.00     0.099 A 
ATOM     10  N   UNL d   1     -40.499  15.303  18.983  0.00  0.00    -0.126 N 
ATOM     11  C   UNL d   1     -38.954  13.925  22.767  0.00  0.00     0.021 A 
ATOM     12  C   UNL d   1     -38.049  13.035  21.706  0.00  0.00     0.021 A 
ATOM     13  C   UNL d   1     -37.940  12.951  22.519  0.00  0.00     0.002 A 
ATOM     14  C   UNL d   1     -38.390  13.394  23.055  0.00  0.00     0.002 A 
ENDROOT
BRANCH   1  15
ATOM     15  S   UNL d   1     -39.205  14.066  18.874  0.00  0.00     0.214 S 
ATOM     16  O   UNL d   1     -39.678  13.405  18.705  0.00  0.00    -0.217 OA
ATOM     17  O   UNL d   1     -38.735  14.719  19.039  0.00  0.00    -0.217 OA
BRANCH  15  18
ATOM     18  C   UNL d   1     -38.882  13.756  18.179  0.00  0.00     0.088 A 
ATOM     19  C   UNL d   1     -38.626  12.980  18.062  0.00  0.00     0.011 A 
ATOM     20  C   UNL d   1     -38.315  12.755  17.334  0.00  0.00     0.001 A 
ATOM     21  C   UNL d   1     -38.260  13.302  16.722  0.00  0.00     0.000 A 
ATOM     22  C   UNL d   1     -38.514  14.076  16.837  0.00  0.00     0.001 A 
ATOM     23  C   UNL d   1     -37.949  13.077  15.995  0.00  0.00     0.000 C 
ATOM     24  C   UNL d   1     -38.830  14.310  17.572  0.00  0.00     0.011 A 
ENDBRANCH  15  18
ENDBRANCH   1  15
BRANCH   2  25
ATOM     25  N   UNL d   1     -40.799  15.633  20.722  0.00  0.00    -0.120 NA
ATOM     26  C   UNL d   1     -41.576  15.389  20.868  0.00  0.00     0.295 C 
ATOM     27  O   UNL d   1     -42.117  15.921  21.175  0.00  0.00    -0.264 OA
BRANCH  26  28
ATOM     28  C   UNL d   1     -41.804  14.613  20.704  0.00  0.00     0.059 A 
ATOM     29  C   UNL d   1     -42.123  14.056  20.181  0.00  0.00     0.005 A 
ATOM     30  C   UNL d   1     -41.883  13.826  20.936  0.00  0.00     0.005 A 
ENDBRANCH  26  28
ENDBRANCH   2  25
TORSDOF 4
ENDMDL
MODEL 4
REMARK VINA RESULT:      -4.8      1.279      2.708
REMARK  4 active torsions:
REMARK  status: ('A' for Active; 'I' for Inactive)
REMARK    1  A    between atoms: S_6  and  C_1 
REMARK    2  A    between atoms: N_9  and  N_2 
REMARK    3  A    between atoms: C_12  and  S_6 
REMARK       I    between atoms: C_10  and  N_9 
REMARK    4  A    between atoms: C_11  and  C_10 
ROOT
ATOM      1  C   UNL d   1     -47.544  13.623  22.888  0.00  0.00     0.146 A 
ATOM      2  N   UNL d   1     -48.628  14.345  23.212  0.00  0.00    -0.188 N 
ATOM      3  C   UNL d   1     -47.837  14.389  22.977  0.00  0.00     0.199 A 
ATOM      4  C   UNL d   1     -48.831  13.544  23.270  0.00  0.00     0.184 A 
ATOM      5  C   UNL d   1     -48.164  13.097  23.070  0.00  0.00     0.131 A 
ATOM      6  N   UNL d   1     -49.530  13.162  23.476  0.00  0.00    -0.224 NA
ATOM      7  N   UNL d   1     -48.200  12.278  23.078  0.00  0.00    -0.240 NA
ATOM      8  C   UNL d   1     -49.565  12.338  23.484  0.00  0.00     0.101 A 
ATOM      9  C   UNL d   1     -48.891  11.900  23.282  0.00  0.00     0.099 A 
ATOM     10  N   UNL d   1     -47.414  15.084  22.854  0.00  0.00    -0.126 N 
ATOM     11  C   UNL d   1     -50.265  11.956  23.690  0.00  0.00     0.021 A 
ATOM     12  C   UNL d   1     -48.924  11.072  23.289  0.00  0.00     0.021 A 
ATOM     13  C   UNL d   1     -49.626  10.693  23.496  0.00  0.00     0.002 A 
ATOM     14  C   UNL d   1     -50.300  11.130  23.698  0.00  0.00     0.002 A 
ENDROOT
BRANCH   1  15
ATOM     15  S   UNL d   1     -46.791  13.413  22.663  0.00  0.00     0.214 S 
ATOM     16  O   UNL d   1     -46.849  13.233  21.855  0.00  0.00    -0.217 OA
ATOM     17  O   UNL d   1     -46.732  13.591  23.463  0.00  0.00    -0.217 OA
BRANCH  15  18
ATOM     18  C   UNL d   1     -46.022  13.202  22.446  0.00  0.00     0.088 A 
ATOM     19  C   UNL d   1     -45.518  13.631  21.952  0.00  0.00     0.011 A 
ATOM     20  C   UNL d   1     -44.764  13.346  21.787  0.00  0.00     0.001 A 
ATOM     21  C   UNL d   1     -44.512  12.634  22.113  0.00  0.00     0.000 A 
ATOM     22  C   UNL d   1     -45.013  12.206  22.605  0.00  0.00     0.001 A 
ATOM     23  C   UNL d   1     -43.758  12.350  21.949  0.00  0.00     0.000 C 
ATOM     24  C   UNL d   1     -45.777  12.489  22.776  0.00  0.00     0.011 A 
ENDBRANCH  15  18
ENDBRANCH   1  15
BRANCH   2  25
ATOM     25  N   UNL d   1     -49.132  14.976  23.364  0.00  0.00    -0.120 NA
ATOM     26  C   UNL d   1     -49.597  15.291  22.757  0.00  0.00     0.295 C 
ATOM     27  O   UNL d   1     -50.098  15.919  22.914  0.00  0.00    -0.264 OA
BRANCH  26  28
ATOM     28  C   UNL d   1     -49.556  14.973  21.996  0.00  0.00     0.059 A 
ATOM     29  C   UNL d   1     -49.902  14.540  21.382  0.00  0.00     0.005 A 
ATOM     30  C   UNL d   1     -49.144  14.852  21.292  0.00  0.00     0.005 A 
ENDBRANCH  26  28
ENDBRANCH   2  25
TORSDOF 4
ENDMDL
MODEL 5
REMARK VINA RESULT:      -4.4      7.411      9.347
REMARK  4 active torsions:
REMARK  status: ('A' for Active; 'I' for Inactive)
REMARK    1  A    between atoms: S_6  and  C_1 
REMARK    2  A    between atoms: N_9  and  N_2 
REMARK    3  A    between atoms: C_12  and  S_6 
REMARK       I    between atoms: C_10  and  N_9 
REMARK    4  A    between atoms: C_11  and  C_10 
ROOT
ATOM      1  C   UNL d   1     -40.181  14.831  18.436  0.00  0.00     0.146 A 
ATOM      2  N   UNL d   1     -39.520  14.786  19.603  0.00  0.00    -0.188 N 
ATOM      3  C   UNL d   1     -40.076  15.209  19.162  0.00  0.00     0.199 A 
ATOM      4  C   UNL d   1     -39.276  14.138  19.149  0.00  0.00     0.184 A 
ATOM      5  C   UNL d   1     -39.682  14.164  18.429  0.00  0.00     0.131 A 
ATOM      6  N   UNL d   1     -38.740  13.530  19.292  0.00  0.00    -0.224 NA
ATOM      7  N   UNL d   1     -39.551  13.586  17.861  0.00  0.00    -0.240 NA
ATOM      8  C   UNL d   1     -38.609  12.949  18.721  0.00  0.00     0.101 A 
ATOM      9  C   UNL d   1     -39.022  12.985  18.003  0.00  0.00     0.099 A 
ATOM     10  N   UNL d   1     -40.460  15.894  19.408  0.00  0.00    -0.126 N 
ATOM     11  C   UNL d   1     -38.074  12.341  18.864  0.00  0.00     0.021 A 
ATOM     12  C   UNL d   1     -38.892  12.403  17.428  0.00  0.00     0.021 A 
ATOM     13  C   UNL d   1     -38.355  11.796  17.575  0.00  0.00     0.002 A 
ATOM     14  C   UNL d   1     -37.942  11.759  18.292  0.00  0.00     0.002 A 
ENDROOT
BRANCH   1  15
ATOM     15  S   UNL d   1     -40.677  15.061  17.835  0.00  0.00     0.214 S 
ATOM     16  O   UNL d   1     -41.342  14.570  17.904  0.00  0.00    -0.217 OA
ATOM     17  O   UNL d   1     -40.020  15.549  17.764  0.00  0.00    -0.217 OA
BRANCH  15  18
ATOM     18  C   UNL d   1     -41.175  15.304  17.220  0.00  0.00     0.088 A 
ATOM     19  C   UNL d   1     -41.884  15.718  17.300  0.00  0.00     0.011 A 
ATOM     20  C   UNL d   1     -42.319  15.921  16.632  0.00  0.00     0.001 A 
ATOM     21  C   UNL d   1     -42.048  15.712  15.884  0.00  0.00     0.000 A 
ATOM     22  C   UNL d   1     -41.341  15.299  15.803  0.00  0.00     0.001 A 
ATOM     23  C   UNL d   1     -42.483  15.915  15.217  0.00  0.00     0.000 C 
ATOM     24  C   UNL d   1     -40.896  15.091  16.475  0.00  0.00     0.011 A 
ENDBRANCH  15  18
ENDBRANCH   1  15
BRANCH   2  25
ATOM     25  N   UNL d   1     -39.251  14.966  20.358  0.00  0.00    -0.120 NA
ATOM     26  C   UNL d   1     -39.695  14.749  21.020  0.00  0.00     0.295 C 
ATOM     27  O   UNL d   1     -39.422  14.931  21.770  0.00  0.00    -0.264 OA
BRANCH  26  28
ATOM     28  C   UNL d   1     -40.412  14.351  20.925  0.00  0.00     0.059 A 
ATOM     29  C   UNL d   1     -41.232  14.369  20.817  0.00  0.00     0.005 A 
ATOM     30  C   UNL d   1     -40.838  13.647  20.867  0.00  0.00     0.005 A 
ENDBRANCH  26  28
ENDBRANCH   2  25
TORSDOF 4
ENDMDL
MODEL 6
REMARK VINA RESULT:      -3.9      8.196      9.734
REMARK  4 active torsions:
REMARK  status: ('A' for Active; 'I' for Inactive)
REMARK    1  A    between atoms: S_6  and  C_1 
REMARK    2  A    between atoms: N_9  and  N_2 
REMARK    3  A    between atoms: C_12  and  S_6 
REMARK       I    between atoms: C_10  and  N_9 
REMARK    4  A    between atoms: C_11  and  C_10 
ROOT
ATOM      1  C   UNL d   1     -39.348  15.240  18.020  0.00  0.00     0.146 A 
ATOM      2  N   UNL d   1     -39.029  15.258  16.717  0.00  0.00    -0.188 N 
ATOM      3  C   UNL d   1     -38.729  15.161  17.480  0.00  0.00     0.199 A 
ATOM      4  C   UNL d   1     -39.843  15.399  16.780  0.00  0.00     0.184 A 
ATOM      5  C   UNL d   1     -40.041  15.388  17.583  0.00  0.00     0.131 A 
ATOM      6  N   UNL d   1     -40.428  15.536  16.218  0.00  0.00    -0.224 NA
ATOM      7  N   UNL d   1     -40.818  15.512  17.817  0.00  0.00    -0.240 NA
ATOM      8  C   UNL d   1     -41.209  15.661  16.455  0.00  0.00     0.101 A 
ATOM      9  C   UNL d   1     -41.396  15.647  17.262  0.00  0.00     0.099 A 
ATOM     10  N   UNL d   1     -37.942  15.011  17.667  0.00  0.00    -0.126 N 
ATOM     11  C   UNL d   1     -41.795  15.797  15.893  0.00  0.00     0.021 A 
ATOM     12  C   UNL d   1     -42.179  15.772  17.502  0.00  0.00     0.021 A 
ATOM     13  C   UNL d   1     -42.763  15.909  16.936  0.00  0.00     0.002 A 
ATOM     14  C   UNL d   1     -42.576  15.922  16.129  0.00  0.00     0.002 A 
ENDROOT
BRANCH   1  15
ATOM     15  S   UNL d   1     -39.297  15.184  18.830  0.00  0.00     0.214 S 
ATOM     16  O   UNL d   1     -39.672  14.469  19.021  0.00  0.00    -0.217 OA
ATOM     17  O   UNL d   1     -38.924  15.892  18.643  0.00  0.00    -0.217 OA
BRANCH  15  18
ATOM     18  C   UNL d   1     -39.239  15.137  19.653  0.00  0.00     0.088 A 
ATOM     19  C   UNL d   1     -38.708  15.552  20.130  0.00  0.00     0.011 A 
ATOM     20  C   UNL d   1     -38.718  15.445  20.946  0.00  0.00     0.001 A 
ATOM     21  C   UNL d   1     -39.258  14.926  21.287  0.00  0.00     0.000 A 
ATOM     22  C   UNL d   1     -39.788  14.513  20.813  0.00  0.00     0.001 A 
ATOM     23  C   UNL d   1     -39.269  14.820  22.102  0.00  0.00     0.000 C 
ATOM     24  C   UNL d   1     -39.782  14.616  19.986  0.00  0.00     0.011 A 
ENDBRANCH  15  18
ENDBRANCH   1  15
BRANCH   2  25
ATOM     25  N   UNL d   1     -38.606  15.224  16.013  0.00  0.00    -0.120 NA
ATOM     26  C   UNL d   1     -38.360  14.494  15.712  0.00  0.00     0.295 C 
ATOM     27  O   UNL d   1     -37.940  14.466  15.010  0.00  0.00    -0.264 OA
BRANCH  26  28
ATOM     28  C   UNL d   1     -38.539  13.798  16.117  0.00  0.00     0.059 A 
ATOM     29  C   UNL d   1     -38.346  13.236  16.694  0.00  0.00     0.005 A 
ATOM     30  C   UNL d   1     -39.035  13.152  16.248  0.00  0.00     0.005 A 
ENDBRANCH  26  28
ENDBRANCH   2  25
TORSDOF 4
ENDMDL
