MODEL 1
REMARK VINA RESULT:      -3.2      0.000      0.000
REMARK  3 active torsions:
REMARK  status: ('A' for Active; 'I' for Inactive)
REMARK       I    between atoms: C_6  and  N_1 
REMARK    1  A    between atoms: C_7  and  C_3 
REMARK    2  A    between atoms: C_8  and  C_4 
REMARK    3  A    between atoms: C_20  and  C_18 
ROOT
ATOM      1  N   UNL d   1      33.025  19.565 -23.738  0.00  0.00    -0.193 N 
ATOM      2  N   UNL d   1      33.125  20.267 -23.334  0.00  0.00    -0.163 NA
ATOM      3  C   UNL d   1      32.866  18.968 -23.190  0.00  0.00     0.110 A 
ATOM      4  C   UNL d   1      33.027  20.103 -22.533  0.00  0.00     0.103 A 
ATOM      5  C   UNL d   1      32.870  19.313 -22.452  0.00  0.00     0.042 A 
ATOM      6  C   UNL d   1      33.076  19.461 -24.582  0.00  0.00     0.281 C 
ATOM      7  O   UNL d   1      32.966  18.734 -24.907  0.00  0.00    -0.265 OA
ATOM      8  C   UNL d   1      33.241  20.118 -25.053  0.00  0.00     0.068 C 
ENDROOT
BRANCH   4   9
ATOM      9  C   UNL d   1      33.080  20.653 -21.922  0.00  0.00     0.019 A 
ATOM     10  C   UNL d   1      33.030  21.461 -22.082  0.00  0.00     0.002 A 
ATOM     11  C   UNL d   1      33.083  22.011 -21.471  0.00  0.00     0.000 A 
ATOM     12  C   UNL d   1      33.188  21.752 -20.691  0.00  0.00     0.000 A 
ATOM     13  C   UNL d   1      33.238  20.946 -20.529  0.00  0.00     0.000 A 
ATOM     14  C   UNL d   1      33.184  20.394 -21.141  0.00  0.00     0.002 A 
BRANCH  12  15
ATOM     15  C   UNL d   1      33.241  22.303 -20.078  0.00  0.00     0.000 C 
ATOM     16  C   UNL d   1      32.768  22.979 -20.085  0.00  0.00     0.000 C 
ENDBRANCH  12  15
ENDBRANCH   4   9
BRANCH   3  17
ATOM     17  C   UNL d   1      32.730  18.170 -23.372  0.00  0.00     0.118 A 
ATOM     18  O   UNL d   1      32.063  17.870 -23.744  0.00  0.00    -0.304 OA
ATOM     19  C   UNL d   1      32.145  17.040 -23.823  0.00  0.00     0.123 A 
ATOM     20  C   UNL d   1      32.875  16.833 -23.493  0.00  0.00     0.029 A 
ATOM     21  C   UNL d   1      33.227  17.547 -23.216  0.00  0.00     0.028 A 
ENDBRANCH   3  17
TORSDOF 3
ENDMDL
MODEL 2
REMARK VINA RESULT:      -3.1      1.956      4.383
REMARK  3 active torsions:
REMARK  status: ('A' for Active; 'I' for Inactive)
REMARK       I    between atoms: C_6  and  N_1 
REMARK    1  A    between atoms: C_7  and  C_3 
REMARK    2  A    between atoms: C_8  and  C_4 
REMARK    3  A    between atoms: C_20  and  C_18 
ROOT
ATOM      1  N   UNL d   1      32.923  21.976 -22.074  0.00  0.00    -0.193 N 
ATOM      2  N   UNL d   1      33.011  21.338 -22.574  0.00  0.00    -0.163 NA
ATOM      3  C   UNL d   1      32.792  21.694 -21.309  0.00  0.00     0.110 A 
ATOM      4  C   UNL d   1      32.933  20.657 -22.116  0.00  0.00     0.103 A 
ATOM      5  C   UNL d   1      32.800  20.881 -21.349  0.00  0.00     0.042 A 
ATOM      6  C   UNL d   1      32.961  22.797 -22.299  0.00  0.00     0.281 C 
ATOM      7  O   UNL d   1      32.864  23.373 -21.746  0.00  0.00    -0.265 OA
ATOM      8  C   UNL d   1      33.097  22.986 -23.091  0.00  0.00     0.068 C 
ENDROOT
BRANCH   4   9
ATOM      9  C   UNL d   1      32.982  19.884 -22.394  0.00  0.00     0.019 A 
ATOM     10  C   UNL d   1      32.826  19.715 -23.188  0.00  0.00     0.002 A 
ATOM     11  C   UNL d   1      32.875  18.942 -23.467  0.00  0.00     0.000 A 
ATOM     12  C   UNL d   1      33.083  18.329 -22.949  0.00  0.00     0.000 A 
ATOM     13  C   UNL d   1      33.240  18.495 -22.157  0.00  0.00     0.000 A 
ATOM     14  C   UNL d   1      33.190  19.271 -21.877  0.00  0.00     0.002 A 
BRANCH  12  15
ATOM     15  C   UNL d   1      33.133  17.554 -23.228  0.00  0.00     0.000 C 
ATOM     16  C   UNL d   1      32.683  17.317 -23.878  0.00  0.00     0.000 C 
ENDBRANCH  12  15
ENDBRANCH   4   9
BRANCH   3  17
ATOM     17  C   UNL d   1      32.675  22.164 -20.635  0.00  0.00     0.118 A 
ATOM     18  O   UNL d   1      31.961  22.490 -20.396  0.00  0.00    -0.304 OA
ATOM     19  C   UNL d   1      32.083  22.924 -19.690  0.00  0.00     0.123 A 
ATOM     20  C   UNL d   1      32.885  22.861 -19.498  0.00  0.00     0.029 A 
ATOM     21  C   UNL d   1      33.240  22.385 -20.096  0.00  0.00     0.028 A 
ENDBRANCH   3  17
TORSDOF 3
ENDMDL
MODEL 3
REMARK VINA RESULT:      -2.8      3.051      5.536
REMARK  3 active torsions:
REMARK  status: ('A' for Active; 'I' for Inactive)
REMARK       I    between atoms: C_6  and  N_1 
REMARK    1  A    between atoms: C_7  and  C_3 
REMARK    2  A    between atoms: C_8  and  C_4 
REMARK    3  A    between atoms: C_20  and  C_18 
ROOT
ATOM      1  N   UNL d   1      31.835  16.466 -23.764  0.00  0.00    -0.193 N 
ATOM      2  N   UNL d   1      31.168  16.011 -23.653  0.00  0.00    -0.163 NA
ATOM      3  C   UNL d   1      31.609  17.182 -24.109  0.00  0.00     0.110 A 
ATOM      4  C   UNL d   1      30.526  16.447 -23.929  0.00  0.00     0.103 A 
ATOM      5  C   UNL d   1      30.801  17.157 -24.204  0.00  0.00     0.042 A 
ATOM      6  C   UNL d   1      32.632  16.244 -23.562  0.00  0.00     0.281 C 
ATOM      7  O   UNL d   1      33.241  16.750 -23.704  0.00  0.00    -0.265 OA
ATOM      8  C   UNL d   1      32.764  15.505 -23.220  0.00  0.00     0.068 C 
ENDROOT
BRANCH   4   9
ATOM      9  C   UNL d   1      29.741  16.199 -23.924  0.00  0.00     0.019 A 
ATOM     10  C   UNL d   1      29.341  16.063 -24.634  0.00  0.00     0.002 A 
ATOM     11  C   UNL d   1      28.556  15.815 -24.629  0.00  0.00     0.000 A 
ATOM     12  C   UNL d   1      28.164  15.701 -23.907  0.00  0.00     0.000 A 
ATOM     13  C   UNL d   1      28.560  15.836 -23.198  0.00  0.00     0.000 A 
ATOM     14  C   UNL d   1      29.348  16.085 -23.203  0.00  0.00     0.002 A 
BRANCH  12  15
ATOM     15  C   UNL d   1      27.376  15.453 -23.902  0.00  0.00     0.000 C 
ATOM     16  C   UNL d   1      26.935  15.484 -23.206  0.00  0.00     0.000 C 
ENDBRANCH  12  15
ENDBRANCH   4   9
BRANCH   3  17
ATOM     17  C   UNL d   1      32.122  17.802 -24.313  0.00  0.00     0.118 A 
ATOM     18  O   UNL d   1      32.404  18.378 -23.802  0.00  0.00    -0.304 OA
ATOM     19  C   UNL d   1      32.904  18.898 -24.229  0.00  0.00     0.123 A 
ATOM     20  C   UNL d   1      32.925  18.631 -25.012  0.00  0.00     0.029 A 
ATOM     21  C   UNL d   1      32.433  17.948 -25.048  0.00  0.00     0.028 A 
ENDBRANCH   3  17
TORSDOF 3
ENDMDL
MODEL 4
REMARK VINA RESULT:      -2.2      1.216      1.906
REMARK  3 active torsions:
REMARK  status: ('A' for Active; 'I' for Inactive)
REMARK       I    between atoms: C_6  and  N_1 
REMARK    1  A    between atoms: C_7  and  C_3 
REMARK    2  A    between atoms: C_8  and  C_4 
REMARK    3  A    between atoms: C_20  and  C_18 
ROOT
ATOM      1  N   UNL d   1      31.896  17.877 -23.995  0.00  0.00    -0.193 N 
ATOM      2  N   UNL d   1      31.861  18.659 -23.767  0.00  0.00    -0.163 NA
ATOM      3  C   UNL d   1      32.562  17.533 -23.649  0.00  0.00     0.110 A 
ATOM      4  C   UNL d   1      32.509  18.799 -23.277  0.00  0.00     0.103 A 
ATOM      5  C   UNL d   1      32.930  18.111 -23.210  0.00  0.00     0.042 A 
ATOM      6  C   UNL d   1      31.341  17.479 -24.505  0.00  0.00     0.281 C 
ATOM      7  O   UNL d   1      31.444  16.702 -24.685  0.00  0.00    -0.265 OA
ATOM      8  C   UNL d   1      30.702  17.906 -24.806  0.00  0.00     0.068 C 
ENDROOT
BRANCH   4   9
ATOM      9  C   UNL d   1      32.692  19.518 -22.919  0.00  0.00     0.019 A 
ATOM     10  C   UNL d   1      33.057  20.119 -23.352  0.00  0.00     0.002 A 
ATOM     11  C   UNL d   1      33.240  20.837 -22.994  0.00  0.00     0.000 A 
ATOM     12  C   UNL d   1      33.057  20.959 -22.194  0.00  0.00     0.000 A 
ATOM     13  C   UNL d   1      32.693  20.361 -21.761  0.00  0.00     0.000 A 
ATOM     14  C   UNL d   1      32.509  19.639 -22.119  0.00  0.00     0.002 A 
BRANCH  12  15
ATOM     15  C   UNL d   1      33.241  21.679 -21.836  0.00  0.00     0.000 C 
ATOM     16  C   UNL d   1      32.654  22.116 -21.455  0.00  0.00     0.000 C 
ENDBRANCH  12  15
ENDBRANCH   4   9
BRANCH   3  17
ATOM     17  C   UNL d   1      32.799  16.743 -23.741  0.00  0.00     0.118 A 
ATOM     18  O   UNL d   1      33.036  16.392 -24.444  0.00  0.00    -0.304 OA
ATOM     19  C   UNL d   1      33.229  15.590 -24.297  0.00  0.00     0.123 A 
ATOM     20  C   UNL d   1      33.107  15.453 -23.490  0.00  0.00     0.029 A 
ATOM     21  C   UNL d   1      32.839  16.179 -23.158  0.00  0.00     0.028 A 
ENDBRANCH   3  17
TORSDOF 3
ENDMDL
MODEL 5
REMARK VINA RESULT:      -2.2      1.917      4.575
REMARK  3 active torsions:
REMARK  status: ('A' for Active; 'I' for Inactive)
REMARK       I    between atoms: C_6  and  N_1 
REMARK    1  A    between atoms: C_7  and  C_3 
REMARK    2  A    between atoms: C_8  and  C_4 
REMARK    3  A    between atoms: C_20  and  C_18 
ROOT
ATOM      1  N   UNL d   1      32.982  20.899 -21.279  0.00  0.00    -0.193 N 
ATOM      2  N   UNL d   1      33.022  20.140 -21.573  0.00  0.00    -0.163 NA
ATOM      3  C   UNL d   1      32.825  21.414 -21.905  0.00  0.00     0.110 A 
ATOM      4  C   UNL d   1      32.889  20.185 -22.385  0.00  0.00     0.103 A 
ATOM      5  C   UNL d   1      32.769  20.962 -22.580  0.00  0.00     0.042 A 
ATOM      6  C   UNL d   1      33.085  21.127 -20.465  0.00  0.00     0.281 C 
ATOM      7  O   UNL d   1      33.031  21.901 -20.251  0.00  0.00    -0.265 OA
ATOM      8  C   UNL d   1      33.241  20.541 -19.905  0.00  0.00     0.068 C 
ENDROOT
BRANCH   4   9
ATOM      9  C   UNL d   1      32.879  19.547 -22.905  0.00  0.00     0.019 A 
ATOM     10  C   UNL d   1      32.514  18.838 -22.690  0.00  0.00     0.002 A 
ATOM     11  C   UNL d   1      32.504  18.200 -23.210  0.00  0.00     0.000 A 
ATOM     12  C   UNL d   1      32.863  18.268 -23.954  0.00  0.00     0.000 A 
ATOM     13  C   UNL d   1      33.228  18.974 -24.171  0.00  0.00     0.000 A 
ATOM     14  C   UNL d   1      33.238  19.615 -23.649  0.00  0.00     0.002 A 
BRANCH  12  15
ATOM     15  C   UNL d   1      32.853  17.628 -24.475  0.00  0.00     0.000 C 
ATOM     16  C   UNL d   1      33.005  16.866 -24.200  0.00  0.00     0.000 C 
ENDBRANCH  12  15
ENDBRANCH   4   9
BRANCH   3  17
ATOM     17  C   UNL d   1      32.741  22.238 -21.843  0.00  0.00     0.118 A 
ATOM     18  O   UNL d   1      32.160  22.630 -21.415  0.00  0.00    -0.304 OA
ATOM     19  C   UNL d   1      32.273  23.456 -21.497  0.00  0.00     0.123 A 
ATOM     20  C   UNL d   1      32.933  23.566 -21.984  0.00  0.00     0.029 A 
ATOM     21  C   UNL d   1      33.213  22.799 -22.191  0.00  0.00     0.028 A 
ENDBRANCH   3  17
TORSDOF 3
ENDMDL
MODEL 6
REMARK VINA RESULT:      -1.2      0.811      1.332
REMARK  3 active torsions:
REMARK  status: ('A' for Active; 'I' for Inactive)
REMARK       I    between atoms: C_6  and  N_1 
REMARK    1  A    between atoms: C_7  and  C_3 
REMARK    2  A    between atoms: C_8  and  C_4 
REMARK    3  A    between atoms: C_20  and  C_18 
ROOT
ATOM      1  N   UNL d   1      33.070  20.752 -23.430  0.00  0.00    -0.193 N 
ATOM      2  N   UNL d   1      33.115  21.425 -22.970  0.00  0.00    -0.163 NA
ATOM      3  C   UNL d   1      32.960  20.102 -22.933  0.00  0.00     0.110 A 
ATOM      4  C   UNL d   1      33.031  21.189 -22.185  0.00  0.00     0.103 A 
ATOM      5  C   UNL d   1      32.938  20.385 -22.169  0.00  0.00     0.042 A 
ATOM      6  C   UNL d   1      33.128  20.722 -24.279  0.00  0.00     0.281 C 
ATOM      7  O   UNL d   1      33.074  20.017 -24.662  0.00  0.00    -0.265 OA
ATOM      8  C   UNL d   1      33.239  21.426 -24.695  0.00  0.00     0.068 C 
ENDROOT
BRANCH   4   9
ATOM      9  C   UNL d   1      33.042  21.690 -21.531  0.00  0.00     0.019 A 
ATOM     10  C   UNL d   1      33.229  21.395 -20.782  0.00  0.00     0.002 A 
ATOM     11  C   UNL d   1      33.240  21.896 -20.129  0.00  0.00     0.000 A 
ATOM     12  C   UNL d   1      33.062  22.700 -20.222  0.00  0.00     0.000 A 
ATOM     13  C   UNL d   1      32.875  22.996 -20.967  0.00  0.00     0.000 A 
ATOM     14  C   UNL d   1      32.864  22.494 -21.624  0.00  0.00     0.002 A 
BRANCH  12  15
ATOM     15  C   UNL d   1      33.072  23.202 -19.566  0.00  0.00     0.000 C 
ATOM     16  C   UNL d   1      32.889  22.910 -18.817  0.00  0.00     0.000 C 
ENDBRANCH  12  15
ENDBRANCH   4   9
BRANCH   3  17
ATOM     17  C   UNL d   1      32.887  19.313 -23.179  0.00  0.00     0.118 A 
ATOM     18  O   UNL d   1      32.451  19.051 -23.823  0.00  0.00    -0.304 OA
ATOM     19  C   UNL d   1      32.524  18.218 -23.879  0.00  0.00     0.123 A 
ATOM     20  C   UNL d   1      33.013  17.972 -23.259  0.00  0.00     0.029 A 
ATOM     21  C   UNL d   1      33.231  18.665 -22.832  0.00  0.00     0.028 A 
ENDBRANCH   3  17
TORSDOF 3
ENDMDL
