MODEL 1
REMARK VINA RESULT:      -7.7      0.000      0.000
REMARK  6 active torsions:
REMARK  status: ('A' for Active; 'I' for Inactive)
REMARK    1  A    between atoms: N_2  and  S_1 
REMARK    2  A    between atoms: C_6  and  S_1 
REMARK    3  A    between atoms: C_3  and  N_2 
REMARK       I    between atoms: C_7  and  N_13 
REMARK    4  A    between atoms: C_10  and  C_7 
REMARK    5  A    between atoms: C_12  and  C_10 
REMARK    6  A    between atoms: C_11  and  C_12 
ROOT
ATOM      1  C   UNL d   1      50.958  33.974  52.986  0.00  0.00     0.105 A 
ATOM      2  C   UNL d   1      48.340  35.186  51.231  0.00  0.00     0.280 C 
ATOM      3  N   UNL d   1      49.006  34.747  51.017  0.00  0.00    -0.208 NA
ATOM      4  O   UNL d   1      47.780  35.409  50.672  0.00  0.00    -0.265 OA
ATOM      5  C   UNL d   1      51.066  33.755  52.204  0.00  0.00     0.015 A 
ATOM      6  C   UNL d   1      50.311  34.405  53.218  0.00  0.00     0.015 A 
ATOM      7  C   UNL d   1      49.846  34.413  51.856  0.00  0.00     0.085 A 
ATOM      8  C   UNL d   1      50.505  33.976  51.633  0.00  0.00     0.020 A 
ATOM      9  C   UNL d   1      49.749  34.628  52.649  0.00  0.00     0.020 A 
ENDROOT
BRANCH   1  10
ATOM     10  S   UNL d   1      51.543  33.742  53.570  0.00  0.00     0.285 S 
ATOM     11  O   UNL d   1      51.886  34.488  53.537  0.00  0.00    -0.198 OA
ATOM     12  O   UNL d   1      51.184  32.978  53.599  0.00  0.00    -0.198 OA
BRANCH  10  13
ATOM     13  N   UNL d   1      52.108  33.494  54.145  0.00  0.00    -0.158 NA
BRANCH  13  14
ATOM     14  C   UNL d   1      52.887  33.366  53.923  0.00  0.00     0.094 A 
ATOM     15  C   UNL d   1      53.440  33.965  54.009  0.00  0.00     0.018 A 
ATOM     16  C   UNL d   1      54.218  33.821  53.782  0.00  0.00     0.002 A 
ATOM     17  C   UNL d   1      53.205  34.722  54.329  0.00  0.00     0.002 C 
ATOM     18  C   UNL d   1      54.428  33.108  53.482  0.00  0.00     0.000 A 
ATOM     19  C   UNL d   1      53.886  32.494  53.389  0.00  0.00     0.002 A 
ATOM     20  C   UNL d   1      55.236  32.987  53.257  0.00  0.00     0.000 C 
ATOM     21  C   UNL d   1      53.113  32.620  53.609  0.00  0.00     0.018 A 
ATOM     22  C   UNL d   1      52.575  32.007  53.514  0.00  0.00     0.002 C 
ENDBRANCH  13  14
ENDBRANCH  10  13
ENDBRANCH   1  10
BRANCH   2  23
ATOM     23  C   UNL d   1      48.251  35.398  52.032  0.00  0.00     0.069 C 
BRANCH  23  24
ATOM     24  C   UNL d   1      47.639  35.934  52.241  0.00  0.00     0.075 C 
BRANCH  24  25
ATOM     25  C   UNL d   1      47.489  36.093  53.035  0.00  0.00     0.211 C 
ATOM     26  O   UNL d   1      46.922  35.651  53.470  0.00  0.00    -0.644 OA
ATOM     27  O   UNL d   1      47.897  36.697  53.430  0.00  0.00    -0.644 OA
ENDBRANCH  24  25
ENDBRANCH  23  24
ENDBRANCH   2  23
TORSDOF 6
ENDMDL
MODEL 2
REMARK VINA RESULT:      -7.2      1.037      1.927
REMARK  6 active torsions:
REMARK  status: ('A' for Active; 'I' for Inactive)
REMARK    1  A    between atoms: N_2  and  S_1 
REMARK    2  A    between atoms: C_6  and  S_1 
REMARK    3  A    between atoms: C_3  and  N_2 
REMARK       I    between atoms: C_7  and  N_13 
REMARK    4  A    between atoms: C_10  and  C_7 
REMARK    5  A    between atoms: C_12  and  C_10 
REMARK    6  A    between atoms: C_11  and  C_12 
ROOT
ATOM      1  C   UNL d   1      50.787  34.295  52.863  0.00  0.00     0.105 A 
ATOM      2  C   UNL d   1      47.814  35.894  52.954  0.00  0.00     0.280 C 
ATOM      3  N   UNL d   1      48.432  35.823  53.497  0.00  0.00    -0.208 NA
ATOM      4  O   UNL d   1      47.140  36.330  53.131  0.00  0.00    -0.265 OA
ATOM      5  C   UNL d   1      50.730  34.664  53.592  0.00  0.00     0.015 A 
ATOM      6  C   UNL d   1      50.192  34.351  52.314  0.00  0.00     0.015 A 
ATOM      7  C   UNL d   1      49.443  35.170  53.231  0.00  0.00     0.085 A 
ATOM      8  C   UNL d   1      50.052  35.106  53.779  0.00  0.00     0.020 A 
ATOM      9  C   UNL d   1      49.513  34.793  52.499  0.00  0.00     0.020 A 
ENDROOT
BRANCH   1  10
ATOM     10  S   UNL d   1      51.491  33.840  52.678  0.00  0.00     0.285 S 
ATOM     11  O   UNL d   1      51.242  33.235  53.176  0.00  0.00    -0.198 OA
ATOM     12  O   UNL d   1      51.740  34.465  52.169  0.00  0.00    -0.198 OA
BRANCH  10  13
ATOM     13  N   UNL d   1      52.189  33.408  52.483  0.00  0.00    -0.158 NA
BRANCH  13  14
ATOM     14  C   UNL d   1      52.731  33.220  53.070  0.00  0.00     0.094 A 
ATOM     15  C   UNL d   1      52.755  32.460  53.375  0.00  0.00     0.018 A 
ATOM     16  C   UNL d   1      53.303  32.286  53.963  0.00  0.00     0.002 A 
ATOM     17  C   UNL d   1      52.217  31.863  53.081  0.00  0.00     0.002 C 
ATOM     18  C   UNL d   1      53.804  32.852  54.231  0.00  0.00     0.000 A 
ATOM     19  C   UNL d   1      53.794  33.623  53.936  0.00  0.00     0.002 A 
ATOM     20  C   UNL d   1      54.359  32.646  54.838  0.00  0.00     0.000 C 
ATOM     21  C   UNL d   1      53.257  33.810  53.355  0.00  0.00     0.018 A 
ATOM     22  C   UNL d   1      53.249  34.578  53.063  0.00  0.00     0.002 C 
ENDBRANCH  13  14
ENDBRANCH  10  13
ENDBRANCH   1  10
BRANCH   2  23
ATOM     23  C   UNL d   1      47.894  35.510  52.219  0.00  0.00     0.069 C 
BRANCH  23  24
ATOM     24  C   UNL d   1      47.364  35.714  51.599  0.00  0.00     0.075 C 
BRANCH  24  25
ATOM     25  C   UNL d   1      47.048  35.122  51.122  0.00  0.00     0.211 C 
ATOM     26  O   UNL d   1      47.542  34.612  50.672  0.00  0.00    -0.644 OA
ATOM     27  O   UNL d   1      46.228  35.012  51.071  0.00  0.00    -0.644 OA
ENDBRANCH  24  25
ENDBRANCH  23  24
ENDBRANCH   2  23
TORSDOF 6
ENDMDL
MODEL 3
REMARK VINA RESULT:      -7.0      1.436      2.338
REMARK  6 active torsions:
REMARK  status: ('A' for Active; 'I' for Inactive)
REMARK    1  A    between atoms: N_2  and  S_1 
REMARK    2  A    between atoms: C_6  and  S_1 
REMARK    3  A    between atoms: C_3  and  N_2 
REMARK       I    between atoms: C_7  and  N_13 
REMARK    4  A    between atoms: C_10  and  C_7 
REMARK    5  A    between atoms: C_12  and  C_10 
REMARK    6  A    between atoms: C_11  and  C_12 
ROOT
ATOM      1  C   UNL d   1      51.960  33.445  53.080  0.00  0.00     0.105 A 
ATOM      2  C   UNL d   1      49.142  35.296  52.901  0.00  0.00     0.280 C 
ATOM      3  N   UNL d   1      49.727  35.217  53.478  0.00  0.00    -0.208 NA
ATOM      4  O   UNL d   1      48.502  35.800  53.011  0.00  0.00    -0.265 OA
ATOM      5  C   UNL d   1      51.906  33.875  53.775  0.00  0.00     0.015 A 
ATOM      6  C   UNL d   1      51.397  33.508  52.500  0.00  0.00     0.015 A 
ATOM      7  C   UNL d   1      50.686  34.459  53.313  0.00  0.00     0.085 A 
ATOM      8  C   UNL d   1      51.263  34.388  53.894  0.00  0.00     0.020 A 
ATOM      9  C   UNL d   1      50.753  34.020  52.616  0.00  0.00     0.020 A 
ENDROOT
BRANCH   1  10
ATOM     10  S   UNL d   1      52.629  32.918  52.965  0.00  0.00     0.285 S 
ATOM     11  O   UNL d   1      52.230  32.530  52.360  0.00  0.00    -0.198 OA
ATOM     12  O   UNL d   1      53.031  33.322  53.588  0.00  0.00    -0.198 OA
BRANCH  10  13
ATOM     13  N   UNL d   1      53.295  32.410  52.868  0.00  0.00    -0.158 NA
BRANCH  13  14
ATOM     14  C   UNL d   1      53.311  31.681  53.244  0.00  0.00     0.094 A 
ATOM     15  C   UNL d   1      53.680  31.605  53.972  0.00  0.00     0.018 A 
ATOM     16  C   UNL d   1      53.688  30.868  54.336  0.00  0.00     0.002 A 
ATOM     17  C   UNL d   1      54.046  32.285  54.339  0.00  0.00     0.002 C 
ATOM     18  C   UNL d   1      53.342  30.236  53.984  0.00  0.00     0.000 A 
ATOM     19  C   UNL d   1      52.967  30.294  53.251  0.00  0.00     0.002 A 
ATOM     20  C   UNL d   1      53.366  29.488  54.381  0.00  0.00     0.000 C 
ATOM     21  C   UNL d   1      52.950  31.016  52.879  0.00  0.00     0.018 A 
ATOM     22  C   UNL d   1      52.575  31.071  52.149  0.00  0.00     0.002 C 
ENDBRANCH  13  14
ENDBRANCH  10  13
ENDBRANCH   1  10
BRANCH   2  23
ATOM     23  C   UNL d   1      49.217  34.848  52.202  0.00  0.00     0.069 C 
BRANCH  23  24
ATOM     24  C   UNL d   1      48.816  35.109  51.512  0.00  0.00     0.075 C 
BRANCH  24  25
ATOM     25  C   UNL d   1      48.436  34.561  51.029  0.00  0.00     0.211 C 
ATOM     26  O   UNL d   1      47.610  34.604  50.882  0.00  0.00    -0.644 OA
ATOM     27  O   UNL d   1      48.862  33.945  50.672  0.00  0.00    -0.644 OA
ENDBRANCH  24  25
ENDBRANCH  23  24
ENDBRANCH   2  23
TORSDOF 6
ENDMDL
MODEL 4
REMARK VINA RESULT:      -6.3      1.782      5.813
REMARK  6 active torsions:
REMARK  status: ('A' for Active; 'I' for Inactive)
REMARK    1  A    between atoms: N_2  and  S_1 
REMARK    2  A    between atoms: C_6  and  S_1 
REMARK    3  A    between atoms: C_3  and  N_2 
REMARK       I    between atoms: C_7  and  N_13 
REMARK    4  A    between atoms: C_10  and  C_7 
REMARK    5  A    between atoms: C_12  and  C_10 
REMARK    6  A    between atoms: C_11  and  C_12 
ROOT
ATOM      1  C   UNL d   1      48.728  35.442  52.697  0.00  0.00     0.105 A 
ATOM      2  C   UNL d   1      51.639  33.742  52.498  0.00  0.00     0.280 C 
ATOM      3  N   UNL d   1      50.925  33.686  52.086  0.00  0.00    -0.208 NA
ATOM      4  O   UNL d   1      52.269  33.243  52.326  0.00  0.00    -0.265 OA
ATOM      5  C   UNL d   1      48.643  34.880  52.107  0.00  0.00     0.015 A 
ATOM      6  C   UNL d   1      49.420  35.514  53.114  0.00  0.00     0.015 A 
ATOM      7  C   UNL d   1      49.981  34.435  52.343  0.00  0.00     0.085 A 
ATOM      8  C   UNL d   1      49.275  34.371  51.927  0.00  0.00     0.020 A 
ATOM      9  C   UNL d   1      50.053  35.007  52.936  0.00  0.00     0.020 A 
ENDROOT
BRANCH   1  10
ATOM     10  S   UNL d   1      48.070  35.964  52.876  0.00  0.00     0.285 S 
ATOM     11  O   UNL d   1      47.670  35.705  52.206  0.00  0.00    -0.198 OA
ATOM     12  O   UNL d   1      48.486  36.224  53.562  0.00  0.00    -0.198 OA
BRANCH  10  13
ATOM     13  N   UNL d   1      47.434  36.482  53.069  0.00  0.00    -0.158 NA
BRANCH  13  14
ATOM     14  C   UNL d   1      46.730  36.177  53.357  0.00  0.00     0.094 A 
ATOM     15  C   UNL d   1      46.112  36.015  52.842  0.00  0.00     0.018 A 
ATOM     16  C   UNL d   1      45.413  35.709  53.146  0.00  0.00     0.002 A 
ATOM     17  C   UNL d   1      46.203  36.166  52.005  0.00  0.00     0.002 C 
ATOM     18  C   UNL d   1      45.337  35.571  53.933  0.00  0.00     0.000 A 
ATOM     19  C   UNL d   1      45.947  35.727  54.466  0.00  0.00     0.002 A 
ATOM     20  C   UNL d   1      44.605  35.255  54.220  0.00  0.00     0.000 C 
ATOM     21  C   UNL d   1      46.646  36.030  54.180  0.00  0.00     0.018 A 
ATOM     22  C   UNL d   1      47.252  36.185  54.714  0.00  0.00     0.002 C 
ENDBRANCH  13  14
ENDBRANCH  10  13
ENDBRANCH   1  10
BRANCH   2  23
ATOM     23  C   UNL d   1      51.703  34.321  53.093  0.00  0.00     0.069 C 
BRANCH  23  24
ATOM     24  C   UNL d   1      52.468  34.587  53.317  0.00  0.00     0.075 C 
BRANCH  24  25
ATOM     25  C   UNL d   1      52.600  34.851  54.086  0.00  0.00     0.211 C 
ATOM     26  O   UNL d   1      52.691  34.313  54.725  0.00  0.00    -0.644 OA
ATOM     27  O   UNL d   1      52.648  35.662  54.251  0.00  0.00    -0.644 OA
ENDBRANCH  24  25
ENDBRANCH  23  24
ENDBRANCH   2  23
TORSDOF 6
ENDMDL
MODEL 5
REMARK VINA RESULT:      -6.0      3.140      4.775
REMARK  6 active torsions:
REMARK  status: ('A' for Active; 'I' for Inactive)
REMARK    1  A    between atoms: N_2  and  S_1 
REMARK    2  A    between atoms: C_6  and  S_1 
REMARK    3  A    between atoms: C_3  and  N_2 
REMARK       I    between atoms: C_7  and  N_13 
REMARK    4  A    between atoms: C_10  and  C_7 
REMARK    5  A    between atoms: C_12  and  C_10 
REMARK    6  A    between atoms: C_11  and  C_12 
ROOT
ATOM      1  C   UNL d   1      52.536  32.264  53.088  0.00  0.00     0.105 A 
ATOM      2  C   UNL d   1      53.037  35.366  54.324  0.00  0.00     0.280 C 
ATOM      3  N   UNL d   1      52.510  35.061  53.765  0.00  0.00    -0.208 NA
ATOM      4  O   UNL d   1      53.033  36.164  54.520  0.00  0.00    -0.265 OA
ATOM      5  C   UNL d   1      51.999  32.762  52.722  0.00  0.00     0.015 A 
ATOM      6  C   UNL d   1      53.062  32.542  53.640  0.00  0.00     0.015 A 
ATOM      7  C   UNL d   1      52.517  33.864  53.471  0.00  0.00     0.085 A 
ATOM      8  C   UNL d   1      51.989  33.570  52.914  0.00  0.00     0.020 A 
ATOM      9  C   UNL d   1      53.053  33.350  53.834  0.00  0.00     0.020 A 
ENDROOT
BRANCH   1  10
ATOM     10  S   UNL d   1      52.540  31.430  52.883  0.00  0.00     0.285 S 
ATOM     11  O   UNL d   1      51.825  31.321  53.274  0.00  0.00    -0.198 OA
ATOM     12  O   UNL d   1      53.274  31.550  52.484  0.00  0.00    -0.198 OA
BRANCH  10  13
ATOM     13  N   UNL d   1      52.563  30.613  52.672  0.00  0.00    -0.158 NA
BRANCH  13  14
ATOM     14  C   UNL d   1      52.798  30.055  53.224  0.00  0.00     0.094 A 
ATOM     15  C   UNL d   1      52.237  29.669  53.681  0.00  0.00     0.018 A 
ATOM     16  C   UNL d   1      52.489  29.111  54.230  0.00  0.00     0.002 A 
ATOM     17  C   UNL d   1      51.407  29.849  53.581  0.00  0.00     0.002 C 
ATOM     18  C   UNL d   1      53.270  28.949  54.316  0.00  0.00     0.000 A 
ATOM     19  C   UNL d   1      53.848  29.327  53.866  0.00  0.00     0.002 A 
ATOM     20  C   UNL d   1      53.501  28.370  54.890  0.00  0.00     0.000 C 
ATOM     21  C   UNL d   1      53.615  29.881  53.318  0.00  0.00     0.018 A 
ATOM     22  C   UNL d   1      54.194  30.256  52.871  0.00  0.00     0.002 C 
ENDBRANCH  13  14
ENDBRANCH  10  13
ENDBRANCH   1  10
BRANCH   2  23
ATOM     23  C   UNL d   1      53.573  34.841  54.684  0.00  0.00     0.069 C 
BRANCH  23  24
ATOM     24  C   UNL d   1      54.174  35.156  55.180  0.00  0.00     0.075 C 
BRANCH  24  25
ATOM     25  C   UNL d   1      54.739  34.653  55.507  0.00  0.00     0.211 C 
ATOM     26  O   UNL d   1      55.470  34.505  55.120  0.00  0.00    -0.644 OA
ATOM     27  O   UNL d   1      54.600  34.277  56.233  0.00  0.00    -0.644 OA
ENDBRANCH  24  25
ENDBRANCH  23  24
ENDBRANCH   2  23
TORSDOF 6
ENDMDL
MODEL 6
REMARK VINA RESULT:      -4.9      3.579      5.519
REMARK  6 active torsions:
REMARK  status: ('A' for Active; 'I' for Inactive)
REMARK    1  A    between atoms: N_2  and  S_1 
REMARK    2  A    between atoms: C_6  and  S_1 
REMARK    3  A    between atoms: C_3  and  N_2 
REMARK       I    between atoms: C_7  and  N_13 
REMARK    4  A    between atoms: C_10  and  C_7 
REMARK    5  A    between atoms: C_12  and  C_10 
REMARK    6  A    between atoms: C_11  and  C_12 
ROOT
ATOM      1  C   UNL d   1      53.442  32.269  53.287  0.00  0.00     0.105 A 
ATOM      2  C   UNL d   1      52.465  29.038  53.347  0.00  0.00     0.280 C 
ATOM      3  N   UNL d   1      52.291  29.669  52.844  0.00  0.00    -0.208 NA
ATOM      4  O   UNL d   1      52.138  28.293  53.224  0.00  0.00    -0.265 OA
ATOM      5  C   UNL d   1      52.936  32.155  52.653  0.00  0.00     0.015 A 
ATOM      6  C   UNL d   1      53.627  31.664  53.794  0.00  0.00     0.015 A 
ATOM      7  C   UNL d   1      52.781  30.785  53.028  0.00  0.00     0.085 A 
ATOM      8  C   UNL d   1      52.602  31.406  52.522  0.00  0.00     0.020 A 
ATOM      9  C   UNL d   1      53.294  30.913  53.665  0.00  0.00     0.020 A 
ENDROOT
BRANCH   1  10
ATOM     10  S   UNL d   1      53.784  33.047  53.416  0.00  0.00     0.285 S 
ATOM     11  O   UNL d   1      53.118  33.403  53.090  0.00  0.00    -0.198 OA
ATOM     12  O   UNL d   1      54.463  32.673  53.749  0.00  0.00    -0.198 OA
BRANCH  10  13
ATOM     13  N   UNL d   1      54.136  33.801  53.550  0.00  0.00    -0.158 NA
BRANCH  13  14
ATOM     14  C   UNL d   1      53.736  34.366  53.991  0.00  0.00     0.094 A 
ATOM     15  C   UNL d   1      53.253  34.911  53.615  0.00  0.00     0.018 A 
ATOM     16  C   UNL d   1      52.859  35.471  54.069  0.00  0.00     0.002 A 
ATOM     17  C   UNL d   1      53.165  34.889  52.764  0.00  0.00     0.002 C 
ATOM     18  C   UNL d   1      52.947  35.483  54.867  0.00  0.00     0.000 A 
ATOM     19  C   UNL d   1      53.430  34.943  55.262  0.00  0.00     0.002 A 
ATOM     20  C   UNL d   1      52.529  36.071  55.311  0.00  0.00     0.000 C 
ATOM     21  C   UNL d   1      53.826  34.383  54.826  0.00  0.00     0.018 A 
ATOM     22  C   UNL d   1      54.306  33.846  55.223  0.00  0.00     0.002 C 
ENDBRANCH  13  14
ENDBRANCH  10  13
ENDBRANCH   1  10
BRANCH   2  23
ATOM     23  C   UNL d   1      52.982  29.177  53.985  0.00  0.00     0.069 C 
BRANCH  23  24
ATOM     24  C   UNL d   1      52.951  28.661  54.648  0.00  0.00     0.075 C 
BRANCH  24  25
ATOM     25  C   UNL d   1      53.608  28.589  55.140  0.00  0.00     0.211 C 
ATOM     26  O   UNL d   1      54.326  28.251  54.864  0.00  0.00    -0.644 OA
ATOM     27  O   UNL d   1      53.578  28.848  55.927  0.00  0.00    -0.644 OA
ENDBRANCH  24  25
ENDBRANCH  23  24
ENDBRANCH   2  23
TORSDOF 6
ENDMDL
