MODEL 1
REMARK VINA RESULT:      47.8      0.000      0.000
REMARK  3 active torsions:
REMARK  status: ('A' for Active; 'I' for Inactive)
REMARK       I    between atoms: N_2  and  C_1 
REMARK    1  A    between atoms: C_3  and  C_1 
REMARK    2  A    between atoms: C_8  and  N_2 
REMARK    3  A    between atoms: C_7  and  C_6 
ROOT
ATOM      1  C   UNL d   1      13.740  13.492  -3.328  0.00  0.00     0.279 C 
ATOM      2  N   UNL d   1      13.866  14.303  -3.381  0.00  0.00    -0.208 NA
ATOM      3  O   UNL d   1      13.422  13.090  -3.979  0.00  0.00    -0.265 OA
ENDROOT
BRANCH   1   4
ATOM      4  C   UNL d   1      13.924  13.070  -2.639  0.00  0.00     0.058 A 
ATOM      5  C   UNL d   1      14.391  13.423  -2.046  0.00  0.00     0.005 A 
ATOM      6  C   UNL d   1      14.558  12.987  -1.378  0.00  0.00     0.000 A 
ATOM      7  C   UNL d   1      15.024  13.331  -0.779  0.00  0.00     0.000 A 
ATOM      8  C   UNL d   1      14.273  12.210  -1.284  0.00  0.00     0.000 A 
ATOM      9  C   UNL d   1      15.195  12.887  -0.096  0.00  0.00     0.000 A 
ATOM     10  C   UNL d   1      14.908  12.118  -0.014  0.00  0.00     0.000 A 
ATOM     11  C   UNL d   1      14.448  11.781  -0.606  0.00  0.00     0.000 A 
ATOM     12  C   UNL d   1      13.818  11.873  -1.868  0.00  0.00     0.000 A 
ATOM     13  C   UNL d   1      13.636  12.301  -2.558  0.00  0.00     0.005 A 
ENDBRANCH   1   4
BRANCH   2  14
ATOM     14  C   UNL d   1      13.680  14.722  -4.072  0.00  0.00     0.085 A 
ATOM     15  C   UNL d   1      14.179  15.290  -4.358  0.00  0.00     0.022 A 
ATOM     16  C   UNL d   1      13.991  15.702  -5.043  0.00  0.00     0.041 A 
ATOM     17  C   UNL d   1      13.299  15.559  -5.463  0.00  0.00     0.003 A 
ATOM     18  C   UNL d   1      12.781  14.982  -5.182  0.00  0.00     0.002 A 
ATOM     19  C   UNL d   1      12.948  14.549  -4.490  0.00  0.00     0.019 A 
BRANCH  16  20
ATOM     20  C   UNL d   1      14.527  16.292  -5.325  0.00  0.00     0.196 C 
ATOM     21  O   UNL d   1      15.191  16.486  -4.889  0.00  0.00    -0.287 OA
ATOM     22  C   UNL d   1      14.368  16.664  -6.040  0.00  0.00     0.045 C 
ENDBRANCH  16  20
ENDBRANCH   2  14
TORSDOF 3
ENDMDL
MODEL 2
REMARK VINA RESULT:      49.2      1.073      4.694
REMARK  3 active torsions:
REMARK  status: ('A' for Active; 'I' for Inactive)
REMARK       I    between atoms: N_2  and  C_1 
REMARK    1  A    between atoms: C_3  and  C_1 
REMARK    2  A    between atoms: C_8  and  N_2 
REMARK    3  A    between atoms: C_7  and  C_6 
ROOT
ATOM      1  C   UNL d   1      13.501  13.539  -3.429  0.00  0.00     0.279 C 
ATOM      2  N   UNL d   1      14.024  13.594  -2.796  0.00  0.00    -0.208 NA
ATOM      3  O   UNL d   1      12.982  12.894  -3.466  0.00  0.00    -0.265 OA
ENDROOT
BRANCH   1   4
ATOM      4  C   UNL d   1      13.483  14.112  -4.026  0.00  0.00     0.058 A 
ATOM      5  C   UNL d   1      14.056  14.716  -4.043  0.00  0.00     0.005 A 
ATOM      6  C   UNL d   1      14.017  15.268  -4.641  0.00  0.00     0.000 A 
ATOM      7  C   UNL d   1      14.586  15.876  -4.666  0.00  0.00     0.000 A 
ATOM      8  C   UNL d   1      13.423  15.235  -5.224  0.00  0.00     0.000 A 
ATOM      9  C   UNL d   1      14.547  16.440  -5.277  0.00  0.00     0.000 A 
ATOM     10  C   UNL d   1      13.953  16.397  -5.848  0.00  0.00     0.000 A 
ATOM     11  C   UNL d   1      13.394  15.797  -5.821  0.00  0.00     0.000 A 
ATOM     12  C   UNL d   1      12.866  14.641  -5.200  0.00  0.00     0.000 A 
ATOM     13  C   UNL d   1      12.890  14.069  -4.597  0.00  0.00     0.005 A 
ENDBRANCH   1   4
BRANCH   2  14
ATOM     14  C   UNL d   1      14.039  13.019  -2.200  0.00  0.00     0.085 A 
ATOM     15  C   UNL d   1      14.552  13.081  -1.578  0.00  0.00     0.022 A 
ATOM     16  C   UNL d   1      14.563  12.508  -0.990  0.00  0.00     0.041 A 
ATOM     17  C   UNL d   1      14.062  11.855  -1.005  0.00  0.00     0.003 A 
ATOM     18  C   UNL d   1      13.535  11.780  -1.634  0.00  0.00     0.002 A 
ATOM     19  C   UNL d   1      13.503  12.347  -2.244  0.00  0.00     0.019 A 
BRANCH  16  20
ATOM     20  C   UNL d   1      15.107  12.592  -0.347  0.00  0.00     0.196 C 
ATOM     21  O   UNL d   1      15.300  13.336  -0.066  0.00  0.00    -0.287 OA
ATOM     22  C   UNL d   1      15.436  11.917  -0.014  0.00  0.00     0.045 C 
ENDBRANCH  16  20
ENDBRANCH   2  14
TORSDOF 3
ENDMDL
MODEL 3
REMARK VINA RESULT:      50.0      2.008      3.317
REMARK  3 active torsions:
REMARK  status: ('A' for Active; 'I' for Inactive)
REMARK       I    between atoms: N_2  and  C_1 
REMARK    1  A    between atoms: C_3  and  C_1 
REMARK    2  A    between atoms: C_8  and  N_2 
REMARK    3  A    between atoms: C_7  and  C_6 
ROOT
ATOM      1  C   UNL d   1      13.993  14.375  -3.184  0.00  0.00     0.279 C 
ATOM      2  N   UNL d   1      13.912  13.612  -2.885  0.00  0.00    -0.208 NA
ATOM      3  O   UNL d   1      13.735  14.533  -3.956  0.00  0.00    -0.265 OA
ENDROOT
BRANCH   1   4
ATOM      4  C   UNL d   1      14.324  14.984  -2.732  0.00  0.00     0.058 A 
ATOM      5  C   UNL d   1      14.575  14.836  -1.951  0.00  0.00     0.005 A 
ATOM      6  C   UNL d   1      14.898  15.452  -1.528  0.00  0.00     0.000 A 
ATOM      7  C   UNL d   1      15.152  15.314  -0.746  0.00  0.00     0.000 A 
ATOM      8  C   UNL d   1      14.979  16.212  -1.859  0.00  0.00     0.000 A 
ATOM      9  C   UNL d   1      15.482  15.943  -0.312  0.00  0.00     0.000 A 
ATOM     10  C   UNL d   1      15.557  16.691  -0.651  0.00  0.00     0.000 A 
ATOM     11  C   UNL d   1      15.306  16.825  -1.422  0.00  0.00     0.000 A 
ATOM     12  C   UNL d   1      14.731  16.348  -2.623  0.00  0.00     0.000 A 
ATOM     13  C   UNL d   1      14.399  15.732  -3.071  0.00  0.00     0.005 A 
ENDBRANCH   1   4
BRANCH   2  14
ATOM     14  C   UNL d   1      13.580  13.005  -3.340  0.00  0.00     0.085 A 
ATOM     15  C   UNL d   1      13.706  12.970  -4.138  0.00  0.00     0.022 A 
ATOM     16  C   UNL d   1      13.375  12.367  -4.585  0.00  0.00     0.041 A 
ATOM     17  C   UNL d   1      12.907  11.779  -4.249  0.00  0.00     0.003 A 
ATOM     18  C   UNL d   1      12.770  11.804  -3.436  0.00  0.00     0.002 A 
ATOM     19  C   UNL d   1      13.094  12.405  -2.959  0.00  0.00     0.019 A 
BRANCH  16  20
ATOM     20  C   UNL d   1      13.520  12.348  -5.418  0.00  0.00     0.196 C 
ATOM     21  O   UNL d   1      14.043  11.804  -5.732  0.00  0.00    -0.287 OA
ATOM     22  C   UNL d   1      13.127  12.884  -5.902  0.00  0.00     0.045 C 
ENDBRANCH  16  20
ENDBRANCH   2  14
TORSDOF 3
ENDMDL
