MODEL 1
REMARK VINA RESULT:      10.2      0.000      0.000
REMARK  5 active torsions:
REMARK  status: ('A' for Active; 'I' for Inactive)
REMARK    1  A    between atoms: S_5  and  C_2 
REMARK    2  A    between atoms: C_16  and  S_5 
REMARK    3  A    between atoms: N_13  and  C_10 
REMARK    4  A    between atoms: C_23  and  N_13 
REMARK    5  A    between atoms: C_18  and  C_23 
ROOT
ATOM      1  C   UNL d   1     -41.797-122.565 -52.544  0.00  0.00     0.198 A 
ATOM      2  C   UNL d   1     -42.007-123.005 -53.206  0.00  0.00     0.227 A 
ATOM      3  N   UNL d   1     -41.868-123.049 -51.882  0.00  0.00    -0.192 N 
ATOM      4  N   UNL d   1     -41.550-121.782 -52.458  0.00  0.00    -0.205 NA
ATOM      5  N   UNL d   1     -42.207-123.760 -52.959  0.00  0.00    -0.115 NA
ATOM      6  N   UNL d   1     -42.123-123.794 -52.139  0.00  0.00    -0.058 NA
ATOM      7  C   UNL d   1     -41.692-122.753 -51.135  0.00  0.00     0.096 A 
ATOM      8  C   UNL d   1     -41.445-121.970 -51.049  0.00  0.00     0.083 A 
ATOM      9  C   UNL d   1     -41.372-121.481 -51.705  0.00  0.00     0.172 A 
ATOM     10  S   UNL d   1     -41.308-121.825 -50.238  0.00  0.00    -0.082 SA
ATOM     11  C   UNL d   1     -41.713-123.106 -50.379  0.00  0.00     0.027 A 
ATOM     12  C   UNL d   1     -41.475-122.530 -49.827  0.00  0.00     0.037 A 
ENDROOT
BRANCH   2  13
ATOM     13  S   UNL d   1     -42.014-122.732 -53.991  0.00  0.00     0.231 S 
ATOM     14  O   UNL d   1     -42.710-122.299 -53.856  0.00  0.00    -0.215 OA
ATOM     15  O   UNL d   1     -41.320-123.166 -54.121  0.00  0.00    -0.215 OA
BRANCH  13  16
ATOM     16  C   UNL d   1     -41.988-122.481 -54.780  0.00  0.00     0.090 A 
ATOM     17  C   UNL d   1     -41.314-122.597 -55.235  0.00  0.00     0.011 A 
ATOM     18  C   UNL d   1     -41.288-122.347 -56.019  0.00  0.00     0.001 A 
ATOM     19  C   UNL d   1     -41.946-121.975 -56.355  0.00  0.00     0.000 A 
ATOM     20  C   UNL d   1     -42.635-121.855 -55.893  0.00  0.00     0.001 A 
ATOM     21  C   UNL d   1     -42.650-122.111 -55.103  0.00  0.00     0.011 A 
ENDBRANCH  13  16
ENDBRANCH   2  13
BRANCH   9  22
ATOM     22  N   UNL d   1     -41.123-120.691 -51.618  0.00  0.00    -0.223 NA
BRANCH  22  23
ATOM     23  C   UNL d   1     -41.132-120.182 -52.266  0.00  0.00     0.125 C 
BRANCH  23  24
ATOM     24  C   UNL d   1     -41.223-119.370 -52.152  0.00  0.00     0.119 A 
ATOM     25  O   UNL d   1     -41.177-118.970 -51.434  0.00  0.00    -0.304 OA
ATOM     26  C   UNL d   1     -41.302-118.164 -51.578  0.00  0.00     0.123 A 
ATOM     27  C   UNL d   1     -41.427-118.064 -52.388  0.00  0.00     0.029 A 
ATOM     28  C   UNL d   1     -41.378-118.809 -52.742  0.00  0.00     0.028 A 
ENDBRANCH  23  24
ENDBRANCH  22  23
ENDBRANCH   9  22
TORSDOF 5
ENDMDL
MODEL 2
REMARK VINA RESULT:      12.8      1.449      3.046
REMARK  5 active torsions:
REMARK  status: ('A' for Active; 'I' for Inactive)
REMARK    1  A    between atoms: S_5  and  C_2 
REMARK    2  A    between atoms: C_16  and  S_5 
REMARK    3  A    between atoms: N_13  and  C_10 
REMARK    4  A    between atoms: C_23  and  N_13 
REMARK    5  A    between atoms: C_18  and  C_23 
ROOT
ATOM      1  C   UNL d   1     -41.716-121.397 -52.952  0.00  0.00     0.198 A 
ATOM      2  C   UNL d   1     -41.825-121.294 -53.761  0.00  0.00     0.227 A 
ATOM      3  N   UNL d   1     -41.532-120.665 -52.624  0.00  0.00    -0.192 N 
ATOM      4  N   UNL d   1     -41.761-122.066 -52.471  0.00  0.00    -0.205 NA
ATOM      5  N   UNL d   1     -41.710-120.503 -53.937  0.00  0.00    -0.115 NA
ATOM      6  N   UNL d   1     -41.527-120.107 -53.236  0.00  0.00    -0.058 NA
ATOM      7  C   UNL d   1     -41.392-120.600 -51.816  0.00  0.00     0.096 A 
ATOM      8  C   UNL d   1     -41.437-121.269 -51.335  0.00  0.00     0.083 A 
ATOM      9  C   UNL d   1     -41.620-122.003 -51.656  0.00  0.00     0.172 A 
ATOM     10  S   UNL d   1     -41.271-121.039 -50.550  0.00  0.00    -0.082 SA
ATOM     11  C   UNL d   1     -41.198-119.945 -51.338  0.00  0.00     0.027 A 
ATOM     12  C   UNL d   1     -41.124-120.219 -50.555  0.00  0.00     0.037 A 
ENDROOT
BRANCH   2  13
ATOM     13  S   UNL d   1     -42.019-121.891 -54.307  0.00  0.00     0.231 S 
ATOM     14  O   UNL d   1     -41.325-122.310 -54.127  0.00  0.00    -0.215 OA
ATOM     15  O   UNL d   1     -42.710-121.469 -54.482  0.00  0.00    -0.215 OA
BRANCH  13  16
ATOM     16  C   UNL d   1     -42.246-122.464 -54.859  0.00  0.00     0.090 A 
ATOM     17  C   UNL d   1     -42.010-123.247 -54.772  0.00  0.00     0.011 A 
ATOM     18  C   UNL d   1     -42.236-123.817 -55.321  0.00  0.00     0.001 A 
ATOM     19  C   UNL d   1     -42.705-123.603 -55.969  0.00  0.00     0.000 A 
ATOM     20  C   UNL d   1     -42.946-122.806 -56.061  0.00  0.00     0.001 A 
ATOM     21  C   UNL d   1     -42.713-122.239 -55.500  0.00  0.00     0.011 A 
ENDBRANCH  13  16
ENDBRANCH   2  13
BRANCH   9  22
ATOM     22  N   UNL d   1     -41.666-122.677 -51.169  0.00  0.00    -0.223 NA
BRANCH  22  23
ATOM     23  C   UNL d   1     -42.392-123.044 -51.038  0.00  0.00     0.125 C 
BRANCH  23  24
ATOM     24  C   UNL d   1     -42.576-123.341 -50.290  0.00  0.00     0.119 A 
ATOM     25  O   UNL d   1     -42.039-123.544 -49.701  0.00  0.00    -0.304 OA
ATOM     26  C   UNL d   1     -42.466-123.817 -49.045  0.00  0.00     0.123 A 
ATOM     27  C   UNL d   1     -43.269-123.782 -49.229  0.00  0.00     0.029 A 
ATOM     28  C   UNL d   1     -43.337-123.488 -49.999  0.00  0.00     0.028 A 
ENDBRANCH  23  24
ENDBRANCH  22  23
ENDBRANCH   9  22
TORSDOF 5
ENDMDL
MODEL 3
REMARK VINA RESULT:      13.1      1.214      3.608
REMARK  5 active torsions:
REMARK  status: ('A' for Active; 'I' for Inactive)
REMARK    1  A    between atoms: S_5  and  C_2 
REMARK    2  A    between atoms: C_16  and  S_5 
REMARK    3  A    between atoms: N_13  and  C_10 
REMARK    4  A    between atoms: C_23  and  N_13 
REMARK    5  A    between atoms: C_18  and  C_23 
ROOT
ATOM      1  C   UNL d   1     -41.767-122.536 -52.642  0.00  0.00     0.198 A 
ATOM      2  C   UNL d   1     -41.904-123.111 -52.069  0.00  0.00     0.227 A 
ATOM      3  N   UNL d   1     -41.848-122.889 -53.381  0.00  0.00    -0.192 N 
ATOM      4  N   UNL d   1     -41.580-121.734 -52.585  0.00  0.00    -0.205 NA
ATOM      5  N   UNL d   1     -42.068-123.818 -52.448  0.00  0.00    -0.115 NA
ATOM      6  N   UNL d   1     -42.035-123.687 -53.262  0.00  0.00    -0.058 NA
ATOM      7  C   UNL d   1     -41.741-122.442 -54.063  0.00  0.00     0.096 A 
ATOM      8  C   UNL d   1     -41.554-121.641 -54.007  0.00  0.00     0.083 A 
ATOM      9  C   UNL d   1     -41.472-121.282 -53.272  0.00  0.00     0.172 A 
ATOM     10  S   UNL d   1     -41.479-121.333 -54.779  0.00  0.00    -0.082 SA
ATOM     11  C   UNL d   1     -41.786-122.644 -54.871  0.00  0.00     0.027 A 
ATOM     12  C   UNL d   1     -41.623-121.957 -55.312  0.00  0.00     0.037 A 
ENDROOT
BRANCH   2  13
ATOM     13  S   UNL d   1     -41.879-122.994 -51.246  0.00  0.00     0.231 S 
ATOM     14  O   UNL d   1     -41.135-122.627 -51.299  0.00  0.00    -0.215 OA
ATOM     15  O   UNL d   1     -42.621-123.360 -51.198  0.00  0.00    -0.215 OA
BRANCH  13  16
ATOM     16  C   UNL d   1     -41.891-122.896 -50.424  0.00  0.00     0.090 A 
ATOM     17  C   UNL d   1     -42.558-122.602 -50.046  0.00  0.00     0.011 A 
ATOM     18  C   UNL d   1     -42.570-122.504 -49.228  0.00  0.00     0.001 A 
ATOM     19  C   UNL d   1     -41.902-122.703 -48.780  0.00  0.00     0.000 A 
ATOM     20  C   UNL d   1     -41.220-123.002 -49.163  0.00  0.00     0.001 A 
ATOM     21  C   UNL d   1     -41.220-123.097 -49.988  0.00  0.00     0.011 A 
ENDBRANCH  13  16
ENDBRANCH   2  13
BRANCH   9  22
ATOM     22  N   UNL d   1     -41.283-120.473 -53.215  0.00  0.00    -0.223 NA
BRANCH  22  23
ATOM     23  C   UNL d   1     -41.645-120.003 -52.643  0.00  0.00     0.125 C 
BRANCH  23  24
ATOM     24  C   UNL d   1     -41.469-119.199 -52.596  0.00  0.00     0.119 A 
ATOM     25  O   UNL d   1     -41.481-118.661 -53.218  0.00  0.00    -0.304 OA
ATOM     26  C   UNL d   1     -41.267-117.917 -52.920  0.00  0.00     0.123 A 
ATOM     27  C   UNL d   1     -41.123-117.996 -52.112  0.00  0.00     0.029 A 
ATOM     28  C   UNL d   1     -41.247-118.788 -51.912  0.00  0.00     0.028 A 
ENDBRANCH  23  24
ENDBRANCH  22  23
ENDBRANCH   9  22
TORSDOF 5
ENDMDL
