MODEL 1
REMARK VINA RESULT:       1.1      0.000      0.000
REMARK  3 active torsions:
REMARK  status: ('A' for Active; 'I' for Inactive)
REMARK    1  A    between atoms: C_13  and  N_6 
REMARK    2  A    between atoms: C_16  and  C_10 
REMARK    3  A    between atoms: O_19  and  C_17 
ROOT
ATOM      1  C   UNL d   1      59.659  -2.175  29.090  0.00  0.00     0.722 A 
ATOM      2  C   UNL d   1      59.991  -3.432  28.829  0.00  0.00     0.191 A 
ATOM      3  N   UNL d   1      60.282  -2.676  28.873  0.00  0.00    -0.042 NA
ATOM      4  N   UNL d   1      58.999  -2.634  29.175  0.00  0.00    -0.131 N 
ATOM      5  C   UNL d   1      59.192  -3.406  29.017  0.00  0.00     0.174 A 
ATOM      6  N   UNL d   1      59.466  -1.390  29.250  0.00  0.00    -0.138 N 
ATOM      7  N   UNL d   1      60.346  -4.146  28.642  0.00  0.00    -0.239 N 
ATOM      8  C   UNL d   1      59.901  -4.848  28.642  0.00  0.00     0.358 A 
ATOM      9  N   UNL d   1      59.102  -4.822  28.830  0.00  0.00    -0.152 NA
ATOM     10  C   UNL d   1      58.691  -1.353  29.434  0.00  0.00     0.100 A 
ATOM     11  C   UNL d   1      58.736  -4.094  29.022  0.00  0.00     0.303 A 
ATOM     12  C   UNL d   1      58.376  -2.120  29.394  0.00  0.00     0.116 A 
ATOM     13  O   UNL d   1      60.256  -5.563  28.455  0.00  0.00    -0.244 OA
ATOM     14  O   UNL d   1      57.948  -4.068  29.208  0.00  0.00    -0.263 OA
ATOM     15  C   UNL d   1      61.133  -4.172  28.457  0.00  0.00     0.105 C 
ENDROOT
BRANCH   6  16
ATOM     16  C   UNL d   1      59.992  -0.753  29.222  0.00  0.00     0.103 A 
ATOM     17  C   UNL d   1      60.483  -0.591  29.868  0.00  0.00     0.111 A 
ATOM     18  C   UNL d   1      60.997   0.033  29.839  0.00  0.00     0.026 A 
ATOM     19  C   UNL d   1      61.040   0.512  29.173  0.00  0.00     0.002 A 
ATOM     20  C   UNL d   1      60.548   0.350  28.527  0.00  0.00     0.002 A 
ATOM     21  C   UNL d   1      60.023  -0.287  28.555  0.00  0.00     0.020 A 
BRANCH  17  22
ATOM     22  O   UNL d   1      60.662  -0.864  30.619  0.00  0.00    -0.327 OA
ATOM     23  C   UNL d   1      61.124  -0.415  31.133  0.00  0.00     0.181 C 
ENDBRANCH  17  22
ENDBRANCH   6  16
BRANCH  10  24
ATOM     24  C   UNL d   1      58.262  -0.672  29.633  0.00  0.00     0.018 A 
ATOM     25  C   UNL d   1      58.104  -0.094  29.065  0.00  0.00     0.002 A 
ATOM     26  C   UNL d   1      57.683   0.572  29.262  0.00  0.00     0.000 A 
ATOM     27  C   UNL d   1      57.407   0.681  30.037  0.00  0.00     0.000 A 
ATOM     28  C   UNL d   1      57.565   0.104  30.605  0.00  0.00     0.000 A 
ATOM     29  C   UNL d   1      57.994  -0.577  30.406  0.00  0.00     0.002 A 
ENDBRANCH  10  24
TORSDOF 3
ENDMDL
MODEL 2
REMARK VINA RESULT:       3.2      2.485      4.456
REMARK  3 active torsions:
REMARK  status: ('A' for Active; 'I' for Inactive)
REMARK    1  A    between atoms: C_13  and  N_6 
REMARK    2  A    between atoms: C_16  and  C_10 
REMARK    3  A    between atoms: O_19  and  C_17 
ROOT
ATOM      1  C   UNL d   1      57.764  -0.671  31.161  0.00  0.00     0.722 A 
ATOM      2  C   UNL d   1      56.823  -0.739  32.094  0.00  0.00     0.191 A 
ATOM      3  N   UNL d   1      57.041  -1.021  31.365  0.00  0.00    -0.042 NA
ATOM      4  N   UNL d   1      57.974  -0.182  31.770  0.00  0.00    -0.131 N 
ATOM      5  C   UNL d   1      57.404  -0.217  32.346  0.00  0.00     0.174 A 
ATOM      6  N   UNL d   1      58.340  -0.638  30.574  0.00  0.00    -0.138 N 
ATOM      7  N   UNL d   1      56.171  -0.888  32.567  0.00  0.00    -0.239 N 
ATOM      8  C   UNL d   1      56.093  -0.511  33.303  0.00  0.00     0.358 A 
ATOM      9  N   UNL d   1      56.674   0.012  33.555  0.00  0.00    -0.152 NA
ATOM     10  C   UNL d   1      58.910  -0.132  30.809  0.00  0.00     0.100 A 
ATOM     11  C   UNL d   1      57.342   0.166  33.075  0.00  0.00     0.303 A 
ATOM     12  C   UNL d   1      58.704   0.167  31.555  0.00  0.00     0.116 A 
ATOM     13  O   UNL d   1      55.440  -0.659  33.777  0.00  0.00    -0.244 OA
ATOM     14  O   UNL d   1      57.915   0.681  33.323  0.00  0.00    -0.263 OA
ATOM     15  C   UNL d   1      55.598  -1.403  32.319  0.00  0.00     0.105 C 
ENDROOT
BRANCH   6  16
ATOM     16  C   UNL d   1      58.324  -1.060  29.864  0.00  0.00     0.103 A 
ATOM     17  C   UNL d   1      58.551  -1.856  29.849  0.00  0.00     0.111 A 
ATOM     18  C   UNL d   1      58.535  -2.267  29.152  0.00  0.00     0.026 A 
ATOM     19  C   UNL d   1      58.296  -1.906  28.455  0.00  0.00     0.002 A 
ATOM     20  C   UNL d   1      58.069  -1.110  28.471  0.00  0.00     0.002 A 
ATOM     21  C   UNL d   1      58.085  -0.687  29.181  0.00  0.00     0.020 A 
BRANCH  17  22
ATOM     22  O   UNL d   1      58.819  -2.453  30.340  0.00  0.00    -0.327 OA
ATOM     23  C   UNL d   1      59.169  -3.131  30.029  0.00  0.00     0.181 C 
ENDBRANCH  17  22
ENDBRANCH   6  16
BRANCH  10  24
ATOM     24  C   UNL d   1      59.597   0.069  30.389  0.00  0.00     0.018 A 
ATOM     25  C   UNL d   1      59.547   0.486  29.678  0.00  0.00     0.002 A 
ATOM     26  C   UNL d   1      60.220   0.682  29.268  0.00  0.00     0.000 A 
ATOM     27  C   UNL d   1      60.967   0.466  29.558  0.00  0.00     0.000 A 
ATOM     28  C   UNL d   1      61.017   0.049  30.269  0.00  0.00     0.000 A 
ATOM     29  C   UNL d   1      60.331  -0.152  30.689  0.00  0.00     0.002 A 
ENDBRANCH  10  24
TORSDOF 3
ENDMDL
MODEL 3
REMARK VINA RESULT:       4.0      0.920      2.429
REMARK  3 active torsions:
REMARK  status: ('A' for Active; 'I' for Inactive)
REMARK    1  A    between atoms: C_13  and  N_6 
REMARK    2  A    between atoms: C_16  and  C_10 
REMARK    3  A    between atoms: O_19  and  C_17 
ROOT
ATOM      1  C   UNL d   1      58.630  -2.088  29.154  0.00  0.00     0.722 A 
ATOM      2  C   UNL d   1      58.204  -3.319  28.906  0.00  0.00     0.191 A 
ATOM      3  N   UNL d   1      57.958  -2.569  29.095  0.00  0.00    -0.042 NA
ATOM      4  N   UNL d   1      59.274  -2.553  29.000  0.00  0.00    -0.131 N 
ATOM      5  C   UNL d   1      59.023  -3.309  28.847  0.00  0.00     0.174 A 
ATOM      6  N   UNL d   1      58.882  -1.319  29.310  0.00  0.00    -0.138 N 
ATOM      7  N   UNL d   1      57.791  -4.015  28.779  0.00  0.00    -0.239 N 
ATOM      8  C   UNL d   1      58.198  -4.714  28.589  0.00  0.00     0.358 A 
ATOM      9  N   UNL d   1      59.017  -4.704  28.531  0.00  0.00    -0.152 NA
ATOM     10  C   UNL d   1      59.677  -1.298  29.255  0.00  0.00     0.100 A 
ATOM     11  C   UNL d   1      59.442  -3.995  28.660  0.00  0.00     0.303 A 
ATOM     12  C   UNL d   1      59.946  -2.059  29.062  0.00  0.00     0.116 A 
ATOM     13  O   UNL d   1      57.786  -5.412  28.462  0.00  0.00    -0.244 OA
ATOM     14  O   UNL d   1      60.250  -3.985  28.602  0.00  0.00    -0.263 OA
ATOM     15  C   UNL d   1      56.984  -4.025  28.837  0.00  0.00     0.105 C 
ENDROOT
BRANCH   6  16
ATOM     16  C   UNL d   1      58.388  -0.682  29.491  0.00  0.00     0.103 A 
ATOM     17  C   UNL d   1      58.073  -0.604  30.253  0.00  0.00     0.111 A 
ATOM     18  C   UNL d   1      57.590   0.020  30.429  0.00  0.00     0.026 A 
ATOM     19  C   UNL d   1      57.405   0.583  29.860  0.00  0.00     0.002 A 
ATOM     20  C   UNL d   1      57.720   0.504  29.098  0.00  0.00     0.002 A 
ATOM     21  C   UNL d   1      58.213  -0.132  28.916  0.00  0.00     0.020 A 
BRANCH  17  22
ATOM     22  O   UNL d   1      58.072  -0.972  30.984  0.00  0.00    -0.327 OA
ATOM     23  C   UNL d   1      57.400  -0.959  31.462  0.00  0.00     0.181 C 
ENDBRANCH  17  22
ENDBRANCH   6  16
BRANCH  10  24
ATOM     24  C   UNL d   1      60.163  -0.635  29.369  0.00  0.00     0.018 A 
ATOM     25  C   UNL d   1      60.340  -0.131  28.740  0.00  0.00     0.002 A 
ATOM     26  C   UNL d   1      60.816   0.517  28.854  0.00  0.00     0.000 A 
ATOM     27  C   UNL d   1      61.132   0.681  29.604  0.00  0.00     0.000 A 
ATOM     28  C   UNL d   1      60.955   0.177  30.233  0.00  0.00     0.000 A 
ATOM     29  C   UNL d   1      60.469  -0.486  30.119  0.00  0.00     0.002 A 
ENDBRANCH  10  24
TORSDOF 3
ENDMDL
