MODEL 1
REMARK VINA RESULT:      13.4      0.000      0.000
REMARK  5 active torsions:
REMARK  status: ('A' for Active; 'I' for Inactive)
REMARK    1  A    between atoms: C_2  and  C_3 
REMARK    2  A    between atoms: N_4  and  C_2 
REMARK    3  A    between atoms: C_10  and  N_4 
REMARK    4  A    between atoms: O_16  and  C_11 
REMARK    5  A    between atoms: C_19  and  O_16 
ROOT
ATOM      1  C   UNL d   1      46.108 -17.142  44.160  0.00  0.00     0.153 C 
ATOM      2  S   UNL d   1      46.285 -16.991  44.954  0.00  0.00    -0.056 SA
ENDROOT
BRANCH   1   3
ATOM      3  C   UNL d   1      46.227 -17.900  43.855  0.00  0.00     0.109 A 
ATOM      4  N   UNL d   1      46.209 -18.027  43.034  0.00  0.00    -0.243 NA
ATOM      5  C   UNL d   1      46.327 -18.784  42.730  0.00  0.00     0.081 A 
ATOM      6  C   UNL d   1      46.465 -19.419  43.241  0.00  0.00     0.018 A 
ATOM      7  C   UNL d   1      46.309 -18.907  41.916  0.00  0.00     0.019 A 
ATOM      8  C   UNL d   1      46.486 -19.302  44.062  0.00  0.00     0.003 A 
ATOM      9  C   UNL d   1      46.584 -20.175  42.938  0.00  0.00     0.002 A 
ATOM     10  C   UNL d   1      46.366 -18.541  44.372  0.00  0.00     0.021 A 
ATOM     11  C   UNL d   1      46.565 -20.299  42.122  0.00  0.00     0.000 A 
ATOM     12  C   UNL d   1      46.427 -19.664  41.611  0.00  0.00     0.002 A 
ENDBRANCH   1   3
BRANCH   1  13
ATOM     13  N   UNL d   1      45.815 -16.542  43.673  0.00  0.00    -0.233 NA
BRANCH  13  14
ATOM     14  C   UNL d   1      45.736 -15.772  43.969  0.00  0.00     0.083 A 
ATOM     15  C   UNL d   1      46.387 -15.264  43.959  0.00  0.00     0.021 A 
ATOM     16  C   UNL d   1      46.303 -14.499  44.255  0.00  0.00     0.026 A 
ATOM     17  C   UNL d   1      45.578 -14.244  44.556  0.00  0.00     0.100 A 
ATOM     18  C   UNL d   1      44.930 -14.762  44.561  0.00  0.00     0.026 A 
ATOM     19  C   UNL d   1      45.008 -15.526  44.267  0.00  0.00     0.021 A 
BRANCH  17  20
ATOM     20  O   UNL d   1      45.498 -13.472  44.852  0.00  0.00    -0.305 OA
BRANCH  20  21
ATOM     21  C   UNL d   1      45.501 -12.830  44.332  0.00  0.00     0.123 C 
ATOM     22  C   UNL d   1      45.738 -12.089  44.600  0.00  0.00     0.029 C 
ENDBRANCH  20  21
ENDBRANCH  17  20
ENDBRANCH  13  14
ENDBRANCH   1  13
TORSDOF 5
ENDMDL
