MODEL 1
REMARK VINA RESULT:      -2.4      0.000      0.000
REMARK  1 active torsions:
REMARK  status: ('A' for Active; 'I' for Inactive)
REMARK    1  A    between atoms: C_9  and  C_3 
ROOT
ATOM      1  C   UNL d   1      59.604  -1.229  29.020  0.00  0.00     0.035 A 
ATOM      2  N   UNL d   1      58.372  -2.031  29.285  0.00  0.00    -0.239 NA
ATOM      3  C   UNL d   1      58.842  -1.331  29.279  0.00  0.00     0.083 A 
ATOM      4  N   UNL d   1      59.984  -2.620  28.544  0.00  0.00    -0.207 NA
ATOM      5  C   UNL d   1      60.119  -1.806  28.690  0.00  0.00     0.086 A 
ATOM      6  C   UNL d   1      59.299  -3.054  28.694  0.00  0.00     0.298 A 
ATOM      7  C   UNL d   1      59.848  -0.474  29.112  0.00  0.00     0.003 A 
ATOM      8  C   UNL d   1      58.576  -2.780  29.029  0.00  0.00     0.161 A 
ATOM      9  C   UNL d   1      60.879  -1.593  28.458  0.00  0.00     0.019 A 
ATOM     10  O   UNL d   1      59.331  -3.869  28.486  0.00  0.00    -0.263 OA
ATOM     11  C   UNL d   1      60.620  -0.252  28.878  0.00  0.00     0.000 A 
ATOM     12  C   UNL d   1      61.133  -0.822  28.550  0.00  0.00     0.002 A 
ATOM     13  C   UNL d   1      60.856   0.564  28.987  0.00  0.00     0.000 C 
ENDROOT
BRANCH   3  14
ATOM     14  C   UNL d   1      58.481  -0.664  29.574  0.00  0.00     0.018 A 
ATOM     15  C   UNL d   1      58.142  -0.113  29.076  0.00  0.00     0.002 A 
ATOM     16  C   UNL d   1      57.768   0.579  29.390  0.00  0.00     0.000 A 
ATOM     17  C   UNL d   1      57.755   0.682  30.208  0.00  0.00     0.000 A 
ATOM     18  C   UNL d   1      58.098   0.125  30.703  0.00  0.00     0.000 A 
ATOM     19  C   UNL d   1      58.465  -0.554  30.381  0.00  0.00     0.002 A 
ENDBRANCH   3  14
TORSDOF 1
ENDMDL
MODEL 2
REMARK VINA RESULT:      -2.3      3.070      4.578
REMARK  1 active torsions:
REMARK  status: ('A' for Active; 'I' for Inactive)
REMARK    1  A    between atoms: C_9  and  C_3 
ROOT
ATOM      1  C   UNL d   1      57.405   0.277  32.490  0.00  0.00     0.035 A 
ATOM      2  N   UNL d   1      56.519  -0.070  31.339  0.00  0.00    -0.239 NA
ATOM      3  C   UNL d   1      56.696   0.081  32.150  0.00  0.00     0.083 A 
ATOM      4  N   UNL d   1      58.349   0.310  31.302  0.00  0.00    -0.207 NA
ATOM      5  C   UNL d   1      58.149   0.381  32.112  0.00  0.00     0.086 A 
ATOM      6  C   UNL d   1      57.851   0.118  30.673  0.00  0.00     0.298 A 
ATOM      7  C   UNL d   1      57.336   0.373  33.281  0.00  0.00     0.003 A 
ATOM      8  C   UNL d   1      57.027  -0.052  30.699  0.00  0.00     0.161 A 
ATOM      9  C   UNL d   1      58.810   0.583  32.557  0.00  0.00     0.019 A 
ATOM     10  O   UNL d   1      58.217   0.089  29.915  0.00  0.00    -0.263 OA
ATOM     11  C   UNL d   1      58.007   0.578  33.738  0.00  0.00     0.000 A 
ATOM     12  C   UNL d   1      58.746   0.682  33.366  0.00  0.00     0.002 A 
ATOM     13  C   UNL d   1      57.904   0.674  34.583  0.00  0.00     0.000 C 
ENDROOT
BRANCH   3  14
ATOM     14  C   UNL d   1      56.067   0.020  32.663  0.00  0.00     0.018 A 
ATOM     15  C   UNL d   1      55.654   0.682  32.905  0.00  0.00     0.002 A 
ATOM     16  C   UNL d   1      55.001   0.611  33.439  0.00  0.00     0.000 A 
ATOM     17  C   UNL d   1      54.792  -0.141  33.707  0.00  0.00     0.000 A 
ATOM     18  C   UNL d   1      55.211  -0.801  33.460  0.00  0.00     0.000 A 
ATOM     19  C   UNL d   1      55.854  -0.719  32.933  0.00  0.00     0.002 A 
ENDBRANCH   3  14
TORSDOF 1
ENDMDL
MODEL 3
REMARK VINA RESULT:      -2.2      4.271      5.969
REMARK  1 active torsions:
REMARK  status: ('A' for Active; 'I' for Inactive)
REMARK    1  A    between atoms: C_9  and  C_3 
ROOT
ATOM      1  C   UNL d   1      56.398   0.355  33.748  0.00  0.00     0.035 A 
ATOM      2  N   UNL d   1      55.124   0.148  32.996  0.00  0.00    -0.239 NA
ATOM      3  C   UNL d   1      55.962   0.190  33.085  0.00  0.00     0.083 A 
ATOM      4  N   UNL d   1      55.329   0.573  34.805  0.00  0.00    -0.207 NA
ATOM      5  C   UNL d   1      56.116   0.527  34.522  0.00  0.00     0.086 A 
ATOM      6  C   UNL d   1      54.632   0.456  34.381  0.00  0.00     0.298 A 
ATOM      7  C   UNL d   1      57.182   0.341  33.596  0.00  0.00     0.003 A 
ATOM      8  C   UNL d   1      54.549   0.265  33.564  0.00  0.00     0.161 A 
ATOM      9  C   UNL d   1      56.651   0.681  35.128  0.00  0.00     0.019 A 
ATOM     10  O   UNL d   1      53.919   0.540  34.821  0.00  0.00    -0.263 OA
ATOM     11  C   UNL d   1      57.730   0.497  34.210  0.00  0.00     0.000 A 
ATOM     12  C   UNL d   1      57.454   0.668  34.978  0.00  0.00     0.002 A 
ATOM     13  C   UNL d   1      58.565   0.474  34.020  0.00  0.00     0.000 C 
ENDROOT
BRANCH   3  14
ATOM     14  C   UNL d   1      56.394   0.045  32.410  0.00  0.00     0.018 A 
ATOM     15  C   UNL d   1      56.621   0.655  31.916  0.00  0.00     0.002 A 
ATOM     16  C   UNL d   1      57.070   0.496  31.216  0.00  0.00     0.000 A 
ATOM     17  C   UNL d   1      57.271  -0.285  31.046  0.00  0.00     0.000 A 
ATOM     18  C   UNL d   1      57.039  -0.893  31.546  0.00  0.00     0.000 A 
ATOM     19  C   UNL d   1      56.596  -0.724  32.235  0.00  0.00     0.002 A 
ENDBRANCH   3  14
TORSDOF 1
ENDMDL
MODEL 4
REMARK VINA RESULT:      -2.2      1.603      2.787
REMARK  1 active torsions:
REMARK  status: ('A' for Active; 'I' for Inactive)
REMARK    1  A    between atoms: C_9  and  C_3 
ROOT
ATOM      1  C   UNL d   1      58.915  -1.107  29.651  0.00  0.00     0.035 A 
ATOM      2  N   UNL d   1      58.577   0.201  30.288  0.00  0.00    -0.239 NA
ATOM      3  C   UNL d   1      59.046  -0.327  29.826  0.00  0.00     0.083 A 
ATOM      4  N   UNL d   1      57.605  -1.394  30.363  0.00  0.00    -0.207 NA
ATOM      5  C   UNL d   1      58.269  -1.589  29.891  0.00  0.00     0.086 A 
ATOM      6  C   UNL d   1      57.427  -0.668  30.710  0.00  0.00     0.298 A 
ATOM      7  C   UNL d   1      59.497  -1.409  29.194  0.00  0.00     0.003 A 
ATOM      8  C   UNL d   1      57.872   0.047  30.671  0.00  0.00     0.161 A 
ATOM      9  C   UNL d   1      58.235  -2.377  29.654  0.00  0.00     0.019 A 
ATOM     10  O   UNL d   1      56.714  -0.642  31.157  0.00  0.00    -0.263 OA
ATOM     11  C   UNL d   1      59.466  -2.210  28.951  0.00  0.00     0.000 A 
ATOM     12  C   UNL d   1      58.827  -2.690  29.187  0.00  0.00     0.002 A 
ATOM     13  C   UNL d   1      60.104  -2.507  28.462  0.00  0.00     0.000 C 
ENDROOT
BRANCH   3  14
ATOM     14  C   UNL d   1      59.726  -0.007  29.512  0.00  0.00     0.018 A 
ATOM     15  C   UNL d   1      59.726   0.344  28.775  0.00  0.00     0.002 A 
ATOM     16  C   UNL d   1      60.437   0.674  28.455  0.00  0.00     0.000 A 
ATOM     17  C   UNL d   1      61.127   0.631  28.905  0.00  0.00     0.000 A 
ATOM     18  C   UNL d   1      61.120   0.277  29.645  0.00  0.00     0.000 A 
ATOM     19  C   UNL d   1      60.412  -0.045  29.950  0.00  0.00     0.002 A 
ENDBRANCH   3  14
TORSDOF 1
ENDMDL
MODEL 5
REMARK VINA RESULT:      -2.0      0.814      2.395
REMARK  1 active torsions:
REMARK  status: ('A' for Active; 'I' for Inactive)
REMARK    1  A    between atoms: C_9  and  C_3 
ROOT
ATOM      1  C   UNL d   1      58.863  -1.094  29.667  0.00  0.00     0.035 A 
ATOM      2  N   UNL d   1      59.735  -1.909  28.769  0.00  0.00    -0.239 NA
ATOM      3  C   UNL d   1      59.514  -1.218  29.200  0.00  0.00     0.083 A 
ATOM      4  N   UNL d   1      58.129  -2.419  29.578  0.00  0.00    -0.207 NA
ATOM      5  C   UNL d   1      58.240  -1.631  29.838  0.00  0.00     0.086 A 
ATOM      6  C   UNL d   1      58.617  -2.861  29.082  0.00  0.00     0.298 A 
ATOM      7  C   UNL d   1      58.860  -0.357  29.977  0.00  0.00     0.003 A 
ATOM      8  C   UNL d   1      59.340  -2.623  28.721  0.00  0.00     0.161 A 
ATOM      9  C   UNL d   1      57.622  -1.399  30.329  0.00  0.00     0.019 A 
ATOM     10  O   UNL d   1      58.357  -3.645  28.919  0.00  0.00    -0.263 OA
ATOM     11  C   UNL d   1      58.233  -0.117  30.478  0.00  0.00     0.000 A 
ATOM     12  C   UNL d   1      57.613  -0.647  30.650  0.00  0.00     0.002 A 
ATOM     13  C   UNL d   1      58.255   0.678  30.797  0.00  0.00     0.000 C 
ENDROOT
BRANCH   3  14
ATOM     14  C   UNL d   1      60.026  -0.588  29.138  0.00  0.00     0.018 A 
ATOM     15  C   UNL d   1      59.970  -0.059  28.518  0.00  0.00     0.002 A 
ATOM     16  C   UNL d   1      60.506   0.594  28.460  0.00  0.00     0.000 A 
ATOM     17  C   UNL d   1      61.083   0.682  29.043  0.00  0.00     0.000 A 
ATOM     18  C   UNL d   1      61.133   0.147  29.663  0.00  0.00     0.000 A 
ATOM     19  C   UNL d   1      60.598  -0.494  29.709  0.00  0.00     0.002 A 
ENDBRANCH   3  14
TORSDOF 1
ENDMDL
MODEL 6
REMARK VINA RESULT:      -1.9      1.656      2.957
REMARK  1 active torsions:
REMARK  status: ('A' for Active; 'I' for Inactive)
REMARK    1  A    between atoms: C_9  and  C_3 
ROOT
ATOM      1  C   UNL d   1      58.887  -0.726  29.686  0.00  0.00     0.035 A 
ATOM      2  N   UNL d   1      57.819  -1.569  30.303  0.00  0.00    -0.239 NA
ATOM      3  C   UNL d   1      58.498  -1.425  29.824  0.00  0.00     0.083 A 
ATOM      4  N   UNL d   1      58.088   0.269  30.507  0.00  0.00    -0.207 NA
ATOM      5  C   UNL d   1      58.705   0.036  29.992  0.00  0.00     0.086 A 
ATOM      6  C   UNL d   1      57.502  -0.204  30.843  0.00  0.00     0.298 A 
ATOM      7  C   UNL d   1      59.509  -0.828  29.195  0.00  0.00     0.003 A 
ATOM      8  C   UNL d   1      57.388  -1.033  30.745  0.00  0.00     0.161 A 
ATOM      9  C   UNL d   1      59.170   0.682  29.785  0.00  0.00     0.019 A 
ATOM     10  O   UNL d   1      56.954   0.193  31.343  0.00  0.00    -0.263 OA
ATOM     11  C   UNL d   1      59.985  -0.173  28.982  0.00  0.00     0.000 A 
ATOM     12  C   UNL d   1      59.808   0.584  29.284  0.00  0.00     0.002 A 
ATOM     13  C   UNL d   1      60.646  -0.310  28.455  0.00  0.00     0.000 C 
ENDROOT
BRANCH   3  14
ATOM     14  C   UNL d   1      58.807  -2.077  29.447  0.00  0.00     0.018 A 
ATOM     15  C   UNL d   1      59.536  -2.379  29.657  0.00  0.00     0.002 A 
ATOM     16  C   UNL d   1      59.851  -3.058  29.261  0.00  0.00     0.000 A 
ATOM     17  C   UNL d   1      59.404  -3.405  28.661  0.00  0.00     0.000 A 
ATOM     18  C   UNL d   1      58.673  -3.096  28.455  0.00  0.00     0.000 A 
ATOM     19  C   UNL d   1      58.372  -2.425  28.853  0.00  0.00     0.002 A 
ENDBRANCH   3  14
TORSDOF 1
ENDMDL
MODEL 7
REMARK VINA RESULT:      -1.3      1.489      3.172
REMARK  1 active torsions:
REMARK  status: ('A' for Active; 'I' for Inactive)
REMARK    1  A    between atoms: C_9  and  C_3 
ROOT
ATOM      1  C   UNL d   1      59.194  -1.019  29.489  0.00  0.00     0.035 A 
ATOM      2  N   UNL d   1      60.272  -1.361  28.512  0.00  0.00    -0.239 NA
ATOM      3  C   UNL d   1      59.588  -1.515  28.982  0.00  0.00     0.083 A 
ATOM      4  N   UNL d   1      59.992   0.268  29.387  0.00  0.00    -0.207 NA
ATOM      5  C   UNL d   1      59.373  -0.218  29.673  0.00  0.00     0.086 A 
ATOM      6  C   UNL d   1      60.583   0.070  28.847  0.00  0.00     0.298 A 
ATOM      7  C   UNL d   1      58.569  -1.383  29.829  0.00  0.00     0.003 A 
ATOM      8  C   UNL d   1      60.701  -0.668  28.457  0.00  0.00     0.161 A 
ATOM      9  C   UNL d   1      58.903   0.195  30.206  0.00  0.00     0.019 A 
ATOM     10  O   UNL d   1      61.132   0.682  28.666  0.00  0.00    -0.263 OA
ATOM     11  C   UNL d   1      58.087  -0.966  30.373  0.00  0.00     0.000 A 
ATOM     12  C   UNL d   1      58.262  -0.171  30.557  0.00  0.00     0.002 A 
ATOM     13  C   UNL d   1      57.424  -1.379  30.722  0.00  0.00     0.000 C 
ENDROOT
BRANCH   3  14
ATOM     14  C   UNL d   1      59.281  -2.266  28.918  0.00  0.00     0.018 A 
ATOM     15  C   UNL d   1      58.583  -2.403  28.518  0.00  0.00     0.002 A 
ATOM     16  C   UNL d   1      58.269  -3.187  28.455  0.00  0.00     0.000 A 
ATOM     17  C   UNL d   1      58.685  -3.806  28.807  0.00  0.00     0.000 A 
ATOM     18  C   UNL d   1      59.386  -3.661  29.208  0.00  0.00     0.000 A 
ATOM     19  C   UNL d   1      59.685  -2.883  29.263  0.00  0.00     0.002 A 
ENDBRANCH   3  14
TORSDOF 1
ENDMDL
MODEL 8
REMARK VINA RESULT:      -1.1      3.008      4.520
REMARK  1 active torsions:
REMARK  status: ('A' for Active; 'I' for Inactive)
REMARK    1  A    between atoms: C_9  and  C_3 
ROOT
ATOM      1  C   UNL d   1      57.518   0.265  32.451  0.00  0.00     0.035 A 
ATOM      2  N   UNL d   1      56.225  -0.095  31.795  0.00  0.00    -0.239 NA
ATOM      3  C   UNL d   1      57.054   0.063  31.818  0.00  0.00     0.083 A 
ATOM      4  N   UNL d   1      56.525   0.291  33.599  0.00  0.00    -0.207 NA
ATOM      5  C   UNL d   1      57.283   0.368  33.252  0.00  0.00     0.086 A 
ATOM      6  C   UNL d   1      55.817   0.091  33.228  0.00  0.00     0.298 A 
ATOM      7  C   UNL d   1      58.281   0.367  32.236  0.00  0.00     0.003 A 
ATOM      8  C   UNL d   1      55.691  -0.082  32.413  0.00  0.00     0.161 A 
ATOM      9  C   UNL d   1      57.842   0.576  33.819  0.00  0.00     0.019 A 
ATOM     10  O   UNL d   1      55.140   0.057  33.728  0.00  0.00    -0.263 OA
ATOM     11  C   UNL d   1      58.853   0.579  32.810  0.00  0.00     0.000 A 
ATOM     12  C   UNL d   1      58.624   0.681  33.605  0.00  0.00     0.002 A 
ATOM     13  C   UNL d   1      59.663   0.682  32.552  0.00  0.00     0.000 C 
ENDROOT
BRANCH   3  14
ATOM     14  C   UNL d   1      57.441   0.004  31.104  0.00  0.00     0.018 A 
ATOM     15  C   UNL d   1      57.556   0.660  30.632  0.00  0.00     0.002 A 
ATOM     16  C   UNL d   1      57.960   0.592  29.891  0.00  0.00     0.000 A 
ATOM     17  C   UNL d   1      58.234  -0.151  29.660  0.00  0.00     0.000 A 
ATOM     18  C   UNL d   1      58.115  -0.806  30.139  0.00  0.00     0.000 A 
ATOM     19  C   UNL d   1      57.715  -0.726  30.869  0.00  0.00     0.002 A 
ENDBRANCH   3  14
TORSDOF 1
ENDMDL
MODEL 9
REMARK VINA RESULT:      -1.0      2.223      3.274
REMARK  1 active torsions:
REMARK  status: ('A' for Active; 'I' for Inactive)
REMARK    1  A    between atoms: C_9  and  C_3 
ROOT
ATOM      1  C   UNL d   1      58.323   0.231  31.219  0.00  0.00     0.035 A 
ATOM      2  N   UNL d   1      57.327  -0.159  30.176  0.00  0.00    -0.239 NA
ATOM      3  C   UNL d   1      57.586   0.012  30.961  0.00  0.00     0.083 A 
ATOM      4  N   UNL d   1      59.133   0.259  29.935  0.00  0.00    -0.207 NA
ATOM      5  C   UNL d   1      59.019   0.343  30.761  0.00  0.00     0.086 A 
ATOM      6  C   UNL d   1      58.575   0.043  29.367  0.00  0.00     0.298 A 
ATOM      7  C   UNL d   1      58.337   0.342  32.011  0.00  0.00     0.003 A 
ATOM      8  C   UNL d   1      57.762  -0.144  29.485  0.00  0.00     0.161 A 
ATOM      9  C   UNL d   1      59.720   0.568  31.128  0.00  0.00     0.019 A 
ATOM     10  O   UNL d   1      58.858   0.006  28.575  0.00  0.00    -0.263 OA
ATOM     11  C   UNL d   1      59.049   0.570  32.388  0.00  0.00     0.000 A 
ATOM     12  C   UNL d   1      59.740   0.682  31.937  0.00  0.00     0.002 A 
ATOM     13  C   UNL d   1      59.035   0.682  33.237  0.00  0.00     0.000 C 
ENDROOT
BRANCH   3  14
ATOM     14  C   UNL d   1      57.018  -0.052  31.540  0.00  0.00     0.018 A 
ATOM     15  C   UNL d   1      56.627   0.608  31.821  0.00  0.00     0.002 A 
ATOM     16  C   UNL d   1      56.036   0.534  32.423  0.00  0.00     0.000 A 
ATOM     17  C   UNL d   1      55.867  -0.217  32.718  0.00  0.00     0.000 A 
ATOM     18  C   UNL d   1      56.263  -0.876  32.431  0.00  0.00     0.000 A 
ATOM     19  C   UNL d   1      56.844  -0.790  31.836  0.00  0.00     0.002 A 
ENDBRANCH   3  14
TORSDOF 1
ENDMDL
