MODEL 1
REMARK VINA RESULT:      25.2      0.000      0.000
REMARK  4 active torsions:
REMARK  status: ('A' for Active; 'I' for Inactive)
REMARK    1  A    between atoms: C_5  and  C_2 
REMARK    2  A    between atoms: C_7  and  C_5 
REMARK       I    between atoms: N_9  and  C_7 
REMARK    3  A    between atoms: C_8  and  C_10 
REMARK    4  A    between atoms: C_17  and  N_9 
ROOT
ATOM      1  C   UNL d   1      13.534  12.248  -2.606  0.00  0.00     0.280 C 
ATOM      2  N   UNL d   1      13.070  12.013  -3.242  0.00  0.00    -0.208 NA
ATOM      3  O   UNL d   1      13.963  12.949  -2.646  0.00  0.00    -0.265 OA
ENDROOT
BRANCH   1   4
ATOM      4  C   UNL d   1      13.572  11.781  -1.923  0.00  0.00     0.074 C 
BRANCH   4   5
ATOM      5  C   UNL d   1      14.074  11.797  -1.276  0.00  0.00     0.097 A 
ATOM      6  C   UNL d   1      13.843  11.815  -0.484  0.00  0.00     0.288 A 
ATOM      7  N   UNL d   1      14.519  11.828  -0.018  0.00  0.00    -0.163 NA
ATOM      8  O   UNL d   1      13.064  11.821  -0.217  0.00  0.00    -0.265 OA
ATOM      9  C   UNL d   1      15.175  11.817  -0.519  0.00  0.00     0.313 A 
ATOM     10  S   UNL d   1      14.901  11.798  -1.295  0.00  0.00    -0.021 SA
ATOM     11  O   UNL d   1      15.962  11.823  -0.291  0.00  0.00    -0.258 OA
ENDBRANCH   4   5
ENDBRANCH   1   4
BRANCH   2  12
ATOM     12  C   UNL d   1      13.168  12.604  -3.811  0.00  0.00     0.085 A 
ATOM     13  C   UNL d   1      13.465  12.417  -4.548  0.00  0.00     0.019 A 
ATOM     14  C   UNL d   1      13.565  13.004  -5.121  0.00  0.00     0.008 A 
ATOM     15  C   UNL d   1      13.362  13.791  -4.944  0.00  0.00     0.065 A 
ATOM     16  C   UNL d   1      13.059  13.977  -4.191  0.00  0.00     0.008 A 
ATOM     17  C   UNL d   1      12.964  13.386  -3.630  0.00  0.00     0.019 A 
BRANCH  15  18
ATOM     18  C   UNL d   1      13.459  14.377  -5.509  0.00  0.00     0.211 C 
ATOM     19  O   UNL d   1      13.947  14.244  -6.162  0.00  0.00    -0.644 OA
ATOM     20  O   UNL d   1      13.071  15.102  -5.429  0.00  0.00    -0.644 OA
ENDBRANCH  15  18
ENDBRANCH   2  12
TORSDOF 4
ENDMDL
