MODEL 1
REMARK VINA RESULT:      -7.2      0.000      0.000
REMARK  6 active torsions:
REMARK  status: ('A' for Active; 'I' for Inactive)
REMARK    1  A    between atoms: C_8  and  C_1 
REMARK    2  A    between atoms: C_13  and  N_2 
REMARK    3  A    between atoms: C_7  and  C_4 
REMARK    4  A    between atoms: C_6  and  C_8 
REMARK    5  A    between atoms: C_21  and  C_13 
REMARK    6  A    between atoms: N_22  and  C_21 
ROOT
ATOM      1  C   UNL d   1     -47.049  12.729  23.178  0.00  0.00     0.103 A 
ATOM      2  N   UNL d   1     -48.288  12.292  22.948  0.00  0.00    -0.267 N 
ATOM      3  C   UNL d   1     -47.083  11.932  23.392  0.00  0.00     0.256 A 
ATOM      4  C   UNL d   1     -47.792  12.948  22.905  0.00  0.00     0.096 A 
ATOM      5  C   UNL d   1     -47.850  11.661  23.250  0.00  0.00     0.304 A 
ATOM      6  O   UNL d   1     -48.122  10.891  23.389  0.00  0.00    -0.263 OA
ATOM      7  O   UNL d   1     -46.458  11.479  23.698  0.00  0.00    -0.281 OA
ENDROOT
BRANCH   1   8
ATOM      8  C   UNL d   1     -46.388  13.214  23.230  0.00  0.00     0.223 C 
ATOM      9  O   UNL d   1     -46.410  13.897  23.697  0.00  0.00    -0.284 OA
BRANCH   8  10
ATOM     10  C   UNL d   1     -45.694  13.030  22.819  0.00  0.00     0.139 A 
ATOM     11  O   UNL d   1     -45.175  12.409  22.983  0.00  0.00    -0.304 OA
ATOM     12  C   UNL d   1     -44.561  12.439  22.433  0.00  0.00     0.100 A 
ATOM     13  C   UNL d   1     -43.899  11.970  22.328  0.00  0.00     0.025 A 
ATOM     14  C   UNL d   1     -44.698  13.073  21.932  0.00  0.00     0.025 A 
ATOM     15  C   UNL d   1     -43.374  12.133  21.724  0.00  0.00     0.002 A 
ATOM     16  C   UNL d   1     -43.509  12.766  21.222  0.00  0.00     0.000 A 
ATOM     17  C   UNL d   1     -44.170  13.239  21.323  0.00  0.00     0.002 A 
ATOM     18  C   UNL d   1     -45.401  13.438  22.174  0.00  0.00     0.030 A 
ENDBRANCH   8  10
ENDBRANCH   1   8
BRANCH   4  19
ATOM     19  C   UNL d   1     -48.005  13.708  22.630  0.00  0.00     0.116 A 
ATOM     20  O   UNL d   1     -48.256  14.379  23.036  0.00  0.00    -0.306 OA
ATOM     21  C   UNL d   1     -48.390  14.971  22.488  0.00  0.00     0.100 A 
ATOM     22  C   UNL d   1     -48.648  15.740  22.651  0.00  0.00     0.027 C 
ATOM     23  C   UNL d   1     -48.224  14.677  21.736  0.00  0.00     0.027 A 
ATOM     24  C   UNL d   1     -47.983  13.886  21.824  0.00  0.00     0.028 A 
ENDBRANCH   4  19
BRANCH   2  25
ATOM     25  C   UNL d   1     -49.084  12.261  22.729  0.00  0.00     0.102 C 
BRANCH  25  26
ATOM     26  C   UNL d   1     -49.646  11.957  23.256  0.00  0.00     0.100 C 
BRANCH  26  27
ATOM     27  N   UNL d   1     -50.454  12.011  23.083  0.00  0.00    -0.299 N 
ATOM     28  C   UNL d   1     -50.706  12.009  22.298  0.00  0.00     0.100 C 
ATOM     29  C   UNL d   1     -50.997  12.067  23.698  0.00  0.00     0.100 C 
ENDBRANCH  26  27
ENDBRANCH  25  26
ENDBRANCH   2  25
TORSDOF 6
ENDMDL
MODEL 2
REMARK VINA RESULT:      -6.8      1.184      2.422
REMARK  6 active torsions:
REMARK  status: ('A' for Active; 'I' for Inactive)
REMARK    1  A    between atoms: C_8  and  C_1 
REMARK    2  A    between atoms: C_13  and  N_2 
REMARK    3  A    between atoms: C_7  and  C_4 
REMARK    4  A    between atoms: C_6  and  C_8 
REMARK    5  A    between atoms: C_21  and  C_13 
REMARK    6  A    between atoms: N_22  and  C_21 
ROOT
ATOM      1  C   UNL d   1     -46.854  13.608  22.917  0.00  0.00     0.103 A 
ATOM      2  N   UNL d   1     -47.924  14.319  22.559  0.00  0.00    -0.267 N 
ATOM      3  C   UNL d   1     -46.646  14.408  22.929  0.00  0.00     0.256 A 
ATOM      4  C   UNL d   1     -47.640  13.556  22.689  0.00  0.00     0.096 A 
ATOM      5  C   UNL d   1     -47.309  14.848  22.707  0.00  0.00     0.304 A 
ATOM      6  O   UNL d   1     -47.340  15.673  22.647  0.00  0.00    -0.263 OA
ATOM      7  O   UNL d   1     -45.903  14.719  23.128  0.00  0.00    -0.281 OA
ENDROOT
BRANCH   1   8
ATOM      8  C   UNL d   1     -46.358  12.980  23.101  0.00  0.00     0.223 C 
ATOM      9  O   UNL d   1     -46.569  12.446  23.698  0.00  0.00    -0.284 OA
BRANCH   8  10
ATOM     10  C   UNL d   1     -45.645  12.869  22.697  0.00  0.00     0.139 A 
ATOM     11  O   UNL d   1     -45.382  13.291  22.037  0.00  0.00    -0.304 OA
ATOM     12  C   UNL d   1     -44.645  12.992  21.822  0.00  0.00     0.100 A 
ATOM     13  C   UNL d   1     -44.129  13.194  21.219  0.00  0.00     0.025 A 
ATOM     14  C   UNL d   1     -44.451  12.390  22.343  0.00  0.00     0.025 A 
ATOM     15  C   UNL d   1     -43.421  12.795  21.136  0.00  0.00     0.002 A 
ATOM     16  C   UNL d   1     -43.226  12.192  21.656  0.00  0.00     0.000 A 
ATOM     17  C   UNL d   1     -43.739  11.986  22.261  0.00  0.00     0.002 A 
ATOM     18  C   UNL d   1     -45.073  12.315  22.884  0.00  0.00     0.030 A 
ENDBRANCH   8  10
ENDBRANCH   1   8
BRANCH   4  19
ATOM     19  C   UNL d   1     -48.077  12.848  22.604  0.00  0.00     0.116 A 
ATOM     20  O   UNL d   1     -48.457  12.377  23.162  0.00  0.00    -0.306 OA
ATOM     21  C   UNL d   1     -48.799  11.746  22.770  0.00  0.00     0.100 A 
ATOM     22  C   UNL d   1     -49.237  11.135  23.114  0.00  0.00     0.027 C 
ATOM     23  C   UNL d   1     -48.638  11.818  21.964  0.00  0.00     0.027 A 
ATOM     24  C   UNL d   1     -48.186  12.507  21.860  0.00  0.00     0.028 A 
ENDBRANCH   4  19
BRANCH   2  25
ATOM     25  C   UNL d   1     -48.688  14.526  22.322  0.00  0.00     0.102 C 
BRANCH  25  26
ATOM     26  C   UNL d   1     -49.055  15.194  22.646  0.00  0.00     0.100 C 
BRANCH  26  27
ATOM     27  N   UNL d   1     -49.878  15.275  22.615  0.00  0.00    -0.299 N 
ATOM     28  C   UNL d   1     -50.270  15.207  21.893  0.00  0.00     0.100 C 
ATOM     29  C   UNL d   1     -50.296  15.424  23.307  0.00  0.00     0.100 C 
ENDBRANCH  26  27
ENDBRANCH  25  26
ENDBRANCH   2  25
TORSDOF 6
ENDMDL
MODEL 3
REMARK VINA RESULT:      -4.7      1.562      4.221
REMARK  6 active torsions:
REMARK  status: ('A' for Active; 'I' for Inactive)
REMARK    1  A    between atoms: C_8  and  C_1 
REMARK    2  A    between atoms: C_13  and  N_2 
REMARK    3  A    between atoms: C_7  and  C_4 
REMARK    4  A    between atoms: C_6  and  C_8 
REMARK    5  A    between atoms: C_21  and  C_13 
REMARK    6  A    between atoms: N_22  and  C_21 
ROOT
ATOM      1  C   UNL d   1     -47.484  12.364  23.285  0.00  0.00     0.103 A 
ATOM      2  N   UNL d   1     -46.418  11.563  23.264  0.00  0.00    -0.267 N 
ATOM      3  C   UNL d   1     -47.730  11.604  23.500  0.00  0.00     0.256 A 
ATOM      4  C   UNL d   1     -46.677  12.335  23.141  0.00  0.00     0.096 A 
ATOM      5  C   UNL d   1     -47.070  11.109  23.487  0.00  0.00     0.304 A 
ATOM      6  O   UNL d   1     -47.071  10.300  23.668  0.00  0.00    -0.263 OA
ATOM      7  O   UNL d   1     -48.503  11.376  23.696  0.00  0.00    -0.281 OA
ENDROOT
BRANCH   1   8
ATOM      8  C   UNL d   1     -47.966  13.027  23.227  0.00  0.00     0.223 C 
ATOM      9  O   UNL d   1     -47.800  13.701  23.679  0.00  0.00    -0.284 OA
BRANCH   8  10
ATOM     10  C   UNL d   1     -48.620  13.033  22.722  0.00  0.00     0.139 A 
ATOM     11  O   UNL d   1     -48.619  12.868  21.912  0.00  0.00    -0.304 OA
ATOM     12  C   UNL d   1     -49.392  12.941  21.637  0.00  0.00     0.100 A 
ATOM     13  C   UNL d   1     -49.718  12.844  20.893  0.00  0.00     0.025 A 
ATOM     14  C   UNL d   1     -49.870  13.150  22.269  0.00  0.00     0.025 A 
ATOM     15  C   UNL d   1     -50.519  12.955  20.779  0.00  0.00     0.002 A 
ATOM     16  C   UNL d   1     -50.998  13.164  21.410  0.00  0.00     0.000 A 
ATOM     17  C   UNL d   1     -50.677  13.263  22.157  0.00  0.00     0.002 A 
ATOM     18  C   UNL d   1     -49.389  13.207  22.941  0.00  0.00     0.030 A 
ENDBRANCH   8  10
ENDBRANCH   1   8
BRANCH   4  19
ATOM     19  C   UNL d   1     -46.201  12.982  22.908  0.00  0.00     0.116 A 
ATOM     20  O   UNL d   1     -45.740  13.100  22.236  0.00  0.00    -0.306 OA
ATOM     21  C   UNL d   1     -45.391  13.837  22.294  0.00  0.00     0.100 A 
ATOM     22  C   UNL d   1     -44.882  14.183  21.742  0.00  0.00     0.027 C 
ATOM     23  C   UNL d   1     -45.629  14.186  23.002  0.00  0.00     0.027 A 
ATOM     24  C   UNL d   1     -46.137  13.652  23.386  0.00  0.00     0.028 A 
ENDBRANCH   4  19
BRANCH   2  25
ATOM     25  C   UNL d   1     -45.644  11.284  23.182  0.00  0.00     0.102 C 
BRANCH  25  26
ATOM     26  C   UNL d   1     -45.413  10.589  23.567  0.00  0.00     0.100 C 
BRANCH  26  27
ATOM     27  N   UNL d   1     -44.627  10.330  23.526  0.00  0.00    -0.299 N 
ATOM     28  C   UNL d   1     -44.031  10.860  23.316  0.00  0.00     0.100 C 
ATOM     29  C   UNL d   1     -44.450   9.545  23.695  0.00  0.00     0.100 C 
ENDBRANCH  26  27
ENDBRANCH  25  26
ENDBRANCH   2  25
TORSDOF 6
ENDMDL
