MODEL 1
REMARK VINA RESULT:      -7.2      0.000      0.000
REMARK  9 active torsions:
REMARK  status: ('A' for Active; 'I' for Inactive)
REMARK    1  A    between atoms: C_7  and  C_1 
REMARK    2  A    between atoms: C_9  and  N_2 
REMARK    3  A    between atoms: C_14  and  C_7 
REMARK    4  A    between atoms: C_8  and  C_9 
REMARK       I    between atoms: N_11  and  C_8 
REMARK    5  A    between atoms: C_10  and  N_11 
REMARK    6  A    between atoms: O_30  and  C_19 
REMARK    7  A    between atoms: O_31  and  C_20 
REMARK    8  A    between atoms: C_32  and  C_25 
REMARK    9  A    between atoms: C_33  and  C_29 
ROOT
ATOM      1  C   UNL d   1      53.658  32.578  53.479  0.00  0.00     0.095 A 
ATOM      2  N   UNL d   1      52.484  31.889  53.055  0.00  0.00    -0.300 N 
ATOM      3  C   UNL d   1      53.966  31.842  53.770  0.00  0.00     0.202 A 
ATOM      4  C   UNL d   1      52.917  32.602  53.122  0.00  0.00     0.087 A 
ATOM      5  C   UNL d   1      53.511  31.142  53.691  0.00  0.00     0.055 A 
ATOM      6  C   UNL d   1      52.768  31.153  53.335  0.00  0.00     0.067 A 
ATOM      7  C   UNL d   1      52.336  30.453  53.267  0.00  0.00     0.018 A 
ATOM      8  C   UNL d   1      53.807  30.406  53.976  0.00  0.00     0.005 A 
ATOM      9  O   UNL d   1      54.696  31.819  54.122  0.00  0.00    -0.286 OA
ATOM     10  C   UNL d   1      53.364  29.714  53.901  0.00  0.00     0.000 A 
ATOM     11  C   UNL d   1      52.635  29.737  53.550  0.00  0.00     0.002 A 
ENDROOT
BRANCH   2  12
ATOM     12  C   UNL d   1      51.743  31.912  52.698  0.00  0.00     0.144 C 
BRANCH  12  13
ATOM     13  C   UNL d   1      51.399  32.634  52.512  0.00  0.00     0.297 C 
ATOM     14  N   UNL d   1      50.667  32.836  52.829  0.00  0.00    -0.207 NA
ATOM     15  O   UNL d   1      51.786  33.155  52.008  0.00  0.00    -0.264 OA
BRANCH  14  16
ATOM     16  C   UNL d   1      50.323  33.566  52.639  0.00  0.00     0.089 A 
ATOM     17  C   UNL d   1      50.100  33.720  51.871  0.00  0.00     0.043 A 
ATOM     18  C   UNL d   1      49.761  34.436  51.678  0.00  0.00     0.098 A 
ATOM     19  C   UNL d   1      49.640  35.014  52.268  0.00  0.00     0.049 A 
ATOM     20  C   UNL d   1      49.867  34.854  53.042  0.00  0.00     0.098 A 
ATOM     21  C   UNL d   1      50.211  34.125  53.232  0.00  0.00     0.043 A 
BRANCH  18  22
ATOM     22  O   UNL d   1      49.536  34.593  50.907  0.00  0.00    -0.328 OA
ATOM     23  C   UNL d   1      48.759  34.457  50.673  0.00  0.00     0.181 C 
ENDBRANCH  18  22
BRANCH  20  24
ATOM     24  O   UNL d   1      49.754  35.409  53.621  0.00  0.00    -0.328 OA
ATOM     25  C   UNL d   1      48.992  35.637  53.831  0.00  0.00     0.181 C 
ENDBRANCH  20  24
ENDBRANCH  14  16
ENDBRANCH  12  13
ENDBRANCH   2  12
BRANCH   1  26
ATOM     26  C   UNL d   1      54.102  33.274  53.553  0.00  0.00     0.200 C 
ATOM     27  O   UNL d   1      54.843  33.327  53.199  0.00  0.00    -0.286 OA
BRANCH  26  28
ATOM     28  C   UNL d   1      53.803  33.914  53.981  0.00  0.00     0.039 A 
ATOM     29  C   UNL d   1      53.660  34.642  53.605  0.00  0.00     0.003 A 
ATOM     30  C   UNL d   1      53.358  35.289  54.033  0.00  0.00     0.000 A 
ATOM     31  C   UNL d   1      53.201  35.208  54.837  0.00  0.00     0.000 A 
ATOM     32  C   UNL d   1      53.352  34.469  55.200  0.00  0.00     0.000 A 
ATOM     33  C   UNL d   1      53.653  33.822  54.772  0.00  0.00     0.003 A 
BRANCH  31  34
ATOM     34  C   UNL d   1      52.903  35.857  55.252  0.00  0.00     0.000 C 
ATOM     35  C   UNL d   1      52.799  36.563  54.843  0.00  0.00     0.000 C 
ENDBRANCH  31  34
ENDBRANCH  26  28
ENDBRANCH   1  26
BRANCH  10  36
ATOM     36  C   UNL d   1      53.667  29.003  54.185  0.00  0.00     0.000 C 
ATOM     37  C   UNL d   1      53.324  28.640  54.850  0.00  0.00     0.000 C 
ENDBRANCH  10  36
TORSDOF 9
ENDMDL
MODEL 2
REMARK VINA RESULT:      -4.8      1.270      4.584
REMARK  9 active torsions:
REMARK  status: ('A' for Active; 'I' for Inactive)
REMARK    1  A    between atoms: C_7  and  C_1 
REMARK    2  A    between atoms: C_9  and  N_2 
REMARK    3  A    between atoms: C_14  and  C_7 
REMARK    4  A    between atoms: C_8  and  C_9 
REMARK       I    between atoms: N_11  and  C_8 
REMARK    5  A    between atoms: C_10  and  N_11 
REMARK    6  A    between atoms: O_30  and  C_19 
REMARK    7  A    between atoms: O_31  and  C_20 
REMARK    8  A    between atoms: C_32  and  C_25 
REMARK    9  A    between atoms: C_33  and  C_29 
ROOT
ATOM      1  C   UNL d   1      51.970  34.660  53.695  0.00  0.00     0.095 A 
ATOM      2  N   UNL d   1      51.807  33.646  52.706  0.00  0.00    -0.300 N 
ATOM      3  C   UNL d   1      51.207  34.967  53.484  0.00  0.00     0.202 A 
ATOM      4  C   UNL d   1      52.270  34.000  53.306  0.00  0.00     0.087 A 
ATOM      5  C   UNL d   1      50.763  34.594  52.878  0.00  0.00     0.055 A 
ATOM      6  C   UNL d   1      51.053  33.933  52.482  0.00  0.00     0.067 A 
ATOM      7  C   UNL d   1      50.600  33.579  51.889  0.00  0.00     0.018 A 
ATOM      8  C   UNL d   1      50.004  34.890  52.661  0.00  0.00     0.005 A 
ATOM      9  O   UNL d   1      50.911  35.618  53.867  0.00  0.00    -0.286 OA
ATOM     10  C   UNL d   1      49.563  34.527  52.066  0.00  0.00     0.000 A 
ATOM     11  C   UNL d   1      49.858  33.877  51.683  0.00  0.00     0.002 A 
ENDROOT
BRANCH   2  12
ATOM     12  C   UNL d   1      52.107  32.986  52.317  0.00  0.00     0.144 C 
BRANCH  12  13
ATOM     13  C   UNL d   1      52.216  32.282  52.726  0.00  0.00     0.297 C 
ATOM     14  N   UNL d   1      52.886  31.824  52.586  0.00  0.00    -0.207 NA
ATOM     15  O   UNL d   1      51.657  32.036  53.275  0.00  0.00    -0.264 OA
BRANCH  14  16
ATOM     16  C   UNL d   1      52.994  31.115  53.001  0.00  0.00     0.089 A 
ATOM     17  C   UNL d   1      52.750  30.412  52.670  0.00  0.00     0.043 A 
ATOM     18  C   UNL d   1      52.853  29.711  53.073  0.00  0.00     0.098 A 
ATOM     19  C   UNL d   1      53.210  29.712  53.828  0.00  0.00     0.049 A 
ATOM     20  C   UNL d   1      53.455  30.424  54.158  0.00  0.00     0.098 A 
ATOM     21  C   UNL d   1      53.347  31.133  53.744  0.00  0.00     0.043 A 
BRANCH  18  22
ATOM     22  O   UNL d   1      52.609  29.003  52.742  0.00  0.00    -0.328 OA
ATOM     23  C   UNL d   1      51.959  28.610  53.057  0.00  0.00     0.181 C 
ENDBRANCH  18  22
BRANCH  20  24
ATOM     24  O   UNL d   1      53.802  30.433  54.890  0.00  0.00    -0.328 OA
ATOM     25  C   UNL d   1      53.414  30.104  55.535  0.00  0.00     0.181 C 
ENDBRANCH  20  24
ENDBRANCH  14  16
ENDBRANCH  12  13
ENDBRANCH   2  12
BRANCH   1  26
ATOM     26  C   UNL d   1      52.415  35.024  54.293  0.00  0.00     0.200 C 
ATOM     27  O   UNL d   1      52.132  35.707  54.655  0.00  0.00    -0.286 OA
BRANCH  26  28
ATOM     28  C   UNL d   1      53.139  34.704  54.525  0.00  0.00     0.039 A 
ATOM     29  C   UNL d   1      53.190  34.228  55.206  0.00  0.00     0.003 A 
ATOM     30  C   UNL d   1      53.919  33.903  55.444  0.00  0.00     0.000 A 
ATOM     31  C   UNL d   1      54.596  34.054  55.001  0.00  0.00     0.000 A 
ATOM     32  C   UNL d   1      54.527  34.534  54.319  0.00  0.00     0.000 A 
ATOM     33  C   UNL d   1      53.798  34.859  54.081  0.00  0.00     0.003 A 
BRANCH  31  34
ATOM     34  C   UNL d   1      55.313  33.727  55.246  0.00  0.00     0.000 C 
ATOM     35  C   UNL d   1      55.925  33.684  54.697  0.00  0.00     0.000 C 
ENDBRANCH  31  34
ENDBRANCH  26  28
ENDBRANCH   1  26
BRANCH  10  36
ATOM     36  C   UNL d   1      48.823  34.828  51.864  0.00  0.00     0.000 C 
ATOM     37  C   UNL d   1      48.558  34.788  51.078  0.00  0.00     0.000 C 
ENDBRANCH  10  36
TORSDOF 9
ENDMDL
MODEL 3
REMARK VINA RESULT:      -4.7      1.031      3.681
REMARK  9 active torsions:
REMARK  status: ('A' for Active; 'I' for Inactive)
REMARK    1  A    between atoms: C_7  and  C_1 
REMARK    2  A    between atoms: C_9  and  N_2 
REMARK    3  A    between atoms: C_14  and  C_7 
REMARK    4  A    between atoms: C_8  and  C_9 
REMARK       I    between atoms: N_11  and  C_8 
REMARK    5  A    between atoms: C_10  and  N_11 
REMARK    6  A    between atoms: O_30  and  C_19 
REMARK    7  A    between atoms: O_31  and  C_20 
REMARK    8  A    between atoms: C_32  and  C_25 
REMARK    9  A    between atoms: C_33  and  C_29 
ROOT
ATOM      1  C   UNL d   1      53.053  32.201  53.310  0.00  0.00     0.095 A 
ATOM      2  N   UNL d   1      52.541  33.322  54.028  0.00  0.00    -0.300 N 
ATOM      3  C   UNL d   1      53.838  32.443  53.525  0.00  0.00     0.202 A 
ATOM      4  C   UNL d   1      52.404  32.640  53.562  0.00  0.00     0.087 A 
ATOM      5  C   UNL d   1      53.947  33.129  53.993  0.00  0.00     0.055 A 
ATOM      6  C   UNL d   1      53.307  33.577  54.250  0.00  0.00     0.067 A 
ATOM      7  C   UNL d   1      53.435  34.251  54.711  0.00  0.00     0.018 A 
ATOM      8  C   UNL d   1      54.723  33.378  54.211  0.00  0.00     0.005 A 
ATOM      9  O   UNL d   1      54.477  32.009  53.277  0.00  0.00    -0.286 OA
ATOM     10  C   UNL d   1      54.837  34.053  54.671  0.00  0.00     0.000 A 
ATOM     11  C   UNL d   1      54.198  34.486  54.919  0.00  0.00     0.002 A 
ENDROOT
BRANCH   2  12
ATOM     12  C   UNL d   1      51.892  33.761  54.280  0.00  0.00     0.144 C 
BRANCH  12  13
ATOM     13  C   UNL d   1      51.407  34.129  53.729  0.00  0.00     0.297 C 
ATOM     14  N   UNL d   1      50.593  34.009  53.752  0.00  0.00    -0.207 NA
ATOM     15  O   UNL d   1      51.734  34.618  53.156  0.00  0.00    -0.264 OA
BRANCH  14  16
ATOM     16  C   UNL d   1      50.105  34.381  53.195  0.00  0.00     0.089 A 
ATOM     17  C   UNL d   1      49.662  35.028  53.415  0.00  0.00     0.043 A 
ATOM     18  C   UNL d   1      49.180  35.399  52.871  0.00  0.00     0.098 A 
ATOM     19  C   UNL d   1      49.140  35.115  52.086  0.00  0.00     0.049 A 
ATOM     20  C   UNL d   1      49.589  34.462  51.869  0.00  0.00     0.098 A 
ATOM     21  C   UNL d   1      50.077  34.089  52.426  0.00  0.00     0.043 A 
BRANCH  18  22
ATOM     22  O   UNL d   1      48.734  36.049  53.089  0.00  0.00    -0.328 OA
ATOM     23  C   UNL d   1      48.213  35.992  53.724  0.00  0.00     0.181 C 
ENDBRANCH  18  22
BRANCH  20  24
ATOM     24  O   UNL d   1      49.556  34.181  51.111  0.00  0.00    -0.328 OA
ATOM     25  C   UNL d   1      48.866  34.259  50.671  0.00  0.00     0.181 C 
ENDBRANCH  20  24
ENDBRANCH  14  16
ENDBRANCH  12  13
ENDBRANCH   2  12
BRANCH   1  26
ATOM     26  C   UNL d   1      52.937  31.523  52.848  0.00  0.00     0.200 C 
ATOM     27  O   UNL d   1      52.811  31.597  52.038  0.00  0.00    -0.286 OA
BRANCH  26  28
ATOM     28  C   UNL d   1      52.947  30.775  53.197  0.00  0.00     0.039 A 
ATOM     29  C   UNL d   1      53.668  30.381  53.326  0.00  0.00     0.003 A 
ATOM     30  C   UNL d   1      53.683  29.626  53.678  0.00  0.00     0.000 A 
ATOM     31  C   UNL d   1      52.977  29.266  53.900  0.00  0.00     0.000 A 
ATOM     32  C   UNL d   1      52.260  29.677  53.762  0.00  0.00     0.000 A 
ATOM     33  C   UNL d   1      52.245  30.431  53.410  0.00  0.00     0.003 A 
BRANCH  31  34
ATOM     34  C   UNL d   1      53.002  28.518  54.248  0.00  0.00     0.000 C 
ATOM     35  C   UNL d   1      53.294  28.459  55.015  0.00  0.00     0.000 C 
ENDBRANCH  31  34
ENDBRANCH  26  28
ENDBRANCH   1  26
BRANCH  10  36
ATOM     36  C   UNL d   1      55.601  34.284  54.877  0.00  0.00     0.000 C 
ATOM     37  C   UNL d   1      55.862  34.206  55.662  0.00  0.00     0.000 C 
ENDBRANCH  10  36
TORSDOF 9
ENDMDL
