MODEL 1
REMARK VINA RESULT:      19.3      0.000      0.000
REMARK  2 active torsions:
REMARK  status: ('A' for Active; 'I' for Inactive)
REMARK    1  A    between atoms: C_2  and  S_1 
REMARK    2  A    between atoms: N_3  and  S_1 
ROOT
ATOM      1  S   UNL d   1      46.009 -17.119  44.088  0.00  0.00     0.272 S 
ATOM      2  O   UNL d   1      46.130 -17.679  44.680  0.00  0.00    -0.200 OA
ATOM      3  O   UNL d   1      46.049 -17.347  43.294  0.00  0.00    -0.200 OA
ENDROOT
BRANCH   1   4
ATOM      4  C   UNL d   1      46.168 -17.902  43.888  0.00  0.00     0.115 A 
ATOM      5  C   UNL d   1      46.249 -18.109  43.102  0.00  0.00     0.071 A 
ATOM      6  C   UNL d   1      46.407 -18.887  42.895  0.00  0.00     0.024 A 
ATOM      7 CL   UNL d   1      46.174 -17.549  42.500  0.00  0.00    -0.082 Cl
ATOM      8  C   UNL d   1      46.486 -19.464  43.484  0.00  0.00     0.059 A 
ATOM      9  C   UNL d   1      46.403 -19.246  44.276  0.00  0.00     0.011 A 
ATOM     10 CL   UNL d   1      46.645 -20.246  43.279  0.00  0.00    -0.082 Cl
ATOM     11  C   UNL d   1      46.244 -18.468  44.480  0.00  0.00     0.015 A 
ATOM     12  C   UNL d   1      46.481 -19.823  44.861  0.00  0.00     0.001 C 
ENDBRANCH   1   4
BRANCH   1  13
ATOM     13  N   UNL d   1      45.850 -16.334  44.284  0.00  0.00    -0.229 N 
ATOM     14  C   UNL d   1      45.102 -16.236  44.682  0.00  0.00     0.092 A 
ATOM     15  C   UNL d   1      44.745 -15.669  44.948  0.00  0.00     0.020 A 
ATOM     16  C   UNL d   1      44.998 -14.875  44.934  0.00  0.00     0.002 A 
ATOM     17  C   UNL d   1      45.748 -14.576  44.594  0.00  0.00     0.002 A 
ATOM     18  C   UNL d   1      46.391 -15.036  44.197  0.00  0.00     0.020 A 
ATOM     19  C   UNL d   1      46.394 -15.872  44.073  0.00  0.00     0.092 A 
ENDBRANCH   1  13
TORSDOF 2
ENDMDL
MODEL 2
REMARK VINA RESULT:      20.2      1.784      4.062
REMARK  2 active torsions:
REMARK  status: ('A' for Active; 'I' for Inactive)
REMARK    1  A    between atoms: C_2  and  S_1 
REMARK    2  A    between atoms: N_3  and  S_1 
ROOT
ATOM      1  S   UNL d   1      45.801 -16.082  44.376  0.00  0.00     0.272 S 
ATOM      2  O   UNL d   1      46.265 -15.499  44.022  0.00  0.00    -0.200 OA
ATOM      3  O   UNL d   1      45.178 -15.863  44.874  0.00  0.00    -0.200 OA
ENDROOT
BRANCH   1   4
ATOM      4  C   UNL d   1      45.643 -15.286  44.520  0.00  0.00     0.115 A 
ATOM      5  C   UNL d   1      44.911 -15.065  44.806  0.00  0.00     0.071 A 
ATOM      6  C   UNL d   1      44.747 -14.275  44.952  0.00  0.00     0.024 A 
ATOM      7 CL   UNL d   1      44.322 -15.624  44.955  0.00  0.00    -0.082 Cl
ATOM      8  C   UNL d   1      45.325 -13.699  44.808  0.00  0.00     0.059 A 
ATOM      9  C   UNL d   1      46.062 -13.931  44.519  0.00  0.00     0.011 A 
ATOM     10 CL   UNL d   1      45.162 -12.904  44.954  0.00  0.00    -0.082 Cl
ATOM     11  C   UNL d   1      46.224 -14.721  44.374  0.00  0.00     0.015 A 
ATOM     12  C   UNL d   1      46.637 -13.354  44.378  0.00  0.00     0.001 C 
ENDBRANCH   1   4
BRANCH   1  13
ATOM     13  N   UNL d   1      45.956 -16.878  44.234  0.00  0.00    -0.229 N 
ATOM     14  C   UNL d   1      45.943 -17.078  43.405  0.00  0.00     0.092 A 
ATOM     15  C   UNL d   1      46.044 -17.687  43.033  0.00  0.00     0.020 A 
ATOM     16  C   UNL d   1      46.219 -18.437  43.352  0.00  0.00     0.002 A 
ATOM     17  C   UNL d   1      46.314 -18.630  44.200  0.00  0.00     0.002 A 
ATOM     18  C   UNL d   1      46.248 -18.088  44.897  0.00  0.00     0.020 A 
ATOM     19  C   UNL d   1      46.076 -17.261  44.862  0.00  0.00     0.092 A 
ENDBRANCH   1  13
TORSDOF 2
ENDMDL
MODEL 3
REMARK VINA RESULT:      20.4      7.591      8.256
REMARK  2 active torsions:
REMARK  status: ('A' for Active; 'I' for Inactive)
REMARK    1  A    between atoms: C_2  and  S_1 
REMARK    2  A    between atoms: N_3  and  S_1 
ROOT
ATOM      1  S   UNL d   1      44.149 -15.274  36.749  0.00  0.00     0.272 S 
ATOM      2  O   UNL d   1      43.504 -14.839  37.021  0.00  0.00    -0.200 OA
ATOM      3  O   UNL d   1      44.025 -16.001  36.375  0.00  0.00    -0.200 OA
ENDROOT
BRANCH   1   4
ATOM      4  C   UNL d   1      43.385 -15.565  36.648  0.00  0.00     0.115 A 
ATOM      5  C   UNL d   1      43.275 -16.347  36.441  0.00  0.00     0.071 A 
ATOM      6  C   UNL d   1      42.517 -16.644  36.339  0.00  0.00     0.024 A 
ATOM      7 CL   UNL d   1      43.915 -16.857  36.331  0.00  0.00    -0.082 Cl
ATOM      8  C   UNL d   1      41.861 -16.148  36.444  0.00  0.00     0.059 A 
ATOM      9  C   UNL d   1      41.981 -15.359  36.653  0.00  0.00     0.011 A 
ATOM     10 CL   UNL d   1      41.099 -16.443  36.342  0.00  0.00    -0.082 Cl
ATOM     11  C   UNL d   1      42.740 -15.065  36.755  0.00  0.00     0.015 A 
ATOM     12  C   UNL d   1      41.326 -14.867  36.757  0.00  0.00     0.001 C 
ENDBRANCH   1   4
BRANCH   1  13
ATOM     13  N   UNL d   1      44.915 -14.987  36.849  0.00  0.00    -0.229 N 
ATOM     14  C   UNL d   1      44.968 -14.382  37.448  0.00  0.00     0.092 A 
ATOM     15  C   UNL d   1      45.508 -13.985  37.714  0.00  0.00     0.020 A 
ATOM     16  C   UNL d   1      46.307 -14.018  37.481  0.00  0.00     0.002 A 
ATOM     17  C   UNL d   1      46.646 -14.541  36.867  0.00  0.00     0.002 A 
ATOM     18  C   UNL d   1      46.230 -15.140  36.365  0.00  0.00     0.020 A 
ATOM     19  C   UNL d   1      45.404 -15.316  36.393  0.00  0.00     0.092 A 
ENDBRANCH   1  13
TORSDOF 2
ENDMDL
