MODEL 1
REMARK VINA RESULT:       8.3      0.000      0.000
REMARK  1 active torsions:
REMARK  status: ('A' for Active; 'I' for Inactive)
REMARK    1  A    between atoms: C_9  and  C_3 
ROOT
ATOM      1  N   UNL d   1     -52.002  23.961  33.355  0.00  0.00    -0.145 NA
ATOM      2  N   UNL d   1     -52.688  23.506  33.357  0.00  0.00    -0.106 NA
ATOM      3  C   UNL d   1     -52.055  24.786  33.340  0.00  0.00     0.103 A 
ATOM      4  C   UNL d   1     -53.427  23.871  33.343  0.00  0.00     0.297 A 
ATOM      5  C   UNL d   1     -52.791  25.159  33.327  0.00  0.00     0.026 A 
ATOM      6  C   UNL d   1     -53.479  24.695  33.329  0.00  0.00     0.066 A 
ATOM      7  O   UNL d   1     -54.113  23.414  33.345  0.00  0.00    -0.264 OA
ENDROOT
BRANCH   3   8
ATOM      8  C   UNL d   1     -51.368  25.243  33.339  0.00  0.00     0.022 A 
ATOM      9  C   UNL d   1     -51.419  26.071  33.369  0.00  0.00     0.022 A 
ATOM     10  C   UNL d   1     -50.733  26.527  33.367  0.00  0.00     0.099 A 
ATOM     11  N   UNL d   1     -49.994  26.162  33.336  0.00  0.00    -0.242 NA
ATOM     12  C   UNL d   1     -49.946  25.330  33.306  0.00  0.00     0.099 A 
ATOM     13  C   UNL d   1     -50.631  24.873  33.307  0.00  0.00     0.022 A 
ENDBRANCH   3   8
TORSDOF 1
ENDMDL
