MODEL 1
REMARK VINA RESULT:      -4.8      0.000      0.000
REMARK  3 active torsions:
REMARK  status: ('A' for Active; 'I' for Inactive)
REMARK    1  A    between atoms: N_3  and  C_1 
REMARK    2  A    between atoms: O_4  and  C_2 
REMARK    3  A    between atoms: C_7  and  O_4 
ROOT
ATOM      1  C   UNL d   1     -41.901-122.350 -54.119  0.00  0.00     0.205 A 
ATOM      2  C   UNL d   1     -41.626-122.443 -53.362  0.00  0.00     0.209 A 
ATOM      3  N   UNL d   1     -41.236-123.124 -53.160  0.00  0.00    -0.198 NA
ATOM      4  C   UNL d   1     -41.787-122.943 -54.684  0.00  0.00     0.211 A 
ATOM      5  N   UNL d   1     -41.398-123.623 -54.483  0.00  0.00    -0.202 NA
ATOM      6  C   UNL d   1     -41.123-123.721 -53.733  0.00  0.00     0.202 A 
ATOM      7  N   UNL d   1     -42.065-122.857 -55.458  0.00  0.00    -0.125 N 
ENDROOT
BRANCH   2   8
ATOM      8  O   UNL d   1     -41.729-121.853 -52.768  0.00  0.00    -0.288 OA
BRANCH   8   9
ATOM      9  C   UNL d   1     -41.632-122.061 -51.972  0.00  0.00     0.102 A 
ATOM     10  C   UNL d   1     -41.334-121.516 -51.441  0.00  0.00     0.023 A 
ATOM     11  C   UNL d   1     -41.239-121.729 -50.646  0.00  0.00     0.002 A 
ATOM     12  C   UNL d   1     -41.125-120.767 -51.662  0.00  0.00     0.002 C 
ATOM     13  C   UNL d   1     -41.443-122.486 -50.388  0.00  0.00     0.000 A 
ATOM     14  C   UNL d   1     -41.743-123.031 -50.929  0.00  0.00     0.002 A 
ATOM     15  C   UNL d   1     -41.845-122.828 -51.738  0.00  0.00     0.025 A 
ATOM     16  C   UNL d   1     -41.958-123.817 -50.676  0.00  0.00     0.000 C 
ENDBRANCH   8   9
ENDBRANCH   2   8
BRANCH   1  17
ATOM     17  N   UNL d   1     -42.297-121.660 -54.326  0.00  0.00    -0.107 N 
ATOM     18  O   UNL d   1     -41.881-121.027 -54.580  0.00  0.00    -0.531 OA
ATOM     19  O   UNL d   1     -43.110-121.632 -54.269  0.00  0.00    -0.531 OA
ENDBRANCH   1  17
TORSDOF 3
ENDMDL
MODEL 2
REMARK VINA RESULT:      -2.8      1.577      2.411
REMARK  3 active torsions:
REMARK  status: ('A' for Active; 'I' for Inactive)
REMARK    1  A    between atoms: N_3  and  C_1 
REMARK    2  A    between atoms: O_4  and  C_2 
REMARK    3  A    between atoms: C_7  and  O_4 
ROOT
ATOM      1  C   UNL d   1     -41.634-122.224 -51.878  0.00  0.00     0.205 A 
ATOM      2  C   UNL d   1     -41.576-122.644 -51.187  0.00  0.00     0.209 A 
ATOM      3  N   UNL d   1     -41.425-123.440 -51.215  0.00  0.00    -0.198 NA
ATOM      4  C   UNL d   1     -41.539-122.601 -52.608  0.00  0.00     0.211 A 
ATOM      5  N   UNL d   1     -41.388-123.395 -52.637  0.00  0.00    -0.202 NA
ATOM      6  C   UNL d   1     -41.330-123.817 -51.954  0.00  0.00     0.202 A 
ATOM      7  N   UNL d   1     -41.596-122.180 -53.318  0.00  0.00    -0.125 N 
ENDROOT
BRANCH   2   8
ATOM      8  O   UNL d   1     -41.669-122.284 -50.429  0.00  0.00    -0.288 OA
BRANCH   8   9
ATOM      9  C   UNL d   1     -42.103-122.679 -49.845  0.00  0.00     0.102 A 
ATOM     10  C   UNL d   1     -41.821-122.711 -49.078  0.00  0.00     0.023 A 
ATOM     11  C   UNL d   1     -42.259-123.108 -48.498  0.00  0.00     0.002 A 
ATOM     12  C   UNL d   1     -41.123-122.366 -48.860  0.00  0.00     0.002 C 
ATOM     13  C   UNL d   1     -42.976-123.470 -48.688  0.00  0.00     0.000 A 
ATOM     14  C   UNL d   1     -43.254-123.434 -49.464  0.00  0.00     0.002 A 
ATOM     15  C   UNL d   1     -42.819-123.035 -50.062  0.00  0.00     0.025 A 
ATOM     16  C   UNL d   1     -43.994-123.805 -49.675  0.00  0.00     0.000 C 
ENDBRANCH   8   9
ENDBRANCH   2   8
BRANCH   1  17
ATOM     17  N   UNL d   1     -41.787-121.417 -51.851  0.00  0.00    -0.107 N 
ATOM     18  O   UNL d   1     -42.519-121.148 -52.026  0.00  0.00    -0.531 OA
ATOM     19  O   UNL d   1     -41.189-120.902 -51.646  0.00  0.00    -0.531 OA
ENDBRANCH   1  17
TORSDOF 3
ENDMDL
MODEL 3
REMARK VINA RESULT:      -2.8      1.082      1.889
REMARK  3 active torsions:
REMARK  status: ('A' for Active; 'I' for Inactive)
REMARK    1  A    between atoms: N_3  and  C_1 
REMARK    2  A    between atoms: O_4  and  C_2 
REMARK    3  A    between atoms: C_7  and  O_4 
ROOT
ATOM      1  C   UNL d   1     -41.992-122.454 -54.401  0.00  0.00     0.205 A 
ATOM      2  C   UNL d   1     -41.767-122.212 -53.661  0.00  0.00     0.209 A 
ATOM      3  N   UNL d   1     -41.847-121.432 -53.456  0.00  0.00    -0.198 NA
ATOM      4  C   UNL d   1     -42.300-121.914 -54.946  0.00  0.00     0.211 A 
ATOM      5  N   UNL d   1     -42.380-121.135 -54.742  0.00  0.00    -0.202 NA
ATOM      6  C   UNL d   1     -42.159-120.889 -54.008  0.00  0.00     0.202 A 
ATOM      7  N   UNL d   1     -42.532-122.153 -55.703  0.00  0.00    -0.125 N 
ENDROOT
BRANCH   2   8
ATOM      8  O   UNL d   1     -41.450-122.743 -53.088  0.00  0.00    -0.288 OA
BRANCH   8   9
ATOM      9  C   UNL d   1     -41.341-122.479 -52.310  0.00  0.00     0.102 A 
ATOM     10  C   UNL d   1     -41.284-123.019 -51.699  0.00  0.00     0.023 A 
ATOM     11  C   UNL d   1     -41.175-122.749 -50.924  0.00  0.00     0.002 A 
ATOM     12  C   UNL d   1     -41.331-123.816 -51.823  0.00  0.00     0.002 C 
ATOM     13  C   UNL d   1     -41.123-121.941 -50.764  0.00  0.00     0.000 A 
ATOM     14  C   UNL d   1     -41.181-121.401 -51.385  0.00  0.00     0.002 A 
ATOM     15  C   UNL d   1     -41.292-121.662 -52.177  0.00  0.00     0.025 A 
ATOM     16  C   UNL d   1     -41.129-120.563 -51.235  0.00  0.00     0.000 C 
ENDBRANCH   8   9
ENDBRANCH   2   8
BRANCH   1  17
ATOM     17  N   UNL d   1     -41.912-123.245 -54.611  0.00  0.00    -0.107 N 
ATOM     18  O   UNL d   1     -41.206-123.516 -54.869  0.00  0.00    -0.531 OA
ATOM     19  O   UNL d   1     -42.556-123.743 -54.552  0.00  0.00    -0.531 OA
ENDBRANCH   1  17
TORSDOF 3
ENDMDL
MODEL 4
REMARK VINA RESULT:      -2.2      1.833      2.869
REMARK  3 active torsions:
REMARK  status: ('A' for Active; 'I' for Inactive)
REMARK    1  A    between atoms: N_3  and  C_1 
REMARK    2  A    between atoms: O_4  and  C_2 
REMARK    3  A    between atoms: C_7  and  O_4 
ROOT
ATOM      1  C   UNL d   1     -41.788-122.348 -51.862  0.00  0.00     0.205 A 
ATOM      2  C   UNL d   1     -41.957-122.371 -51.069  0.00  0.00     0.209 A 
ATOM      3  N   UNL d   1     -41.711-121.764 -50.592  0.00  0.00    -0.198 NA
ATOM      4  C   UNL d   1     -41.368-121.713 -52.184  0.00  0.00     0.211 A 
ATOM      5  N   UNL d   1     -41.123-121.107 -51.708  0.00  0.00    -0.202 NA
ATOM      6  C   UNL d   1     -41.288-121.124 -50.920  0.00  0.00     0.202 A 
ATOM      7  N   UNL d   1     -41.191-121.681 -52.992  0.00  0.00    -0.125 N 
ENDROOT
BRANCH   2   8
ATOM      8  O   UNL d   1     -42.383-123.007 -50.716  0.00  0.00    -0.288 OA
BRANCH   8   9
ATOM      9  C   UNL d   1     -42.451-123.039 -49.891  0.00  0.00     0.102 A 
ATOM     10  C   UNL d   1     -43.189-123.016 -49.539  0.00  0.00     0.023 A 
ATOM     11  C   UNL d   1     -43.250-123.048 -48.714  0.00  0.00     0.002 A 
ATOM     12  C   UNL d   1     -43.870-122.964 -49.971  0.00  0.00     0.002 C 
ATOM     13  C   UNL d   1     -42.573-123.102 -48.245  0.00  0.00     0.000 A 
ATOM     14  C   UNL d   1     -41.831-123.124 -48.606  0.00  0.00     0.002 A 
ATOM     15  C   UNL d   1     -41.755-123.092 -49.443  0.00  0.00     0.025 A 
ATOM     16  C   UNL d   1     -41.123-123.180 -48.133  0.00  0.00     0.000 C 
ENDBRANCH   8   9
ENDBRANCH   2   8
BRANCH   1  17
ATOM     17  N   UNL d   1     -42.036-122.962 -52.348  0.00  0.00    -0.107 N 
ATOM     18  O   UNL d   1     -41.739-123.696 -52.240  0.00  0.00    -0.531 OA
ATOM     19  O   UNL d   1     -42.583-122.813 -52.935  0.00  0.00    -0.531 OA
ENDBRANCH   1  17
TORSDOF 3
ENDMDL
