MODEL 1
REMARK VINA RESULT:      -0.7      0.000      0.000
REMARK  2 active torsions:
REMARK  status: ('A' for Active; 'I' for Inactive)
REMARK    1  A    between atoms: C_7  and  C_1 
REMARK       I    between atoms: N_13  and  C_7 
REMARK    2  A    between atoms: C_18  and  N_13 
ROOT
ATOM      1  N   UNL d   1      54.236   0.657  36.250  0.00  0.00    -0.191 NA
ATOM      2  C   UNL d   1      54.681   0.581  35.550  0.00  0.00     0.101 C 
ATOM      3  C   UNL d   1      56.016   0.352  33.458  0.00  0.00     0.085 A 
ATOM      4  C   UNL d   1      55.126   0.504  34.850  0.00  0.00     0.068 A 
ATOM      5  C   UNL d   1      56.370   0.255  34.193  0.00  0.00     0.020 A 
ATOM      6  C   UNL d   1      55.193   0.530  33.422  0.00  0.00     0.020 A 
ATOM      7  C   UNL d   1      55.941   0.328  34.893  0.00  0.00     0.012 A 
ATOM      8  C   UNL d   1      54.764   0.603  34.123  0.00  0.00     0.012 A 
ENDROOT
BRANCH   3   9
ATOM      9  N   UNL d   1      56.438   0.280  32.757  0.00  0.00    -0.208 NA
ATOM     10  C   UNL d   1      56.844  -0.437  32.626  0.00  0.00     0.283 C 
ATOM     11  O   UNL d   1      56.827  -1.038  33.159  0.00  0.00    -0.265 OA
BRANCH  10  12
ATOM     12  C   UNL d   1      57.269  -0.515  31.925  0.00  0.00     0.101 A 
ATOM     13  C   UNL d   1      57.028  -1.025  31.328  0.00  0.00     0.208 A 
ATOM     14  O   UNL d   1      57.447  -1.108  30.627  0.00  0.00    -0.288 OA
ATOM     15  N   UNL d   1      56.328  -1.479  31.440  0.00  0.00    -0.121 N 
ATOM     16  C   UNL d   1      58.148  -0.654  30.515  0.00  0.00     0.103 A 
ATOM     17  C   UNL d   1      58.387  -0.137  31.126  0.00  0.00     0.023 A 
ATOM     18  C   UNL d   1      58.563  -0.727  29.836  0.00  0.00     0.039 A 
ATOM     19  C   UNL d   1      57.971  -0.060  31.813  0.00  0.00     0.010 A 
ATOM     20  C   UNL d   1      59.087   0.321  31.022  0.00  0.00     0.003 A 
ATOM     21  C   UNL d   1      59.506   0.238  30.321  0.00  0.00     0.016 A 
ATOM     22  C   UNL d   1      59.264  -0.272  29.724  0.00  0.00     0.066 A 
ATOM     23  C   UNL d   1      60.209   0.682  30.186  0.00  0.00     0.003 A 
ATOM     24  N   UNL d   1      59.679  -0.341  29.053  0.00  0.00    -0.304 N 
ATOM     25  C   UNL d   1      59.438  -0.852  28.456  0.00  0.00     0.080 A 
ATOM     26  C   UNL d   1      60.380   0.113  28.941  0.00  0.00     0.080 A 
ATOM     27  C   UNL d   1      58.737  -1.306  28.568  0.00  0.00     0.019 A 
ATOM     28  C   UNL d   1      58.322  -1.233  29.247  0.00  0.00     0.005 A 
ATOM     29  C   UNL d   1      60.623   0.617  29.523  0.00  0.00     0.019 A 
ENDBRANCH  10  12
ENDBRANCH   3   9
TORSDOF 2
ENDMDL
MODEL 2
REMARK VINA RESULT:       0.9      1.113      6.000
REMARK  2 active torsions:
REMARK  status: ('A' for Active; 'I' for Inactive)
REMARK    1  A    between atoms: C_7  and  C_1 
REMARK       I    between atoms: N_13  and  C_7 
REMARK    2  A    between atoms: C_18  and  N_13 
ROOT
ATOM      1  N   UNL d   1      60.098  -0.413  28.523  0.00  0.00    -0.191 NA
ATOM      2  C   UNL d   1      59.546  -0.334  29.141  0.00  0.00     0.101 C 
ATOM      3  C   UNL d   1      57.891  -0.095  30.990  0.00  0.00     0.085 A 
ATOM      4  C   UNL d   1      58.993  -0.255  29.759  0.00  0.00     0.068 A 
ATOM      5  C   UNL d   1      58.026   0.524  30.467  0.00  0.00     0.020 A 
ATOM      6  C   UNL d   1      58.322  -0.813  30.892  0.00  0.00     0.020 A 
ATOM      7  C   UNL d   1      58.570   0.459  29.850  0.00  0.00     0.012 A 
ATOM      8  C   UNL d   1      58.866  -0.878  30.276  0.00  0.00     0.012 A 
ENDROOT
BRANCH   3   9
ATOM      9  N   UNL d   1      57.351  -0.036  31.605  0.00  0.00    -0.208 NA
ATOM     10  C   UNL d   1      57.616   0.313  32.315  0.00  0.00     0.283 C 
ATOM     11  O   UNL d   1      58.368   0.583  32.401  0.00  0.00    -0.265 OA
BRANCH  10  12
ATOM     12  C   UNL d   1      57.078   0.375  32.937  0.00  0.00     0.101 A 
ATOM     13  C   UNL d   1      57.326   0.407  33.719  0.00  0.00     0.208 A 
ATOM     14  O   UNL d   1      56.796   0.468  34.344  0.00  0.00    -0.288 OA
ATOM     15  N   UNL d   1      58.150   0.376  33.887  0.00  0.00    -0.121 N 
ATOM     16  C   UNL d   1      55.970   0.499  34.176  0.00  0.00     0.103 A 
ATOM     17  C   UNL d   1      55.727   0.466  33.378  0.00  0.00     0.023 A 
ATOM     18  C   UNL d   1      55.446   0.559  34.776  0.00  0.00     0.039 A 
ATOM     19  C   UNL d   1      56.253   0.405  32.769  0.00  0.00     0.010 A 
ATOM     20  C   UNL d   1      54.903   0.496  33.202  0.00  0.00     0.003 A 
ATOM     21  C   UNL d   1      54.373   0.557  33.826  0.00  0.00     0.016 A 
ATOM     22  C   UNL d   1      54.621   0.590  34.608  0.00  0.00     0.066 A 
ATOM     23  C   UNL d   1      53.544   0.589  33.683  0.00  0.00     0.003 A 
ATOM     24  N   UNL d   1      54.097   0.649  35.201  0.00  0.00    -0.304 N 
ATOM     25  C   UNL d   1      54.345   0.681  35.983  0.00  0.00     0.080 A 
ATOM     26  C   UNL d   1      53.272   0.680  35.033  0.00  0.00     0.080 A 
ATOM     27  C   UNL d   1      55.170   0.651  36.151  0.00  0.00     0.019 A 
ATOM     28  C   UNL d   1      55.694   0.591  35.551  0.00  0.00     0.005 A 
ATOM     29  C   UNL d   1      53.022   0.648  34.266  0.00  0.00     0.019 A 
ENDBRANCH  10  12
ENDBRANCH   3   9
TORSDOF 2
ENDMDL
MODEL 3
REMARK VINA RESULT:       2.2      1.030      5.738
REMARK  2 active torsions:
REMARK  status: ('A' for Active; 'I' for Inactive)
REMARK    1  A    between atoms: C_7  and  C_1 
REMARK       I    between atoms: N_13  and  C_7 
REMARK    2  A    between atoms: C_18  and  N_13 
ROOT
ATOM      1  N   UNL d   1      61.052  -0.285  28.607  0.00  0.00    -0.191 NA
ATOM      2  C   UNL d   1      60.471  -0.261  29.203  0.00  0.00     0.101 C 
ATOM      3  C   UNL d   1      58.728  -0.190  30.984  0.00  0.00     0.085 A 
ATOM      4  C   UNL d   1      59.889  -0.236  29.799  0.00  0.00     0.068 A 
ATOM      5  C   UNL d   1      58.608  -0.626  30.298  0.00  0.00     0.020 A 
ATOM      6  C   UNL d   1      59.451   0.233  31.077  0.00  0.00     0.020 A 
ATOM      7  C   UNL d   1      59.175  -0.658  29.700  0.00  0.00     0.012 A 
ATOM      8  C   UNL d   1      60.019   0.200  30.479  0.00  0.00     0.012 A 
ENDROOT
BRANCH   3   9
ATOM      9  N   UNL d   1      58.167  -0.154  31.582  0.00  0.00    -0.208 NA
ATOM     10  C   UNL d   1      57.477   0.290  31.433  0.00  0.00     0.283 C 
ATOM     11  O   UNL d   1      57.358   0.669  30.734  0.00  0.00    -0.265 OA
BRANCH  10  12
ATOM     12  C   UNL d   1      56.910   0.330  32.030  0.00  0.00     0.101 A 
ATOM     13  C   UNL d   1      56.106   0.297  31.864  0.00  0.00     0.208 A 
ATOM     14  O   UNL d   1      55.535   0.337  32.453  0.00  0.00    -0.288 OA
ATOM     15  N   UNL d   1      55.859   0.220  31.063  0.00  0.00    -0.121 N 
ATOM     16  C   UNL d   1      55.783   0.414  33.255  0.00  0.00     0.103 A 
ATOM     17  C   UNL d   1      56.602   0.447  33.416  0.00  0.00     0.023 A 
ATOM     18  C   UNL d   1      55.236   0.454  33.837  0.00  0.00     0.039 A 
ATOM     19  C   UNL d   1      57.157   0.408  32.832  0.00  0.00     0.010 A 
ATOM     20  C   UNL d   1      56.858   0.525  34.215  0.00  0.00     0.003 A 
ATOM     21  C   UNL d   1      56.287   0.565  34.805  0.00  0.00     0.016 A 
ATOM     22  C   UNL d   1      55.484   0.531  34.639  0.00  0.00     0.066 A 
ATOM     23  C   UNL d   1      56.511   0.642  35.613  0.00  0.00     0.003 A 
ATOM     24  N   UNL d   1      54.945   0.571  35.218  0.00  0.00    -0.304 N 
ATOM     25  C   UNL d   1      54.141   0.538  35.052  0.00  0.00     0.080 A 
ATOM     26  C   UNL d   1      55.192   0.648  36.020  0.00  0.00     0.080 A 
ATOM     27  C   UNL d   1      53.893   0.461  34.250  0.00  0.00     0.019 A 
ATOM     28  C   UNL d   1      54.440   0.421  33.669  0.00  0.00     0.005 A 
ATOM     29  C   UNL d   1      55.980   0.682  36.190  0.00  0.00     0.019 A 
ENDBRANCH  10  12
ENDBRANCH   3   9
TORSDOF 2
ENDMDL
