MODEL 1
REMARK VINA RESULT:      14.7      0.000      0.000
REMARK  1 active torsions:
REMARK  status: ('A' for Active; 'I' for Inactive)
REMARK    1  A    between atoms: C_11  and  C_4 
ROOT
ATOM      1  N   UNL d   1      46.012 -17.061  43.561  0.00  0.00    -0.242 NA
ATOM      2  C   UNL d   1      46.168 -17.851  43.435  0.00  0.00     0.099 A 
ATOM      3  N   UNL d   1      46.072 -18.113  44.828  0.00  0.00    -0.241 NA
ATOM      4  C   UNL d   1      45.887 -16.801  44.320  0.00  0.00     0.101 A 
ATOM      5  C   UNL d   1      46.198 -18.377  44.070  0.00  0.00     0.099 A 
ATOM      6  C   UNL d   1      46.295 -18.116  42.672  0.00  0.00     0.021 A 
ATOM      7  C   UNL d   1      46.456 -18.927  42.528  0.00  0.00     0.002 A 
ATOM      8  C   UNL d   1      46.486 -19.454  43.162  0.00  0.00     0.002 A 
ATOM      9  C   UNL d   1      46.354 -19.168  43.939  0.00  0.00     0.021 A 
ATOM     10  C   UNL d   1      45.917 -17.328  44.954  0.00  0.00     0.118 A 
ATOM     11  C   UNL d   1      46.587 -19.207  41.752  0.00  0.00     0.000 C 
ATOM     12  C   UNL d   1      46.647 -20.259  43.019  0.00  0.00     0.000 C 
ENDROOT
BRANCH   4  13
ATOM     13  C   UNL d   1      45.730 -16.010  44.447  0.00  0.00     0.019 A 
ATOM     14  C   UNL d   1      46.269 -15.438  44.213  0.00  0.00     0.002 A 
ATOM     15  C   UNL d   1      46.118 -14.611  44.340  0.00  0.00     0.000 A 
ATOM     16  C   UNL d   1      45.402 -14.418  44.710  0.00  0.00     0.000 A 
ATOM     17  C   UNL d   1      44.863 -14.991  44.944  0.00  0.00     0.000 A 
ATOM     18  C   UNL d   1      45.017 -15.779  44.818  0.00  0.00     0.002 A 
ENDBRANCH   4  13
TORSDOF 1
ENDMDL
