MODEL 1
REMARK VINA RESULT:      -2.9      0.000      0.000
REMARK  3 active torsions:
REMARK  status: ('A' for Active; 'I' for Inactive)
REMARK    1  A    between atoms: N_10  and  C_3 
REMARK    2  A    between atoms: C_11  and  C_5 
REMARK    3  A    between atoms: C_12  and  N_10 
ROOT
ATOM      1  N   UNL d   1      33.012  21.319 -21.280  0.00  0.00    -0.184 N 
ATOM      2  C   UNL d   1      33.049  21.034 -22.068  0.00  0.00     0.168 A 
ATOM      3  C   UNL d   1      32.935  22.131 -21.142  0.00  0.00     0.217 A 
ATOM      4  N   UNL d   1      33.128  19.991 -20.795  0.00  0.00    -0.162 NA
ATOM      5  C   UNL d   1      33.124  20.242 -22.204  0.00  0.00     0.055 A 
ATOM      6  N   UNL d   1      33.008  21.572 -22.690  0.00  0.00    -0.227 NA
ATOM      7  C   UNL d   1      32.896  22.649 -21.766  0.00  0.00     0.066 A 
ATOM      8  C   UNL d   1      33.165  19.711 -21.571  0.00  0.00     0.104 A 
ATOM      9  C   UNL d   1      32.932  22.372 -22.557  0.00  0.00     0.087 A 
ATOM     10  C   UNL d   1      32.821  23.456 -21.805  0.00  0.00     0.006 A 
ATOM     11  C   UNL d   1      33.241  18.910 -21.717  0.00  0.00     0.023 C 
ATOM     12  C   UNL d   1      32.879  23.015 -23.063  0.00  0.00     0.019 A 
ATOM     13  C   UNL d   1      32.810  23.692 -22.587  0.00  0.00     0.002 A 
ENDROOT
BRANCH   3  14
ATOM     14  N   UNL d   1      32.897  22.423 -20.347  0.00  0.00    -0.383 NA
BRANCH  14  15
ATOM     15  C   UNL d   1      32.855  22.710 -19.555  0.00  0.00     0.134 A 
ATOM     16  C   UNL d   1      33.241  22.286 -18.927  0.00  0.00     0.034 A 
ATOM     17  C   UNL d   1      33.197  22.577 -18.136  0.00  0.00     0.032 A 
ATOM     18  C   UNL d   1      32.774  23.283 -17.967  0.00  0.00     0.140 A 
ATOM     19  C   UNL d   1      32.391  23.702 -18.598  0.00  0.00     0.032 A 
ATOM     20  F   UNL d   1      32.729  23.575 -17.172  0.00  0.00    -0.204 F 
ATOM     21  C   UNL d   1      32.427  23.423 -19.388  0.00  0.00     0.034 A 
ENDBRANCH  14  15
ENDBRANCH   3  14
BRANCH   5  22
ATOM     22  C   UNL d   1      33.161  19.964 -22.976  0.00  0.00     0.004 A 
ATOM     23  C   UNL d   1      33.185  20.491 -23.605  0.00  0.00     0.000 A 
ATOM     24  C   UNL d   1      33.221  20.217 -24.375  0.00  0.00     0.000 A 
ATOM     25  C   UNL d   1      33.234  19.405 -24.520  0.00  0.00     0.000 A 
ATOM     26  C   UNL d   1      33.210  18.878 -23.905  0.00  0.00     0.000 A 
ATOM     27  C   UNL d   1      33.173  19.160 -23.124  0.00  0.00     0.000 A 
ENDBRANCH   5  22
TORSDOF 3
ENDMDL
