MODEL 1
REMARK VINA RESULT:      36.5      0.000      0.000
REMARK  7 active torsions:
REMARK  status: ('A' for Active; 'I' for Inactive)
REMARK    1  A    between atoms: S_10  and  C_4 
REMARK    2  A    between atoms: C_19  and  C_9 
REMARK    3  A    between atoms: C_13  and  S_10 
REMARK    4  A    between atoms: C_11  and  C_13 
REMARK       I    between atoms: N_14  and  C_11 
REMARK    5  A    between atoms: C_16  and  N_14 
REMARK    6  A    between atoms: C_20  and  C_16 
REMARK    7  A    between atoms: C_18  and  C_20 
ROOT
ATOM      1  C   UNL d   1      44.291 -16.167  37.539  0.00  0.00     0.141 A 
ATOM      2  C   UNL d   1      44.256 -15.521  37.028  0.00  0.00     0.110 A 
ATOM      3  O   UNL d   1      43.518 -16.416  37.690  0.00  0.00    -0.303 OA
ATOM      4  C   UNL d   1      45.022 -16.446  37.802  0.00  0.00     0.137 A 
ATOM      5  N   UNL d   1      45.718 -16.078  37.553  0.00  0.00    -0.218 NA
ATOM      6  C   UNL d   1      43.462 -15.370  36.863  0.00  0.00     0.043 A 
ATOM      7  N   UNL d   1      44.951 -15.153  36.779  0.00  0.00    -0.225 NA
ATOM      8  C   UNL d   1      43.006 -15.923  37.272  0.00  0.00     0.102 A 
ATOM      9  C   UNL d   1      45.682 -15.433  37.042  0.00  0.00     0.163 A 
ATOM     10  C   UNL d   1      43.094 -14.800  36.392  0.00  0.00     0.004 A 
ATOM     11  C   UNL d   1      42.184 -15.907  37.211  0.00  0.00     0.025 A 
ATOM     12  C   UNL d   1      42.271 -14.784  36.331  0.00  0.00     0.000 A 
ATOM     13  C   UNL d   1      41.816 -15.337  36.740  0.00  0.00     0.002 A 
ENDROOT
BRANCH   4  14
ATOM     14  S   UNL d   1      45.057 -17.093  38.314  0.00  0.00    -0.060 SA
BRANCH  14  15
ATOM     15  C   UNL d   1      45.436 -17.021  39.042  0.00  0.00     0.099 C 
BRANCH  15  16
ATOM     16  C   UNL d   1      45.592 -17.695  39.493  0.00  0.00     0.286 C 
ATOM     17  O   UNL d   1      45.470 -18.445  39.168  0.00  0.00    -0.265 OA
ATOM     18  N   UNL d   1      45.868 -17.620  40.266  0.00  0.00    -0.206 NA
BRANCH  18  19
ATOM     19  C   UNL d   1      46.023 -18.294  40.716  0.00  0.00     0.102 C 
BRANCH  19  20
ATOM     20  C   UNL d   1      46.647 -18.296  41.255  0.00  0.00     0.021 C 
BRANCH  20  21
ATOM     21  C   UNL d   1      46.625 -18.796  41.911  0.00  0.00     0.002 A 
ATOM     22  C   UNL d   1      46.605 -18.477  42.674  0.00  0.00     0.000 A 
ATOM     23  C   UNL d   1      46.583 -18.976  43.329  0.00  0.00     0.000 A 
ATOM     24  C   UNL d   1      46.580 -19.794  43.225  0.00  0.00     0.000 A 
ATOM     25  C   UNL d   1      46.599 -20.114  42.465  0.00  0.00     0.000 A 
ATOM     26  C   UNL d   1      46.622 -19.614  41.808  0.00  0.00     0.000 A 
ENDBRANCH  20  21
ENDBRANCH  19  20
ENDBRANCH  18  19
ENDBRANCH  15  16
ENDBRANCH  14  15
ENDBRANCH   4  14
BRANCH   9  27
ATOM     27  C   UNL d   1      46.377 -15.064  36.792  0.00  0.00     0.039 C 
ATOM     28  C   UNL d   1      46.570 -14.313  37.074  0.00  0.00     0.003 C 
ENDBRANCH   9  27
TORSDOF 7
ENDMDL
