MODEL 1
REMARK VINA RESULT:      -5.5      0.000      0.000
REMARK  5 active torsions:
REMARK  status: ('A' for Active; 'I' for Inactive)
REMARK    1  A    between atoms: S_6  and  C_2 
REMARK    2  A    between atoms: C_16  and  S_6 
REMARK    3  A    between atoms: C_8  and  C_16 
REMARK       I    between atoms: N_13  and  C_8 
REMARK    4  A    between atoms: C_19  and  N_13 
REMARK    5  A    between atoms: C_18  and  C_19 
ROOT
ATOM      1  C   UNL d   1     -41.508-122.470 -51.108  0.00  0.00     0.286 C 
ATOM      2  N   UNL d   1     -41.588-122.680 -51.895  0.00  0.00    -0.206 NA
ATOM      3  O   UNL d   1     -41.154-121.753 -50.907  0.00  0.00    -0.265 OA
ENDROOT
BRANCH   1   4
ATOM      4  C   UNL d   1     -41.779-122.971 -50.510  0.00  0.00     0.098 C 
BRANCH   4   5
ATOM      5  S   UNL d   1     -41.603-122.804 -49.719  0.00  0.00    -0.080 SA
BRANCH   5   6
ATOM      6  C   UNL d   1     -42.099-123.089 -49.126  0.00  0.00     0.049 A 
ATOM      7  C   UNL d   1     -42.897-123.294 -49.209  0.00  0.00     0.087 A 
ATOM      8  N   UNL d   1     -43.177-123.553 -48.476  0.00  0.00    -0.302 N 
ATOM      9  C   UNL d   1     -42.549-123.508 -47.939  0.00  0.00     0.065 A 
ATOM     10  C   UNL d   1     -43.939-123.811 -48.302  0.00  0.00     0.100 C 
ATOM     11  C   UNL d   1     -41.885-123.221 -48.343  0.00  0.00     0.024 A 
ATOM     12  C   UNL d   1     -42.498-123.692 -47.130  0.00  0.00     0.018 A 
ATOM     13  C   UNL d   1     -41.170-123.119 -47.938  0.00  0.00     0.002 A 
ATOM     14  C   UNL d   1     -41.123-123.303 -47.137  0.00  0.00     0.000 A 
ATOM     15  C   UNL d   1     -41.787-123.589 -46.733  0.00  0.00     0.002 A 
ENDBRANCH   5   6
ENDBRANCH   4   5
ENDBRANCH   1   4
BRANCH   2  16
ATOM     16  C   UNL d   1     -41.319-122.182 -52.483  0.00  0.00     0.102 C 
BRANCH  16  17
ATOM     17  C   UNL d   1     -41.479-122.310 -53.277  0.00  0.00     0.021 A 
ATOM     18  C   UNL d   1     -42.008-121.805 -53.664  0.00  0.00     0.028 A 
ATOM     19  C   UNL d   1     -42.176-121.931 -54.475  0.00  0.00     0.119 A 
ATOM     20  O   UNL d   1     -42.655-121.546 -55.001  0.00  0.00    -0.300 OA
ATOM     21  C   UNL d   1     -41.809-122.555 -54.866  0.00  0.00     0.119 A 
ATOM     22  C   UNL d   1     -42.600-121.917 -55.727  0.00  0.00     0.304 A 
ATOM     23  O   UNL d   1     -42.073-122.547 -55.648  0.00  0.00    -0.300 OA
ATOM     24  C   UNL d   1     -41.280-123.053 -54.462  0.00  0.00     0.026 A 
ATOM     25  C   UNL d   1     -41.126-122.918 -53.669  0.00  0.00     0.004 A 
ENDBRANCH  16  17
ENDBRANCH   2  16
TORSDOF 5
ENDMDL
MODEL 2
REMARK VINA RESULT:      -3.5      0.665      1.368
REMARK  5 active torsions:
REMARK  status: ('A' for Active; 'I' for Inactive)
REMARK    1  A    between atoms: S_6  and  C_2 
REMARK    2  A    between atoms: C_16  and  S_6 
REMARK    3  A    between atoms: C_8  and  C_16 
REMARK       I    between atoms: N_13  and  C_8 
REMARK    4  A    between atoms: C_19  and  N_13 
REMARK    5  A    between atoms: C_18  and  C_19 
ROOT
ATOM      1  C   UNL d   1     -41.234-121.944 -51.372  0.00  0.00     0.286 C 
ATOM      2  N   UNL d   1     -41.220-122.242 -52.134  0.00  0.00    -0.206 NA
ATOM      3  O   UNL d   1     -41.358-121.139 -51.247  0.00  0.00    -0.265 OA
ENDROOT
BRANCH   1   4
ATOM      4  C   UNL d   1     -41.124-122.444 -50.724  0.00  0.00     0.098 C 
BRANCH   4   5
ATOM      5  S   UNL d   1     -41.707-122.994 -50.522  0.00  0.00    -0.080 SA
BRANCH   5   6
ATOM      6  C   UNL d   1     -41.795-123.220 -49.736  0.00  0.00     0.049 A 
ATOM      7  C   UNL d   1     -41.188-123.309 -49.179  0.00  0.00     0.087 A 
ATOM      8  N   UNL d   1     -41.524-123.542 -48.462  0.00  0.00    -0.302 N 
ATOM      9  C   UNL d   1     -42.342-123.597 -48.575  0.00  0.00     0.065 A 
ATOM     10  C   UNL d   1     -41.127-123.694 -47.757  0.00  0.00     0.100 C 
ATOM     11  C   UNL d   1     -42.507-123.398 -49.362  0.00  0.00     0.024 A 
ATOM     12  C   UNL d   1     -42.960-123.805 -48.059  0.00  0.00     0.018 A 
ATOM     13  C   UNL d   1     -43.288-123.406 -49.634  0.00  0.00     0.002 A 
ATOM     14  C   UNL d   1     -43.898-123.612 -49.121  0.00  0.00     0.000 A 
ATOM     15  C   UNL d   1     -43.734-123.811 -48.334  0.00  0.00     0.002 A 
ENDBRANCH   5   6
ENDBRANCH   4   5
ENDBRANCH   1   4
BRANCH   2  16
ATOM     16  C   UNL d   1     -41.329-121.744 -52.772  0.00  0.00     0.102 C 
BRANCH  16  17
ATOM     17  C   UNL d   1     -41.516-122.021 -53.521  0.00  0.00     0.021 A 
ATOM     18  C   UNL d   1     -42.038-121.583 -53.990  0.00  0.00     0.028 A 
ATOM     19  C   UNL d   1     -42.233-121.860 -54.755  0.00  0.00     0.119 A 
ATOM     20  O   UNL d   1     -42.714-121.570 -55.338  0.00  0.00    -0.300 OA
ATOM     21  C   UNL d   1     -41.899-122.564 -55.022  0.00  0.00     0.119 A 
ATOM     22  C   UNL d   1     -42.692-122.080 -55.975  0.00  0.00     0.304 A 
ATOM     23  O   UNL d   1     -42.185-122.702 -55.784  0.00  0.00    -0.300 OA
ATOM     24  C   UNL d   1     -41.376-122.992 -54.538  0.00  0.00     0.026 A 
ATOM     25  C   UNL d   1     -41.194-122.708 -53.791  0.00  0.00     0.004 A 
ENDBRANCH  16  17
ENDBRANCH   2  16
TORSDOF 5
ENDMDL
