MODEL 1
REMARK VINA RESULT:     -11.5      0.000      0.000
REMARK  4 active torsions:
REMARK  status: ('A' for Active; 'I' for Inactive)
REMARK    1  A    between atoms: N_7  and  C_1 
REMARK    2  A    between atoms: C_8  and  C_4 
REMARK    3  A    between atoms: C_10  and  N_7 
REMARK    4  A    between atoms: C_12  and  C_8 
ROOT
ATOM      1  C   UNL d   1      52.631  33.483  53.570  0.00  0.00     0.184 A 
ATOM      2  N   UNL d   1      52.381  32.813  53.147  0.00  0.00    -0.129 NA
ATOM      3  N   UNL d   1      52.799  32.104  53.214  0.00  0.00    -0.147 NA
ATOM      4  C   UNL d   1      53.458  32.055  53.694  0.00  0.00     0.103 A 
ATOM      5  C   UNL d   1      53.296  33.426  54.050  0.00  0.00     0.039 A 
ATOM      6  C   UNL d   1      53.714  32.715  54.117  0.00  0.00     0.022 A 
ATOM      7  C   UNL d   1      53.541  34.104  54.472  0.00  0.00     0.003 A 
ATOM      8  C   UNL d   1      54.383  32.675  54.607  0.00  0.00     0.002 A 
ATOM      9  C   UNL d   1      54.624  33.337  55.019  0.00  0.00     0.000 A 
ATOM     10  C   UNL d   1      54.206  34.047  54.952  0.00  0.00     0.000 A 
ENDROOT
BRANCH   1  11
ATOM     11  N   UNL d   1      52.218  34.184  53.503  0.00  0.00    -0.225 NA
BRANCH  11  12
ATOM     12  C   UNL d   1      51.554  34.229  53.030  0.00  0.00     0.083 A 
ATOM     13  C   UNL d   1      51.628  34.326  52.217  0.00  0.00     0.020 A 
ATOM     14  C   UNL d   1      50.965  34.370  51.749  0.00  0.00     0.013 A 
ATOM     15  C   UNL d   1      50.212  34.320  52.071  0.00  0.00     0.058 A 
ATOM     16  C   UNL d   1      50.137  34.222  52.888  0.00  0.00     0.013 A 
ATOM     17 CL   UNL d   1      49.547  34.362  51.617  0.00  0.00    -0.082 Cl
ATOM     18  C   UNL d   1      50.805  34.176  53.372  0.00  0.00     0.020 A 
ENDBRANCH  11  12
ENDBRANCH   1  11
BRANCH   4  19
ATOM     19  C   UNL d   1      53.876  31.345  53.761  0.00  0.00     0.021 C 
BRANCH  19  20
ATOM     20  C   UNL d   1      53.482  30.622  53.656  0.00  0.00     0.005 A 
ATOM     21  C   UNL d   1      53.278  30.377  52.905  0.00  0.00     0.021 A 
ATOM     22  C   UNL d   1      52.888  29.661  52.806  0.00  0.00     0.099 A 
ATOM     23  N   UNL d   1      52.706  29.196  53.460  0.00  0.00    -0.242 NA
ATOM     24  C   UNL d   1      52.913  29.445  54.214  0.00  0.00     0.099 A 
ATOM     25  C   UNL d   1      53.307  30.170  54.307  0.00  0.00     0.021 A 
ENDBRANCH  19  20
ENDBRANCH   4  19
TORSDOF 4
ENDMDL
MODEL 2
REMARK VINA RESULT:     -10.5      1.506      3.928
REMARK  4 active torsions:
REMARK  status: ('A' for Active; 'I' for Inactive)
REMARK    1  A    between atoms: N_7  and  C_1 
REMARK    2  A    between atoms: C_8  and  C_4 
REMARK    3  A    between atoms: C_10  and  N_7 
REMARK    4  A    between atoms: C_12  and  C_8 
ROOT
ATOM      1  C   UNL d   1      53.552  32.344  53.715  0.00  0.00     0.184 A 
ATOM      2  N   UNL d   1      52.921  32.339  53.175  0.00  0.00    -0.129 NA
ATOM      3  N   UNL d   1      52.481  33.027  53.050  0.00  0.00    -0.147 NA
ATOM      4  C   UNL d   1      52.662  33.713  53.454  0.00  0.00     0.103 A 
ATOM      5  C   UNL d   1      53.727  33.038  54.118  0.00  0.00     0.039 A 
ATOM      6  C   UNL d   1      53.287  33.727  53.993  0.00  0.00     0.022 A 
ATOM      7  C   UNL d   1      54.363  33.034  54.660  0.00  0.00     0.003 A 
ATOM      8  C   UNL d   1      53.477  34.420  54.408  0.00  0.00     0.002 A 
ATOM      9  C   UNL d   1      54.098  34.418  54.938  0.00  0.00     0.000 A 
ATOM     10  C   UNL d   1      54.538  33.729  55.063  0.00  0.00     0.000 A 
ENDROOT
BRANCH   1  11
ATOM     11  N   UNL d   1      53.987  31.663  53.839  0.00  0.00    -0.225 NA
BRANCH  11  12
ATOM     12  C   UNL d   1      53.642  30.929  53.741  0.00  0.00     0.083 A 
ATOM     13  C   UNL d   1      53.545  30.613  52.988  0.00  0.00     0.020 A 
ATOM     14  C   UNL d   1      53.201  29.882  52.894  0.00  0.00     0.013 A 
ATOM     15  C   UNL d   1      52.946  29.445  53.540  0.00  0.00     0.058 A 
ATOM     16  C   UNL d   1      53.044  29.763  54.297  0.00  0.00     0.013 A 
ATOM     17 CL   UNL d   1      52.604  28.719  53.460  0.00  0.00    -0.082 Cl
ATOM     18  C   UNL d   1      53.392  30.505  54.403  0.00  0.00     0.020 A 
ENDBRANCH  11  12
ENDBRANCH   1  11
BRANCH   4  19
ATOM     19  C   UNL d   1      52.222  34.402  53.329  0.00  0.00     0.021 C 
BRANCH  19  20
ATOM     20  C   UNL d   1      51.513  34.367  52.898  0.00  0.00     0.005 A 
ATOM     21  C   UNL d   1      51.535  34.364  52.082  0.00  0.00     0.021 A 
ATOM     22  C   UNL d   1      50.832  34.329  51.659  0.00  0.00     0.099 A 
ATOM     23  N   UNL d   1      50.113  34.297  52.056  0.00  0.00    -0.242 NA
ATOM     24  C   UNL d   1      50.094  34.299  52.877  0.00  0.00     0.099 A 
ATOM     25  C   UNL d   1      50.808  34.335  53.298  0.00  0.00     0.021 A 
ENDBRANCH  19  20
ENDBRANCH   4  19
TORSDOF 4
ENDMDL
MODEL 3
REMARK VINA RESULT:     -10.2      1.140      2.926
REMARK  4 active torsions:
REMARK  status: ('A' for Active; 'I' for Inactive)
REMARK    1  A    between atoms: N_7  and  C_1 
REMARK    2  A    between atoms: C_8  and  C_4 
REMARK    3  A    between atoms: C_10  and  N_7 
REMARK    4  A    between atoms: C_12  and  C_8 
ROOT
ATOM      1  C   UNL d   1      52.438  32.499  52.886  0.00  0.00     0.184 A 
ATOM      2  N   UNL d   1      52.812  33.187  53.163  0.00  0.00    -0.129 NA
ATOM      3  N   UNL d   1      53.510  33.128  53.601  0.00  0.00    -0.147 NA
ATOM      4  C   UNL d   1      53.835  32.397  53.765  0.00  0.00     0.103 A 
ATOM      5  C   UNL d   1      52.772  31.768  53.055  0.00  0.00     0.039 A 
ATOM      6  C   UNL d   1      53.470  31.709  53.494  0.00  0.00     0.022 A 
ATOM      7  C   UNL d   1      52.389  31.081  52.773  0.00  0.00     0.003 A 
ATOM      8  C   UNL d   1      53.794  30.962  53.656  0.00  0.00     0.002 A 
ATOM      9  C   UNL d   1      53.421  30.290  53.381  0.00  0.00     0.000 A 
ATOM     10  C   UNL d   1      52.723  30.349  52.942  0.00  0.00     0.000 A 
ENDROOT
BRANCH   1  11
ATOM     11  N   UNL d   1      51.747  32.558  52.453  0.00  0.00    -0.225 NA
BRANCH  11  12
ATOM     12  C   UNL d   1      51.240  33.188  52.567  0.00  0.00     0.083 A 
ATOM     13  C   UNL d   1      50.729  33.199  53.211  0.00  0.00     0.020 A 
ATOM     14  C   UNL d   1      50.225  33.828  53.321  0.00  0.00     0.013 A 
ATOM     15  C   UNL d   1      50.214  34.461  52.800  0.00  0.00     0.058 A 
ATOM     16  C   UNL d   1      50.728  34.451  52.152  0.00  0.00     0.013 A 
ATOM     17 CL   UNL d   1      49.719  35.090  52.898  0.00  0.00    -0.082 Cl
ATOM     18  C   UNL d   1      51.244  33.816  52.032  0.00  0.00     0.020 A 
ENDBRANCH  11  12
ENDBRANCH   1  11
BRANCH   4  19
ATOM     19  C   UNL d   1      54.534  32.338  54.204  0.00  0.00     0.021 C 
BRANCH  19  20
ATOM     20  C   UNL d   1      54.800  32.988  54.646  0.00  0.00     0.005 A 
ATOM     21  C   UNL d   1      54.503  33.118  55.395  0.00  0.00     0.021 A 
ATOM     22  C   UNL d   1      54.769  33.763  55.828  0.00  0.00     0.099 A 
ATOM     23  N   UNL d   1      55.331  34.272  55.510  0.00  0.00    -0.242 NA
ATOM     24  C   UNL d   1      55.628  34.139  54.756  0.00  0.00     0.099 A 
ATOM     25  C   UNL d   1      55.355  33.486  54.323  0.00  0.00     0.021 A 
ENDBRANCH  19  20
ENDBRANCH   4  19
TORSDOF 4
ENDMDL
