MODEL 1
REMARK VINA RESULT:      44.6      0.000      0.000
REMARK  4 active torsions:
REMARK  status: ('A' for Active; 'I' for Inactive)
REMARK    1  A    between atoms: C_2  and  S_1 
REMARK    2  A    between atoms: N_11  and  S_1 
REMARK    3  A    between atoms: C_7  and  C_19 
REMARK    4  A    between atoms: C_19  and  N_11 
ROOT
ATOM      1  C   UNL d   1     -50.052  25.976  33.317  0.00  0.00     0.133 C 
ENDROOT
BRANCH   1   2
ATOM      2  C   UNL d   1     -50.662  25.413  33.314  0.00  0.00     0.120 A 
ATOM      3  N   UNL d   1     -51.452  25.588  33.314  0.00  0.00    -0.225 NA
ATOM      4  C   UNL d   1     -51.875  24.865  33.311  0.00  0.00     0.148 A 
ATOM      5  C   UNL d   1     -52.682  24.695  33.310  0.00  0.00     0.037 A 
ATOM      6  N   UNL d   1     -51.324  24.252  33.310  0.00  0.00    -0.288 N 
ATOM      7  C   UNL d   1     -52.939  23.912  33.307  0.00  0.00     0.004 A 
ATOM      8  C   UNL d   1     -53.748  23.751  33.306  0.00  0.00     0.000 C 
ATOM      9  C   UNL d   1     -52.389  23.301  33.306  0.00  0.00     0.019 A 
ATOM     10  C   UNL d   1     -51.582  23.470  33.308  0.00  0.00     0.082 A 
ATOM     11  C   UNL d   1     -50.566  24.591  33.312  0.00  0.00     0.102 A 
ENDBRANCH   1   2
BRANCH   1  12
ATOM     12  N   UNL d   1     -50.234  26.780  33.358  0.00  0.00    -0.155 NA
BRANCH  12  13
ATOM     13  S   UNL d   1     -49.787  27.276  33.848  0.00  0.00     0.291 S 
ATOM     14  O   UNL d   1     -50.436  27.795  33.912  0.00  0.00    -0.198 OA
ATOM     15  O   UNL d   1     -49.140  26.753  33.780  0.00  0.00    -0.198 OA
BRANCH  13  16
ATOM     16  C   UNL d   1     -49.339  27.769  34.335  0.00  0.00     0.135 A 
ATOM     17  S   UNL d   1     -48.994  28.477  34.120  0.00  0.00    -0.062 SA
ATOM     18  C   UNL d   1     -48.599  28.788  34.774  0.00  0.00     0.088 A 
ATOM     19 CL   UNL d   1     -48.178  29.494  34.794  0.00  0.00    -0.075 Cl
ATOM     20  C   UNL d   1     -48.706  28.256  35.407  0.00  0.00     0.019 A 
ATOM     21  C   UNL d   1     -49.163  27.628  35.135  0.00  0.00     0.021 A 
ENDBRANCH  13  16
ENDBRANCH  12  13
ENDBRANCH   1  12
TORSDOF 4
ENDMDL
