MODEL 1
REMARK VINA RESULT:      -3.5      0.000      0.000
REMARK  5 active torsions:
REMARK  status: ('A' for Active; 'I' for Inactive)
REMARK    1  A    between atoms: N_2  and  S_1 
REMARK    2  A    between atoms: C_5  and  S_1 
REMARK    3  A    between atoms: C_3  and  N_2 
REMARK    4  A    between atoms: C_4  and  C_3 
REMARK       I    between atoms: N_8  and  C_4 
REMARK    5  A    between atoms: C_13  and  N_8 
ROOT
ATOM      1  N   UNL d   1      33.138  20.165 -22.088  0.00  0.00    -0.223 N 
ATOM      2  C   UNL d   1      33.127  20.613 -22.780  0.00  0.00     0.112 C 
ENDROOT
BRANCH   1   3
ATOM      3  S   UNL d   1      33.047  20.534 -21.361  0.00  0.00     0.272 S 
ATOM      4  O   UNL d   1      33.195  20.119 -20.664  0.00  0.00    -0.200 OA
ATOM      5  O   UNL d   1      32.952  20.767 -22.145  0.00  0.00    -0.200 OA
BRANCH   3   6
ATOM      6  C   UNL d   1      32.806  21.321 -21.324  0.00  0.00     0.104 A 
ATOM      7  C   UNL d   1      33.226  21.903 -21.736  0.00  0.00     0.013 A 
ATOM      8  C   UNL d   1      32.978  22.691 -21.694  0.00  0.00     0.001 A 
ATOM      9  C   UNL d   1      32.319  22.900 -21.246  0.00  0.00     0.000 A 
ATOM     10  C   UNL d   1      31.899  22.323 -20.835  0.00  0.00     0.001 A 
ATOM     11  C   UNL d   1      32.079  23.694 -21.211  0.00  0.00     0.000 C 
ATOM     12  C   UNL d   1      32.140  21.532 -20.871  0.00  0.00     0.013 A 
ENDBRANCH   3   6
ENDBRANCH   1   3
BRANCH   1  13
ATOM     13  C   UNL d   1      33.241  19.349 -22.127  0.00  0.00     0.154 C 
BRANCH  13  14
ATOM     14  C   UNL d   1      33.056  18.934 -22.816  0.00  0.00     0.298 C 
ATOM     15  N   UNL d   1      32.692  18.195 -22.777  0.00  0.00    -0.207 NA
ATOM     16  O   UNL d   1      33.238  19.266 -23.549  0.00  0.00    -0.264 OA
BRANCH  15  17
ATOM     17  C   UNL d   1      32.512  17.790 -23.470  0.00  0.00     0.088 A 
ATOM     18  C   UNL d   1      33.045  17.245 -23.771  0.00  0.00     0.040 A 
ATOM     19  C   UNL d   1      32.865  16.840 -24.465  0.00  0.00     0.101 A 
ATOM     20  N   UNL d   1      32.151  16.985 -24.850  0.00  0.00    -0.242 NA
ATOM     21  C   UNL d   1      31.620  17.534 -24.541  0.00  0.00     0.101 A 
ATOM     22  C   UNL d   1      31.803  17.937 -23.849  0.00  0.00     0.040 A 
ENDBRANCH  15  17
ENDBRANCH  13  14
ENDBRANCH   1  13
TORSDOF 5
ENDMDL
MODEL 2
REMARK VINA RESULT:      -2.9      1.526      4.852
REMARK  5 active torsions:
REMARK  status: ('A' for Active; 'I' for Inactive)
REMARK    1  A    between atoms: N_2  and  S_1 
REMARK    2  A    between atoms: C_5  and  S_1 
REMARK    3  A    between atoms: C_3  and  N_2 
REMARK    4  A    between atoms: C_4  and  C_3 
REMARK       I    between atoms: N_8  and  C_4 
REMARK    5  A    between atoms: C_13  and  N_8 
ROOT
ATOM      1  N   UNL d   1      32.550  18.289 -23.685  0.00  0.00    -0.223 N 
ATOM      2  C   UNL d   1      32.130  18.850 -24.121  0.00  0.00     0.112 C 
ENDROOT
BRANCH   1   3
ATOM      3  S   UNL d   1      32.536  17.501 -23.914  0.00  0.00     0.272 S 
ATOM      4  O   UNL d   1      33.241  17.106 -24.083  0.00  0.00    -0.200 OA
ATOM      5  O   UNL d   1      31.962  18.055 -23.708  0.00  0.00    -0.200 OA
BRANCH   3   6
ATOM      6  C   UNL d   1      31.819  17.101 -23.975  0.00  0.00     0.104 A 
ATOM      7  C   UNL d   1      31.313  17.252 -24.611  0.00  0.00     0.013 A 
ATOM      8  C   UNL d   1      30.595  16.846 -24.666  0.00  0.00     0.001 A 
ATOM      9  C   UNL d   1      30.381  16.293 -24.093  0.00  0.00     0.000 A 
ATOM     10  C   UNL d   1      30.883  16.140 -23.459  0.00  0.00     0.001 A 
ATOM     11  C   UNL d   1      29.657  15.890 -24.158  0.00  0.00     0.000 C 
ATOM     12  C   UNL d   1      31.603  16.542 -23.396  0.00  0.00     0.013 A 
ENDBRANCH   3   6
ENDBRANCH   1   3
BRANCH   1  13
ATOM     13  C   UNL d   1      32.981  18.520 -23.022  0.00  0.00     0.154 C 
BRANCH  13  14
ATOM     14  C   UNL d   1      33.022  19.315 -22.803  0.00  0.00     0.298 C 
ATOM     15  N   UNL d   1      32.875  19.543 -22.024  0.00  0.00    -0.207 NA
ATOM     16  O   UNL d   1      33.212  19.882 -23.371  0.00  0.00    -0.264 OA
BRANCH  15  17
ATOM     17  C   UNL d   1      32.919  20.338 -21.816  0.00  0.00     0.088 A 
ATOM     18  C   UNL d   1      32.683  20.574 -21.067  0.00  0.00     0.040 A 
ATOM     19  C   UNL d   1      32.727  21.370 -20.859  0.00  0.00     0.101 A 
ATOM     20  N   UNL d   1      33.006  21.920 -21.404  0.00  0.00    -0.242 NA
ATOM     21  C   UNL d   1      33.241  21.676 -22.155  0.00  0.00     0.101 A 
ATOM     22  C   UNL d   1      33.196  20.882 -22.359  0.00  0.00     0.040 A 
ENDBRANCH  15  17
ENDBRANCH  13  14
ENDBRANCH   1  13
TORSDOF 5
ENDMDL
MODEL 3
REMARK VINA RESULT:      -2.0      2.029      2.992
REMARK  5 active torsions:
REMARK  status: ('A' for Active; 'I' for Inactive)
REMARK    1  A    between atoms: N_2  and  S_1 
REMARK    2  A    between atoms: C_5  and  S_1 
REMARK    3  A    between atoms: C_3  and  N_2 
REMARK    4  A    between atoms: C_4  and  C_3 
REMARK       I    between atoms: N_8  and  C_4 
REMARK    5  A    between atoms: C_13  and  N_8 
ROOT
ATOM      1  N   UNL d   1      32.650  22.297 -20.613  0.00  0.00    -0.223 N 
ATOM      2  C   UNL d   1      31.935  21.909 -20.476  0.00  0.00     0.112 C 
ENDROOT
BRANCH   1   3
ATOM      3  S   UNL d   1      32.777  23.042 -20.294  0.00  0.00     0.272 S 
ATOM      4  O   UNL d   1      33.010  23.667 -20.779  0.00  0.00    -0.200 OA
ATOM      5  O   UNL d   1      32.549  22.311 -19.988  0.00  0.00    -0.200 OA
BRANCH   3   6
ATOM      6  C   UNL d   1      32.674  23.169 -19.487  0.00  0.00     0.104 A 
ATOM      7  C   UNL d   1      32.007  23.575 -19.213  0.00  0.00     0.013 A 
ATOM      8  C   UNL d   1      31.910  23.699 -18.401  0.00  0.00     0.001 A 
ATOM      9  C   UNL d   1      32.471  23.422 -17.865  0.00  0.00     0.000 A 
ATOM     10  C   UNL d   1      33.136  23.018 -18.134  0.00  0.00     0.001 A 
ATOM     11  C   UNL d   1      32.364  23.553 -17.051  0.00  0.00     0.000 C 
ATOM     12  C   UNL d   1      33.241  22.889 -18.944  0.00  0.00     0.013 A 
ENDBRANCH   3   6
ENDBRANCH   1   3
BRANCH   1  13
ATOM     13  C   UNL d   1      33.233  21.936 -21.069  0.00  0.00     0.154 C 
BRANCH  13  14
ATOM     14  C   UNL d   1      33.160  21.147 -21.300  0.00  0.00     0.298 C 
ATOM     15  N   UNL d   1      33.165  20.942 -22.098  0.00  0.00    -0.207 NA
ATOM     16  O   UNL d   1      33.081  20.563 -20.723  0.00  0.00    -0.264 OA
BRANCH  15  17
ATOM     17  C   UNL d   1      33.091  20.152 -22.318  0.00  0.00     0.088 A 
ATOM     18  C   UNL d   1      33.239  19.563 -21.766  0.00  0.00     0.040 A 
ATOM     19  C   UNL d   1      33.165  18.773 -21.986  0.00  0.00     0.101 A 
ATOM     20  N   UNL d   1      32.943  18.581 -22.755  0.00  0.00    -0.242 NA
ATOM     21  C   UNL d   1      32.796  19.178 -23.304  0.00  0.00     0.101 A 
ATOM     22  C   UNL d   1      32.870  19.965 -23.082  0.00  0.00     0.040 A 
ENDBRANCH  15  17
ENDBRANCH  13  14
ENDBRANCH   1  13
TORSDOF 5
ENDMDL
MODEL 4
REMARK VINA RESULT:      -0.9      1.959      3.150
REMARK  5 active torsions:
REMARK  status: ('A' for Active; 'I' for Inactive)
REMARK    1  A    between atoms: N_2  and  S_1 
REMARK    2  A    between atoms: C_5  and  S_1 
REMARK    3  A    between atoms: C_3  and  N_2 
REMARK    4  A    between atoms: C_4  and  C_3 
REMARK       I    between atoms: N_8  and  C_4 
REMARK    5  A    between atoms: C_13  and  N_8 
ROOT
ATOM      1  N   UNL d   1      32.116  17.866 -23.533  0.00  0.00    -0.223 N 
ATOM      2  C   UNL d   1      31.620  18.433 -23.869  0.00  0.00     0.112 C 
ENDROOT
BRANCH   1   3
ATOM      3  S   UNL d   1      32.709  18.097 -23.016  0.00  0.00     0.272 S 
ATOM      4  O   UNL d   1      33.177  17.529 -22.642  0.00  0.00    -0.200 OA
ATOM      5  O   UNL d   1      32.153  18.495 -23.474  0.00  0.00    -0.200 OA
BRANCH   3   6
ATOM      6  C   UNL d   1      32.841  18.896 -22.868  0.00  0.00     0.104 A 
ATOM      7  C   UNL d   1      32.759  19.195 -22.102  0.00  0.00     0.013 A 
ATOM      8  C   UNL d   1      32.893  19.999 -21.961  0.00  0.00     0.001 A 
ATOM      9  C   UNL d   1      33.108  20.502 -22.577  0.00  0.00     0.000 A 
ATOM     10  C   UNL d   1      33.191  20.208 -23.341  0.00  0.00     0.001 A 
ATOM     11  C   UNL d   1      33.241  21.308 -22.425  0.00  0.00     0.000 C 
ATOM     12  C   UNL d   1      33.059  19.405 -23.491  0.00  0.00     0.013 A 
ENDBRANCH   3   6
ENDBRANCH   1   3
BRANCH   1  13
ATOM     13  C   UNL d   1      32.014  17.069 -23.717  0.00  0.00     0.154 C 
BRANCH  13  14
ATOM     14  C   UNL d   1      31.340  16.813 -24.120  0.00  0.00     0.298 C 
ATOM     15  N   UNL d   1      30.613  16.770 -23.735  0.00  0.00    -0.207 NA
ATOM     16  O   UNL d   1      31.401  16.599 -24.914  0.00  0.00    -0.264 OA
BRANCH  15  17
ATOM     17  C   UNL d   1      29.947  16.513 -24.146  0.00  0.00     0.088 A 
ATOM     18  C   UNL d   1      29.449  17.063 -24.494  0.00  0.00     0.040 A 
ATOM     19  C   UNL d   1      28.783  16.805 -24.906  0.00  0.00     0.101 A 
ATOM     20  N   UNL d   1      28.625  16.000 -24.963  0.00  0.00    -0.242 NA
ATOM     21  C   UNL d   1      29.130  15.453 -24.611  0.00  0.00     0.101 A 
ATOM     22  C   UNL d   1      29.793  15.712 -24.202  0.00  0.00     0.040 A 
ENDBRANCH  15  17
ENDBRANCH  13  14
ENDBRANCH   1  13
TORSDOF 5
ENDMDL
