MODEL 1
REMARK VINA RESULT:       3.0      0.000      0.000
REMARK  3 active torsions:
REMARK  status: ('A' for Active; 'I' for Inactive)
REMARK    1  A    between atoms: C_10  and  C_2 
REMARK    2  A    between atoms: C_13  and  C_6 
REMARK    3  A    between atoms: O_17  and  C_10 
ROOT
ATOM      1  C   UNL d   1     -41.650-122.599 -53.003  0.00  0.00     0.081 A 
ATOM      2  C   UNL d   1     -41.414-121.402 -52.274  0.00  0.00     0.106 A 
ATOM      3  C   UNL d   1     -41.299-120.992 -52.985  0.00  0.00     0.208 A 
ATOM      4  C   UNL d   1     -41.537-122.197 -53.707  0.00  0.00     0.108 A 
ATOM      5  C   UNL d   1     -41.829-123.415 -53.012  0.00  0.00     0.281 A 
ATOM      6  C   UNL d   1     -41.590-122.206 -52.287  0.00  0.00     0.015 A 
ATOM      7  O   UNL d   1     -41.361-121.394 -53.698  0.00  0.00    -0.288 OA
ATOM      8  N   UNL d   1     -41.891-123.817 -53.732  0.00  0.00    -0.208 NA
ATOM      9  C   UNL d   1     -41.599-122.599 -54.427  0.00  0.00     0.044 A 
ATOM     10  C   UNL d   1     -41.775-123.402 -54.444  0.00  0.00     0.087 A 
ATOM     11  O   UNL d   1     -41.943-123.817 -52.300  0.00  0.00    -0.265 OA
ATOM     12  N   UNL d   1     -41.123-120.188 -52.964  0.00  0.00    -0.121 N 
ATOM     13  C   UNL d   1     -41.837-123.803 -55.156  0.00  0.00     0.021 C 
ENDROOT
BRANCH   6  14
ATOM     14  C   UNL d   1     -41.704-122.611 -51.575  0.00  0.00     0.004 A 
ATOM     15  C   UNL d   1     -41.195-123.237 -51.375  0.00  0.00     0.021 A 
ATOM     16  C   UNL d   1     -41.307-123.642 -50.667  0.00  0.00     0.099 A 
ATOM     17  N   UNL d   1     -41.924-123.426 -50.156  0.00  0.00    -0.242 NA
ATOM     18  C   UNL d   1     -42.433-122.796 -50.363  0.00  0.00     0.099 A 
ATOM     19  C   UNL d   1     -42.316-122.393 -51.075  0.00  0.00     0.021 A 
ENDBRANCH   6  14
BRANCH   2  20
ATOM     20  C   UNL d   1     -41.353-121.004 -51.553  0.00  0.00     0.299 C 
ATOM     21  O   UNL d   1     -41.123-121.407 -50.870  0.00  0.00    -0.259 OA
BRANCH  20  22
ATOM     22  O   UNL d   1     -41.524-120.188 -51.515  0.00  0.00    -0.296 OA
ATOM     23  C   UNL d   1     -41.126-119.720 -50.971  0.00  0.00     0.185 C 
ENDBRANCH  20  22
ENDBRANCH   2  20
TORSDOF 3
ENDMDL
MODEL 2
REMARK VINA RESULT:       4.2      0.879      2.411
REMARK  3 active torsions:
REMARK  status: ('A' for Active; 'I' for Inactive)
REMARK    1  A    between atoms: C_10  and  C_2 
REMARK    2  A    between atoms: C_13  and  C_6 
REMARK    3  A    between atoms: O_17  and  C_10 
ROOT
ATOM      1  C   UNL d   1     -41.580-122.440 -52.640  0.00  0.00     0.081 A 
ATOM      2  C   UNL d   1     -41.820-122.558 -51.244  0.00  0.00     0.106 A 
ATOM      3  C   UNL d   1     -41.986-123.365 -51.341  0.00  0.00     0.208 A 
ATOM      4  C   UNL d   1     -41.743-123.236 -52.738  0.00  0.00     0.108 A 
ATOM      5  C   UNL d   1     -41.373-121.971 -53.299  0.00  0.00     0.281 A 
ATOM      6  C   UNL d   1     -41.617-122.099 -51.896  0.00  0.00     0.015 A 
ATOM      7  O   UNL d   1     -41.946-123.698 -52.089  0.00  0.00    -0.288 OA
ATOM      8  N   UNL d   1     -41.334-122.311 -54.052  0.00  0.00    -0.208 NA
ATOM      9  C   UNL d   1     -41.704-123.576 -53.491  0.00  0.00     0.044 A 
ATOM     10  C   UNL d   1     -41.501-123.121 -54.145  0.00  0.00     0.087 A 
ATOM     11  O   UNL d   1     -41.209-121.169 -53.196  0.00  0.00    -0.265 OA
ATOM     12  N   UNL d   1     -42.189-123.817 -50.684  0.00  0.00    -0.121 N 
ATOM     13  C   UNL d   1     -41.461-123.454 -54.894  0.00  0.00     0.021 C 
ENDROOT
BRANCH   6  14
ATOM     14  C   UNL d   1     -41.452-121.294 -51.795  0.00  0.00     0.004 A 
ATOM     15  C   UNL d   1     -41.453-120.792 -52.457  0.00  0.00     0.021 A 
ATOM     16  C   UNL d   1     -41.289-119.990 -52.359  0.00  0.00     0.099 A 
ATOM     17  N   UNL d   1     -41.124-119.689 -51.604  0.00  0.00    -0.242 NA
ATOM     18  C   UNL d   1     -41.125-120.200 -50.943  0.00  0.00     0.099 A 
ATOM     19  C   UNL d   1     -41.290-121.002 -51.047  0.00  0.00     0.021 A 
ENDBRANCH   6  14
BRANCH   2  20
ATOM     20  C   UNL d   1     -41.859-122.216 -50.494  0.00  0.00     0.299 C 
ATOM     21  O   UNL d   1     -42.545-121.832 -50.243  0.00  0.00    -0.259 OA
BRANCH  20  22
ATOM     22  O   UNL d   1     -41.198-122.258 -49.985  0.00  0.00    -0.296 OA
ATOM     23  C   UNL d   1     -41.316-122.415 -49.188  0.00  0.00     0.185 C 
ENDBRANCH  20  22
ENDBRANCH   2  20
TORSDOF 3
ENDMDL
MODEL 3
REMARK VINA RESULT:       5.2      0.931      2.916
REMARK  3 active torsions:
REMARK  status: ('A' for Active; 'I' for Inactive)
REMARK    1  A    between atoms: C_10  and  C_2 
REMARK    2  A    between atoms: C_13  and  C_6 
REMARK    3  A    between atoms: O_17  and  C_10 
ROOT
ATOM      1  C   UNL d   1     -41.541-121.108 -52.346  0.00  0.00     0.081 A 
ATOM      2  C   UNL d   1     -41.795-122.141 -53.288  0.00  0.00     0.106 A 
ATOM      3  C   UNL d   1     -41.773-121.585 -53.903  0.00  0.00     0.208 A 
ATOM      4  C   UNL d   1     -41.520-120.557 -52.951  0.00  0.00     0.108 A 
ATOM      5  C   UNL d   1     -41.423-120.865 -51.556  0.00  0.00     0.281 A 
ATOM      6  C   UNL d   1     -41.678-121.898 -52.510  0.00  0.00     0.015 A 
ATOM      7  O   UNL d   1     -41.636-120.795 -53.729  0.00  0.00    -0.288 OA
ATOM      8  N   UNL d   1     -41.285-120.068 -51.384  0.00  0.00    -0.208 NA
ATOM      9  C   UNL d   1     -41.381-119.759 -52.779  0.00  0.00     0.044 A 
ATOM     10  C   UNL d   1     -41.265-119.513 -52.004  0.00  0.00     0.087 A 
ATOM     11  O   UNL d   1     -41.446-121.424 -50.948  0.00  0.00    -0.265 OA
ATOM     12  N   UNL d   1     -41.891-121.835 -54.678  0.00  0.00    -0.121 N 
ATOM     13  C   UNL d   1     -41.127-118.724 -51.830  0.00  0.00     0.021 C 
ENDROOT
BRANCH   6  14
ATOM     14  C   UNL d   1     -41.700-122.456 -51.900  0.00  0.00     0.004 A 
ATOM     15  C   UNL d   1     -42.310-122.420 -51.337  0.00  0.00     0.021 A 
ATOM     16  C   UNL d   1     -42.334-122.975 -50.728  0.00  0.00     0.099 A 
ATOM     17  N   UNL d   1     -41.752-123.564 -50.679  0.00  0.00    -0.242 NA
ATOM     18  C   UNL d   1     -41.142-123.594 -51.248  0.00  0.00     0.099 A 
ATOM     19  C   UNL d   1     -41.123-123.036 -51.856  0.00  0.00     0.021 A 
ENDBRANCH   6  14
BRANCH   2  20
ATOM     20  C   UNL d   1     -41.932-122.937 -53.456  0.00  0.00     0.299 C 
ATOM     21  O   UNL d   1     -42.667-123.278 -53.296  0.00  0.00    -0.259 OA
BRANCH  20  22
ATOM     22  O   UNL d   1     -41.325-123.402 -53.790  0.00  0.00    -0.296 OA
ATOM     23  C   UNL d   1     -41.472-123.817 -54.483  0.00  0.00     0.185 C 
ENDBRANCH  20  22
ENDBRANCH   2  20
TORSDOF 3
ENDMDL
