MODEL 1
REMARK VINA RESULT:      -7.2      0.000      0.000
REMARK  5 active torsions:
REMARK  status: ('A' for Active; 'I' for Inactive)
REMARK    1  A    between atoms: N_2  and  S_1 
REMARK    2  A    between atoms: C_5  and  S_1 
REMARK    3  A    between atoms: S_8  and  C_3 
REMARK    4  A    between atoms: C_18  and  S_8 
REMARK    5  A    between atoms: C_17  and  C_18 
ROOT
ATOM      1  N   UNL d   1     -48.656  13.540  21.991  0.00  0.00    -0.208 N 
ATOM      2  C   UNL d   1     -47.908  13.728  22.308  0.00  0.00     0.189 A 
ATOM      3  N   UNL d   1     -47.975  14.447  22.718  0.00  0.00    -0.219 NA
ATOM      4  C   UNL d   1     -49.185  14.147  22.208  0.00  0.00     0.114 A 
ATOM      5  C   UNL d   1     -48.763  14.701  22.654  0.00  0.00     0.121 A 
ENDROOT
BRANCH   1   6
ATOM      6  S   UNL d   1     -48.837  12.866  21.540  0.00  0.00     0.273 S 
ATOM      7  O   UNL d   1     -48.842  12.296  20.936  0.00  0.00    -0.200 OA
ATOM      8  O   UNL d   1     -48.287  13.130  20.991  0.00  0.00    -0.200 OA
BRANCH   6   9
ATOM      9  C   UNL d   1     -49.396  12.584  22.083  0.00  0.00     0.104 A 
ATOM     10  C   UNL d   1     -49.167  12.020  22.639  0.00  0.00     0.014 A 
ATOM     11  C   UNL d   1     -49.731  11.745  23.176  0.00  0.00     0.012 A 
ATOM     12  C   UNL d   1     -50.506  12.028  23.156  0.00  0.00     0.058 A 
ATOM     13  C   UNL d   1     -50.728  12.591  22.597  0.00  0.00     0.012 A 
ATOM     14 CL   UNL d   1     -51.064  11.746  23.698  0.00  0.00    -0.082 Cl
ATOM     15  C   UNL d   1     -50.159  12.867  22.057  0.00  0.00     0.014 A 
ENDBRANCH   6   9
ENDBRANCH   1   6
BRANCH   2  16
ATOM     16  S   UNL d   1     -47.214  13.273  22.225  0.00  0.00    -0.049 SA
BRANCH  16  17
ATOM     17  C   UNL d   1     -46.561  13.428  22.708  0.00  0.00     0.038 C 
BRANCH  17  18
ATOM     18  C   UNL d   1     -45.849  13.045  22.566  0.00  0.00     0.007 A 
ATOM     19  C   UNL d   1     -45.675  12.325  22.935  0.00  0.00     0.013 A 
ATOM     20  C   UNL d   1     -44.961  11.944  22.792  0.00  0.00     0.068 A 
ATOM     21 CL   UNL d   1     -44.808  11.231  23.168  0.00  0.00    -0.082 Cl
ATOM     22  C   UNL d   1     -44.416  12.285  22.275  0.00  0.00     0.068 A 
ATOM     23  C   UNL d   1     -44.572  12.993  21.904  0.00  0.00     0.012 A 
ATOM     24 CL   UNL d   1     -43.702  11.896  22.137  0.00  0.00    -0.082 Cl
ATOM     25  C   UNL d   1     -45.297  13.380  22.050  0.00  0.00     0.001 A 
ENDBRANCH  17  18
ENDBRANCH  16  17
ENDBRANCH   2  16
TORSDOF 5
ENDMDL
MODEL 2
REMARK VINA RESULT:      -7.0      1.433      2.188
REMARK  5 active torsions:
REMARK  status: ('A' for Active; 'I' for Inactive)
REMARK    1  A    between atoms: N_2  and  S_1 
REMARK    2  A    between atoms: C_5  and  S_1 
REMARK    3  A    between atoms: S_8  and  C_3 
REMARK    4  A    between atoms: C_18  and  S_8 
REMARK    5  A    between atoms: C_17  and  C_18 
ROOT
ATOM      1  N   UNL d   1     -49.515  12.436  22.578  0.00  0.00    -0.208 N 
ATOM      2  C   UNL d   1     -48.952  12.085  23.083  0.00  0.00     0.189 A 
ATOM      3  N   UNL d   1     -49.358  11.694  23.692  0.00  0.00    -0.219 NA
ATOM      4  C   UNL d   1     -50.273  12.259  22.879  0.00  0.00     0.114 A 
ATOM      5  C   UNL d   1     -50.171  11.804  23.562  0.00  0.00     0.121 A 
ENDROOT
BRANCH   1   6
ATOM      6  S   UNL d   1     -49.347  12.881  21.897  0.00  0.00     0.273 S 
ATOM      7  O   UNL d   1     -49.070  13.107  21.148  0.00  0.00    -0.200 OA
ATOM      8  O   UNL d   1     -48.973  12.215  21.597  0.00  0.00    -0.200 OA
BRANCH   6   9
ATOM      9  C   UNL d   1     -49.720  13.563  22.183  0.00  0.00     0.104 A 
ATOM     10  C   UNL d   1     -50.534  13.650  22.082  0.00  0.00     0.014 A 
ATOM     11  C   UNL d   1     -50.898  14.333  22.370  0.00  0.00     0.012 A 
ATOM     12  C   UNL d   1     -50.456  14.916  22.752  0.00  0.00     0.058 A 
ATOM     13  C   UNL d   1     -49.643  14.824  22.850  0.00  0.00     0.012 A 
ATOM     14 CL   UNL d   1     -50.828  15.598  23.038  0.00  0.00    -0.082 Cl
ATOM     15  C   UNL d   1     -49.278  14.136  22.559  0.00  0.00     0.014 A 
ENDBRANCH   6   9
ENDBRANCH   1   6
BRANCH   2  16
ATOM     16  S   UNL d   1     -48.124  12.122  22.990  0.00  0.00    -0.049 SA
BRANCH  16  17
ATOM     17  C   UNL d   1     -47.631  11.907  23.618  0.00  0.00     0.038 C 
BRANCH  17  18
ATOM     18  C   UNL d   1     -46.832  11.774  23.482  0.00  0.00     0.007 A 
ATOM     19  C   UNL d   1     -46.359  12.355  23.131  0.00  0.00     0.013 A 
ATOM     20  C   UNL d   1     -45.561  12.220  22.996  0.00  0.00     0.068 A 
ATOM     21 CL   UNL d   1     -45.110  12.810  22.646  0.00  0.00    -0.082 Cl
ATOM     22  C   UNL d   1     -45.230  11.497  23.214  0.00  0.00     0.068 A 
ATOM     23  C   UNL d   1     -45.681  10.914  23.561  0.00  0.00     0.012 A 
ATOM     24 CL   UNL d   1     -44.426  11.368  23.075  0.00  0.00    -0.082 Cl
ATOM     25  C   UNL d   1     -46.492  11.051  23.698  0.00  0.00     0.001 A 
ENDBRANCH  17  18
ENDBRANCH  16  17
ENDBRANCH   2  16
TORSDOF 5
ENDMDL
MODEL 3
REMARK VINA RESULT:      -6.2      8.030      9.638
REMARK  5 active torsions:
REMARK  status: ('A' for Active; 'I' for Inactive)
REMARK    1  A    between atoms: N_2  and  S_1 
REMARK    2  A    between atoms: C_5  and  S_1 
REMARK    3  A    between atoms: S_8  and  C_3 
REMARK    4  A    between atoms: C_18  and  S_8 
REMARK    5  A    between atoms: C_17  and  C_18 
ROOT
ATOM      1  N   UNL d   1     -39.787  14.879  20.518  0.00  0.00    -0.208 N 
ATOM      2  C   UNL d   1     -40.043  14.548  19.797  0.00  0.00     0.189 A 
ATOM      3  N   UNL d   1     -40.831  14.305  19.890  0.00  0.00    -0.219 NA
ATOM      4  C   UNL d   1     -40.422  14.839  21.057  0.00  0.00     0.114 A 
ATOM      5  C   UNL d   1     -41.060  14.486  20.668  0.00  0.00     0.121 A 
ENDROOT
BRANCH   1   6
ATOM      6  S   UNL d   1     -39.032  15.192  20.668  0.00  0.00     0.273 S 
ATOM      7  O   UNL d   1     -38.347  15.659  20.628  0.00  0.00    -0.200 OA
ATOM      8  O   UNL d   1     -39.175  15.731  20.067  0.00  0.00    -0.200 OA
BRANCH   6   9
ATOM      9  C   UNL d   1     -38.869  14.654  21.278  0.00  0.00     0.104 A 
ATOM     10  C   UNL d   1     -39.134  14.820  22.041  0.00  0.00     0.014 A 
ATOM     11  C   UNL d   1     -38.967  14.279  22.643  0.00  0.00     0.012 A 
ATOM     12  C   UNL d   1     -38.545  13.588  22.482  0.00  0.00     0.058 A 
ATOM     13  C   UNL d   1     -38.284  13.428  21.718  0.00  0.00     0.012 A 
ATOM     14 CL   UNL d   1     -38.383  13.052  23.091  0.00  0.00    -0.082 Cl
ATOM     15  C   UNL d   1     -38.452  13.974  21.113  0.00  0.00     0.014 A 
ENDBRANCH   6   9
ENDBRANCH   1   6
BRANCH   2  16
ATOM     16  S   UNL d   1     -39.586  14.474  19.104  0.00  0.00    -0.049 SA
BRANCH  16  17
ATOM     17  C   UNL d   1     -39.904  14.099  18.440  0.00  0.00     0.038 C 
BRANCH  17  18
ATOM     18  C   UNL d   1     -39.441  13.992  17.770  0.00  0.00     0.007 A 
ATOM     19  C   UNL d   1     -38.943  13.336  17.700  0.00  0.00     0.013 A 
ATOM     20  C   UNL d   1     -38.480  13.232  17.029  0.00  0.00     0.068 A 
ATOM     21 CL   UNL d   1     -37.993  12.573  16.979  0.00  0.00    -0.082 Cl
ATOM     22  C   UNL d   1     -38.515  13.789  16.422  0.00  0.00     0.068 A 
ATOM     23  C   UNL d   1     -39.001  14.441  16.475  0.00  0.00     0.012 A 
ATOM     24 CL   UNL d   1     -38.048  13.677  15.751  0.00  0.00    -0.082 Cl
ATOM     25  C   UNL d   1     -39.470  14.547  17.157  0.00  0.00     0.001 A 
ENDBRANCH  17  18
ENDBRANCH  16  17
ENDBRANCH   2  16
TORSDOF 5
ENDMDL
MODEL 4
REMARK VINA RESULT:      -6.1      8.974      9.698
REMARK  5 active torsions:
REMARK  status: ('A' for Active; 'I' for Inactive)
REMARK    1  A    between atoms: N_2  and  S_1 
REMARK    2  A    between atoms: C_5  and  S_1 
REMARK    3  A    between atoms: S_8  and  C_3 
REMARK    4  A    between atoms: C_18  and  S_8 
REMARK    5  A    between atoms: C_17  and  C_18 
ROOT
ATOM      1  N   UNL d   1     -38.713  14.716  18.091  0.00  0.00    -0.208 N 
ATOM      2  C   UNL d   1     -38.394  14.916  18.834  0.00  0.00     0.189 A 
ATOM      3  N   UNL d   1     -37.940  15.605  18.744  0.00  0.00    -0.219 NA
ATOM      4  C   UNL d   1     -38.453  15.285  17.540  0.00  0.00     0.114 A 
ATOM      5  C   UNL d   1     -37.979  15.828  17.945  0.00  0.00     0.121 A 
ENDROOT
BRANCH   1   6
ATOM      6  S   UNL d   1     -39.203  14.063  17.933  0.00  0.00     0.273 S 
ATOM      7  O   UNL d   1     -39.489  13.287  17.862  0.00  0.00    -0.200 OA
ATOM      8  O   UNL d   1     -38.593  13.585  18.201  0.00  0.00    -0.200 OA
BRANCH   6   9
ATOM      9  C   UNL d   1     -39.830  14.530  17.658  0.00  0.00     0.104 A 
ATOM     10  C   UNL d   1     -40.436  14.738  18.179  0.00  0.00     0.014 A 
ATOM     11  C   UNL d   1     -41.057  15.203  17.896  0.00  0.00     0.012 A 
ATOM     12  C   UNL d   1     -41.070  15.455  17.110  0.00  0.00     0.058 A 
ATOM     13  C   UNL d   1     -40.463  15.245  16.595  0.00  0.00     0.012 A 
ATOM     14 CL   UNL d   1     -41.697  15.922  16.836  0.00  0.00    -0.082 Cl
ATOM     15  C   UNL d   1     -39.838  14.776  16.881  0.00  0.00     0.014 A 
ENDBRANCH   6   9
ENDBRANCH   1   6
BRANCH   2  16
ATOM     16  S   UNL d   1     -38.512  14.496  19.546  0.00  0.00    -0.049 SA
BRANCH  16  17
ATOM     17  C   UNL d   1     -38.110  14.727  20.230  0.00  0.00     0.038 C 
BRANCH  17  18
ATOM     18  C   UNL d   1     -38.307  14.391  20.952  0.00  0.00     0.007 A 
ATOM     19  C   UNL d   1     -38.783  14.797  21.493  0.00  0.00     0.013 A 
ATOM     20  C   UNL d   1     -38.979  14.458  22.215  0.00  0.00     0.068 A 
ATOM     21 CL   UNL d   1     -39.452  14.879  22.738  0.00  0.00    -0.082 Cl
ATOM     22  C   UNL d   1     -38.698  13.706  22.399  0.00  0.00     0.068 A 
ATOM     23  C   UNL d   1     -38.228  13.292  21.878  0.00  0.00     0.012 A 
ATOM     24 CL   UNL d   1     -38.899  13.372  23.127  0.00  0.00    -0.082 Cl
ATOM     25  C   UNL d   1     -38.029  13.636  21.145  0.00  0.00     0.001 A 
ENDBRANCH  17  18
ENDBRANCH  16  17
ENDBRANCH   2  16
TORSDOF 5
ENDMDL
MODEL 5
REMARK VINA RESULT:      -5.8      8.698      9.912
REMARK  5 active torsions:
REMARK  status: ('A' for Active; 'I' for Inactive)
REMARK    1  A    between atoms: N_2  and  S_1 
REMARK    2  A    between atoms: C_5  and  S_1 
REMARK    3  A    between atoms: S_8  and  C_3 
REMARK    4  A    between atoms: C_18  and  S_8 
REMARK    5  A    between atoms: C_17  and  C_18 
ROOT
ATOM      1  N   UNL d   1     -39.616  15.013  18.090  0.00  0.00    -0.208 N 
ATOM      2  C   UNL d   1     -39.989  14.805  18.806  0.00  0.00     0.189 A 
ATOM      3  N   UNL d   1     -40.763  14.561  18.633  0.00  0.00    -0.219 NA
ATOM      4  C   UNL d   1     -40.165  14.897  17.474  0.00  0.00     0.114 A 
ATOM      5  C   UNL d   1     -40.867  14.619  17.811  0.00  0.00     0.121 A 
ENDROOT
BRANCH   1   6
ATOM      6  S   UNL d   1     -38.836  15.288  18.011  0.00  0.00     0.273 S 
ATOM      7  O   UNL d   1     -38.145  15.742  18.087  0.00  0.00    -0.200 OA
ATOM      8  O   UNL d   1     -39.041  15.907  18.508  0.00  0.00    -0.200 OA
BRANCH   6   9
ATOM      9  C   UNL d   1     -38.610  14.669  17.508  0.00  0.00     0.104 A 
ATOM     10  C   UNL d   1     -38.239  14.005  17.828  0.00  0.00     0.014 A 
ATOM     11  C   UNL d   1     -38.018  13.394  17.318  0.00  0.00     0.012 A 
ATOM     12  C   UNL d   1     -38.165  13.447  16.508  0.00  0.00     0.058 A 
ATOM     13  C   UNL d   1     -38.535  14.113  16.194  0.00  0.00     0.012 A 
ATOM     14 CL   UNL d   1     -37.940  12.829  16.005  0.00  0.00    -0.082 Cl
ATOM     15  C   UNL d   1     -38.758  14.727  16.709  0.00  0.00     0.014 A 
ENDBRANCH   6   9
ENDBRANCH   1   6
BRANCH   2  16
ATOM     16  S   UNL d   1     -39.642  14.836  19.565  0.00  0.00    -0.049 SA
BRANCH  16  17
ATOM     17  C   UNL d   1     -40.086  14.621  20.228  0.00  0.00     0.038 C 
BRANCH  17  18
ATOM     18  C   UNL d   1     -39.743  14.644  20.973  0.00  0.00     0.007 A 
ATOM     19  C   UNL d   1     -39.372  13.975  21.290  0.00  0.00     0.013 A 
ATOM     20  C   UNL d   1     -39.030  14.001  22.036  0.00  0.00     0.068 A 
ATOM     21 CL   UNL d   1     -38.667  13.326  22.331  0.00  0.00    -0.082 Cl
ATOM     22  C   UNL d   1     -39.056  14.701  22.471  0.00  0.00     0.068 A 
ATOM     23  C   UNL d   1     -39.417  15.368  22.174  0.00  0.00     0.012 A 
ATOM     24 CL   UNL d   1     -38.710  14.719  23.219  0.00  0.00    -0.082 Cl
ATOM     25  C   UNL d   1     -39.765  15.343  21.416  0.00  0.00     0.001 A 
ENDBRANCH  17  18
ENDBRANCH  16  17
ENDBRANCH   2  16
TORSDOF 5
ENDMDL
MODEL 6
REMARK VINA RESULT:      -5.4      1.670      4.788
REMARK  5 active torsions:
REMARK  status: ('A' for Active; 'I' for Inactive)
REMARK    1  A    between atoms: N_2  and  S_1 
REMARK    2  A    between atoms: C_5  and  S_1 
REMARK    3  A    between atoms: S_8  and  C_3 
REMARK    4  A    between atoms: C_18  and  S_8 
REMARK    5  A    between atoms: C_17  and  C_18 
ROOT
ATOM      1  N   UNL d   1     -46.509  12.418  23.280  0.00  0.00    -0.208 N 
ATOM      2  C   UNL d   1     -47.275  12.123  23.133  0.00  0.00     0.189 A 
ATOM      3  N   UNL d   1     -47.271  11.306  23.280  0.00  0.00    -0.219 NA
ATOM      4  C   UNL d   1     -46.031  11.777  23.519  0.00  0.00     0.114 A 
ATOM      5  C   UNL d   1     -46.502  11.098  23.518  0.00  0.00     0.121 A 
ENDROOT
BRANCH   1   6
ATOM      6  S   UNL d   1     -46.271  13.209  23.200  0.00  0.00     0.273 S 
ATOM      7  O   UNL d   1     -46.230  14.035  23.276  0.00  0.00    -0.200 OA
ATOM      8  O   UNL d   1     -46.892  13.410  23.697  0.00  0.00    -0.200 OA
BRANCH   6   9
ATOM      9  C   UNL d   1     -45.638  13.026  22.697  0.00  0.00     0.104 A 
ATOM     10  C   UNL d   1     -45.692  13.218  21.897  0.00  0.00     0.014 A 
ATOM     11  C   UNL d   1     -45.057  13.032  21.402  0.00  0.00     0.012 A 
ATOM     12  C   UNL d   1     -44.384  12.662  21.704  0.00  0.00     0.058 A 
ATOM     13  C   UNL d   1     -44.335  12.473  22.504  0.00  0.00     0.012 A 
ATOM     14 CL   UNL d   1     -43.752  12.479  21.201  0.00  0.00    -0.082 Cl
ATOM     15  C   UNL d   1     -44.976  12.661  23.000  0.00  0.00     0.014 A 
ENDBRANCH   6   9
ENDBRANCH   1   6
BRANCH   2  16
ATOM     16  S   UNL d   1     -47.931  12.572  22.881  0.00  0.00    -0.049 SA
BRANCH  16  17
ATOM     17  C   UNL d   1     -48.646  12.194  22.708  0.00  0.00     0.038 C 
BRANCH  17  18
ATOM     18  C   UNL d   1     -49.248  12.610  22.336  0.00  0.00     0.007 A 
ATOM     19  C   UNL d   1     -49.817  13.018  22.777  0.00  0.00     0.013 A 
ATOM     20  C   UNL d   1     -50.418  13.433  22.402  0.00  0.00     0.068 A 
ATOM     21 CL   UNL d   1     -50.973  13.831  22.859  0.00  0.00    -0.082 Cl
ATOM     22  C   UNL d   1     -50.452  13.442  21.579  0.00  0.00     0.068 A 
ATOM     23  C   UNL d   1     -49.900  13.046  21.130  0.00  0.00     0.012 A 
ATOM     24 CL   UNL d   1     -51.060  13.862  21.210  0.00  0.00    -0.082 Cl
ATOM     25  C   UNL d   1     -49.290  12.624  21.510  0.00  0.00     0.001 A 
ENDBRANCH  17  18
ENDBRANCH  16  17
ENDBRANCH   2  16
TORSDOF 5
ENDMDL
MODEL 7
REMARK VINA RESULT:      -4.2      1.760      4.439
REMARK  5 active torsions:
REMARK  status: ('A' for Active; 'I' for Inactive)
REMARK    1  A    between atoms: N_2  and  S_1 
REMARK    2  A    between atoms: C_5  and  S_1 
REMARK    3  A    between atoms: S_8  and  C_3 
REMARK    4  A    between atoms: C_18  and  S_8 
REMARK    5  A    between atoms: C_17  and  C_18 
ROOT
ATOM      1  N   UNL d   1     -46.878  12.745  22.245  0.00  0.00    -0.208 N 
ATOM      2  C   UNL d   1     -47.606  13.040  21.967  0.00  0.00     0.189 A 
ATOM      3  N   UNL d   1     -47.778  12.667  21.246  0.00  0.00    -0.219 NA
ATOM      4  C   UNL d   1     -46.601  12.186  21.691  0.00  0.00     0.114 A 
ATOM      5  C   UNL d   1     -47.157  12.142  21.080  0.00  0.00     0.121 A 
ENDROOT
BRANCH   1   6
ATOM      6  S   UNL d   1     -46.501  12.970  22.950  0.00  0.00     0.273 S 
ATOM      7  O   UNL d   1     -46.205  13.423  23.579  0.00  0.00    -0.200 OA
ATOM      8  O   UNL d   1     -46.727  13.741  22.783  0.00  0.00    -0.200 OA
BRANCH   6   9
ATOM      9  C   UNL d   1     -46.263  12.198  23.135  0.00  0.00     0.104 A 
ATOM     10  C   UNL d   1     -45.499  11.955  22.941  0.00  0.00     0.014 A 
ATOM     11  C   UNL d   1     -45.271  11.183  23.129  0.00  0.00     0.012 A 
ATOM     12  C   UNL d   1     -45.797  10.668  23.503  0.00  0.00     0.058 A 
ATOM     13  C   UNL d   1     -46.559  10.917  23.694  0.00  0.00     0.012 A 
ATOM     14 CL   UNL d   1     -45.560   9.897  23.688  0.00  0.00    -0.082 Cl
ATOM     15  C   UNL d   1     -46.786  11.694  23.504  0.00  0.00     0.014 A 
ENDBRANCH   6   9
ENDBRANCH   1   6
BRANCH   2  16
ATOM     16  S   UNL d   1     -48.079  13.612  22.347  0.00  0.00    -0.049 SA
BRANCH  16  17
ATOM     17  C   UNL d   1     -48.792  13.851  22.004  0.00  0.00     0.038 C 
BRANCH  17  18
ATOM     18  C   UNL d   1     -49.295  14.353  22.415  0.00  0.00     0.007 A 
ATOM     19  C   UNL d   1     -49.934  14.052  22.847  0.00  0.00     0.013 A 
ATOM     20  C   UNL d   1     -50.436  14.557  23.257  0.00  0.00     0.068 A 
ATOM     21 CL   UNL d   1     -51.064  14.238  23.679  0.00  0.00    -0.082 Cl
ATOM     22  C   UNL d   1     -50.299  15.369  23.237  0.00  0.00     0.068 A 
ATOM     23  C   UNL d   1     -49.674  15.682  22.817  0.00  0.00     0.012 A 
ATOM     24 CL   UNL d   1     -50.807  15.870  23.652  0.00  0.00    -0.082 Cl
ATOM     25  C   UNL d   1     -49.165  15.169  22.400  0.00  0.00     0.001 A 
ENDBRANCH  17  18
ENDBRANCH  16  17
ENDBRANCH   2  16
TORSDOF 5
ENDMDL
