MODEL 1
REMARK VINA RESULT:      -1.4      0.000      0.000
REMARK  3 active torsions:
REMARK  status: ('A' for Active; 'I' for Inactive)
REMARK    1  A    between atoms: C_7  and  C_1 
REMARK    2  A    between atoms: C_10  and  C_7 
REMARK    3  A    between atoms: N_8  and  C_9 
ROOT
ATOM      1  C   UNL d   1      58.575   0.098  29.556  0.00  0.00     0.129 A 
ATOM      2  C   UNL d   1      58.220  -0.058  30.282  0.00  0.00     0.024 A 
ATOM      3  C   UNL d   1      59.355   0.347  29.526  0.00  0.00     0.050 A 
ATOM      4  C   UNL d   1      59.791   0.444  30.223  0.00  0.00     0.121 A 
ATOM      5  C   UNL d   1      59.442   0.289  30.953  0.00  0.00     0.119 A 
ATOM      6  C   UNL d   1      58.649   0.036  30.983  0.00  0.00     0.028 A 
ATOM      7  O   UNL d   1      60.569   0.682  30.363  0.00  0.00    -0.299 OA
ATOM      8  O   UNL d   1      59.994   0.429  31.541  0.00  0.00    -0.300 OA
ATOM      9  C   UNL d   1      60.694   0.673  31.178  0.00  0.00     0.304 A 
ENDROOT
BRANCH   2  10
ATOM     10  C   UNL d   1      57.439  -0.307  30.306  0.00  0.00     0.011 C 
BRANCH  10  11
ATOM     11  C   UNL d   1      57.130  -0.619  31.014  0.00  0.00     0.116 A 
ATOM     12  C   UNL d   1      56.730  -0.125  31.543  0.00  0.00     0.288 A 
ATOM     13  N   UNL d   1      56.425  -0.429  32.240  0.00  0.00    -0.152 NA
ATOM     14  O   UNL d   1      56.641   0.682  31.365  0.00  0.00    -0.265 OA
ATOM     15  C   UNL d   1      56.517  -1.225  32.410  0.00  0.00     0.374 A 
ATOM     16  N   UNL d   1      56.916  -1.720  31.880  0.00  0.00    -0.152 NA
ATOM     17  O   UNL d   1      56.209  -1.539  33.114  0.00  0.00    -0.242 OA
ATOM     18  C   UNL d   1      57.222  -1.415  31.184  0.00  0.00     0.288 A 
ATOM     19  O   UNL d   1      57.620  -1.908  30.656  0.00  0.00    -0.265 OA
ENDBRANCH  10  11
ENDBRANCH   2  10
BRANCH   1  20
ATOM     20  N   UNL d   1      58.147   0.004  28.863  0.00  0.00    -0.114 N 
ATOM     21  O   UNL d   1      57.720   0.639  28.550  0.00  0.00    -0.532 OA
ATOM     22  O   UNL d   1      58.141  -0.720  28.479  0.00  0.00    -0.532 OA
ENDBRANCH   1  20
TORSDOF 3
ENDMDL
MODEL 2
REMARK VINA RESULT:      -0.9      1.950      3.903
REMARK  3 active torsions:
REMARK  status: ('A' for Active; 'I' for Inactive)
REMARK    1  A    between atoms: C_7  and  C_1 
REMARK    2  A    between atoms: C_10  and  C_7 
REMARK    3  A    between atoms: N_8  and  C_9 
ROOT
ATOM      1  C   UNL d   1      55.600   0.092  33.659  0.00  0.00     0.129 A 
ATOM      2  C   UNL d   1      56.162  -0.102  33.090  0.00  0.00     0.024 A 
ATOM      3  C   UNL d   1      55.839   0.358  34.396  0.00  0.00     0.050 A 
ATOM      4  C   UNL d   1      56.643   0.434  34.574  0.00  0.00     0.121 A 
ATOM      5  C   UNL d   1      57.210   0.241  34.009  0.00  0.00     0.119 A 
ATOM      6  C   UNL d   1      56.967  -0.029  33.259  0.00  0.00     0.028 A 
ATOM      7  O   UNL d   1      57.041   0.682  35.254  0.00  0.00    -0.299 OA
ATOM      8  O   UNL d   1      57.952   0.367  34.331  0.00  0.00    -0.300 OA
ATOM      9  C   UNL d   1      57.851   0.640  35.103  0.00  0.00     0.304 A 
ENDROOT
BRANCH   2  10
ATOM     10  C   UNL d   1      55.918  -0.368  32.353  0.00  0.00     0.011 C 
BRANCH  10  11
ATOM     11  C   UNL d   1      56.483  -0.646  31.809  0.00  0.00     0.116 A 
ATOM     12  C   UNL d   1      56.836  -0.121  31.276  0.00  0.00     0.288 A 
ATOM     13  N   UNL d   1      57.393  -0.392  30.740  0.00  0.00    -0.152 NA
ATOM     14  O   UNL d   1      56.623   0.682  31.287  0.00  0.00    -0.265 OA
ATOM     15  C   UNL d   1      57.599  -1.185  30.733  0.00  0.00     0.374 A 
ATOM     16  N   UNL d   1      57.246  -1.710  31.267  0.00  0.00    -0.152 NA
ATOM     17  O   UNL d   1      58.163  -1.465  30.192  0.00  0.00    -0.242 OA
ATOM     18  C   UNL d   1      56.689  -1.439  31.803  0.00  0.00     0.288 A 
ATOM     19  O   UNL d   1      56.338  -1.962  32.334  0.00  0.00    -0.265 OA
ENDBRANCH  10  11
ENDBRANCH   2  10
BRANCH   1  20
ATOM     20  N   UNL d   1      54.802   0.019  33.487  0.00  0.00    -0.114 N 
ATOM     21  O   UNL d   1      54.374   0.673  33.217  0.00  0.00    -0.532 OA
ATOM     22  O   UNL d   1      54.425  -0.703  33.582  0.00  0.00    -0.532 OA
ENDBRANCH   1  20
TORSDOF 3
ENDMDL
MODEL 3
REMARK VINA RESULT:      -0.1      1.834      3.758
REMARK  3 active torsions:
REMARK  status: ('A' for Active; 'I' for Inactive)
REMARK    1  A    between atoms: C_7  and  C_1 
REMARK    2  A    between atoms: C_10  and  C_7 
REMARK    3  A    between atoms: N_8  and  C_9 
ROOT
ATOM      1  C   UNL d   1      55.974  -0.066  33.419  0.00  0.00     0.129 A 
ATOM      2  C   UNL d   1      56.519  -0.246  32.829  0.00  0.00     0.024 A 
ATOM      3  C   UNL d   1      56.231   0.244  34.133  0.00  0.00     0.050 A 
ATOM      4  C   UNL d   1      57.036   0.378  34.266  0.00  0.00     0.121 A 
ATOM      5  C   UNL d   1      57.586   0.199  33.679  0.00  0.00     0.119 A 
ATOM      6  C   UNL d   1      57.325  -0.115  32.954  0.00  0.00     0.028 A 
ATOM      7  O   UNL d   1      57.450   0.677  34.915  0.00  0.00    -0.299 OA
ATOM      8  O   UNL d   1      58.333   0.385  33.958  0.00  0.00    -0.300 OA
ATOM      9  C   UNL d   1      58.252   0.682  34.724  0.00  0.00     0.304 A 
ENDROOT
BRANCH   2  10
ATOM     10  C   UNL d   1      56.257  -0.556  32.116  0.00  0.00     0.011 C 
BRANCH  10  11
ATOM     11  C   UNL d   1      56.803  -0.695  31.503  0.00  0.00     0.116 A 
ATOM     12  C   UNL d   1      57.101  -1.457  31.381  0.00  0.00     0.288 A 
ATOM     13  N   UNL d   1      57.639  -1.597  30.779  0.00  0.00    -0.152 NA
ATOM     14  O   UNL d   1      56.852  -2.080  31.872  0.00  0.00    -0.265 OA
ATOM     15  C   UNL d   1      57.880  -0.979  30.298  0.00  0.00     0.374 A 
ATOM     16  N   UNL d   1      57.582  -0.217  30.420  0.00  0.00    -0.152 NA
ATOM     17  O   UNL d   1      58.425  -1.115  29.687  0.00  0.00    -0.242 OA
ATOM     18  C   UNL d   1      57.044  -0.077  31.023  0.00  0.00     0.288 A 
ATOM     19  O   UNL d   1      56.748   0.682  31.145  0.00  0.00    -0.265 OA
ENDBRANCH  10  11
ENDBRANCH   2  10
BRANCH   1  20
ATOM     20  N   UNL d   1      55.175  -0.197  33.291  0.00  0.00    -0.114 N 
ATOM     21  O   UNL d   1      54.676   0.434  33.102  0.00  0.00    -0.532 OA
ATOM     22  O   UNL d   1      54.868  -0.955  33.351  0.00  0.00    -0.532 OA
ENDBRANCH   1  20
TORSDOF 3
ENDMDL
MODEL 4
REMARK VINA RESULT:       0.1      8.168      9.778
REMARK  3 active torsions:
REMARK  status: ('A' for Active; 'I' for Inactive)
REMARK    1  A    between atoms: C_7  and  C_1 
REMARK    2  A    between atoms: C_10  and  C_7 
REMARK    3  A    between atoms: N_8  and  C_9 
ROOT
ATOM      1  C   UNL d   1      59.398  -8.712  35.747  0.00  0.00     0.129 A 
ATOM      2  C   UNL d   1      59.415  -8.666  34.926  0.00  0.00     0.024 A 
ATOM      3  C   UNL d   1      59.402  -8.026  36.197  0.00  0.00     0.050 A 
ATOM      4  C   UNL d   1      59.424  -7.285  35.830  0.00  0.00     0.121 A 
ATOM      5  C   UNL d   1      59.441  -7.233  35.008  0.00  0.00     0.119 A 
ATOM      6  C   UNL d   1      59.437  -7.930  34.551  0.00  0.00     0.028 A 
ATOM      7  O   UNL d   1      59.432  -6.516  36.130  0.00  0.00    -0.299 OA
ATOM      8  O   UNL d   1      59.461  -6.442  34.798  0.00  0.00    -0.300 OA
ATOM      9  C   UNL d   1      59.455  -5.995  35.492  0.00  0.00     0.304 A 
ENDROOT
BRANCH   2  10
ATOM     10  C   UNL d   1      59.411  -9.355  34.481  0.00  0.00     0.011 C 
BRANCH  10  11
ATOM     11  C   UNL d   1      59.593  -9.320  33.669  0.00  0.00     0.116 A 
ATOM     12  C   UNL d   1      60.381  -9.370  33.420  0.00  0.00     0.288 A 
ATOM     13  N   UNL d   1      60.563  -9.336  32.623  0.00  0.00    -0.152 NA
ATOM     14  O   UNL d   1      60.986  -9.455  33.984  0.00  0.00    -0.265 OA
ATOM     15  C   UNL d   1      59.963  -9.253  32.071  0.00  0.00     0.374 A 
ATOM     16  N   UNL d   1      59.175  -9.203  32.320  0.00  0.00    -0.152 NA
ATOM     17  O   UNL d   1      60.141  -9.218  31.262  0.00  0.00    -0.242 OA
ATOM     18  C   UNL d   1      58.993  -9.237  33.119  0.00  0.00     0.288 A 
ATOM     19  O   UNL d   1      58.208  -9.187  33.366  0.00  0.00    -0.265 OA
ENDBRANCH  10  11
ENDBRANCH   2  10
BRANCH   1  20
ATOM     20  N   UNL d   1      59.377  -9.444  36.115  0.00  0.00    -0.114 N 
ATOM     21  O   UNL d   1      58.651  -9.808  36.272  0.00  0.00    -0.532 OA
ATOM     22  O   UNL d   1      60.075  -9.818  36.329  0.00  0.00    -0.532 OA
ENDBRANCH   1  20
TORSDOF 3
ENDMDL
