MODEL 1
REMARK VINA RESULT:      49.8      0.000      0.000
REMARK  1 active torsions:
REMARK  status: ('A' for Active; 'I' for Inactive)
REMARK    1  A    between atoms: C_14  and  C_7 
ROOT
ATOM      1  C   UNL d   1     -59.561 -98.797 -44.988  0.00  0.00     0.121 A 
ATOM      2  C   UNL d   1     -58.748 -98.842 -45.122  0.00  0.00     0.058 A 
ATOM      3  N   UNL d   1     -59.934 -98.770 -45.723  0.00  0.00    -0.195 NA
ATOM      4  S   UNL d   1     -59.851 -98.786 -44.218  0.00  0.00    -0.068 SA
ATOM      5  C   UNL d   1     -59.332 -98.820 -43.590  0.00  0.00     0.027 A 
ATOM      6  C   UNL d   1     -58.519 -98.866 -43.724  0.00  0.00     0.003 A 
ATOM      7  C   UNL d   1     -58.227 -98.877 -44.486  0.00  0.00     0.010 A 
ATOM      8  C   UNL d   1     -59.360 -98.798 -46.308  0.00  0.00     0.311 A 
ATOM      9  S   UNL d   1     -58.621 -98.843 -45.940  0.00  0.00    -0.024 SA
ATOM     10  C   UNL d   1     -58.385 -98.881 -42.751  0.00  0.00    -0.017 A 
ATOM     11  C   UNL d   1     -59.245 -98.834 -42.495  0.00  0.00    -0.012 A 
ATOM     12  C   UNL d   1     -59.933 -98.800 -41.787  0.00  0.00     0.053 A 
ATOM     13  O   UNL d   1     -59.494 -98.784 -47.122  0.00  0.00    -0.258 OA
ATOM     14  C   UNL d   1     -57.474 -98.936 -42.255  0.00  0.00    -0.004 A 
ATOM     15  C   UNL d   1     -58.369 -98.886 -42.171  0.00  0.00    -0.004 A 
ENDROOT
BRANCH   7  16
ATOM     16  C   UNL d   1     -57.414 -98.922 -44.620  0.00  0.00     0.020 A 
ATOM     17  C   UNL d   1     -57.131 -99.074 -45.385  0.00  0.00     0.099 A 
ATOM     18  N   UNL d   1     -56.316 -99.118 -45.511  0.00  0.00    -0.242 NA
ATOM     19  C   UNL d   1     -55.789 -99.013 -44.888  0.00  0.00     0.099 A 
ATOM     20  C   UNL d   1     -56.079 -98.862 -44.130  0.00  0.00     0.021 A 
ATOM     21  C   UNL d   1     -56.887 -98.817 -43.997  0.00  0.00     0.003 A 
ENDBRANCH   7  16
TORSDOF 1
ENDMDL
MODEL 2
REMARK VINA RESULT:      50.5      1.070      2.743
REMARK  1 active torsions:
REMARK  status: ('A' for Active; 'I' for Inactive)
REMARK    1  A    between atoms: C_14  and  C_7 
ROOT
ATOM      1  C   UNL d   1     -57.924 -98.823 -45.889  0.00  0.00     0.121 A 
ATOM      2  C   UNL d   1     -58.405 -98.823 -45.219  0.00  0.00     0.058 A 
ATOM      3  N   UNL d   1     -58.418 -98.803 -46.551  0.00  0.00    -0.195 NA
ATOM      4  S   UNL d   1     -57.106 -98.840 -45.809  0.00  0.00    -0.068 SA
ATOM      5  C   UNL d   1     -56.774 -98.857 -45.064  0.00  0.00     0.027 A 
ATOM      6  C   UNL d   1     -57.255 -98.858 -44.394  0.00  0.00     0.003 A 
ATOM      7  C   UNL d   1     -58.067 -98.840 -44.469  0.00  0.00     0.010 A 
ATOM      8  C   UNL d   1     -59.196 -98.792 -46.294  0.00  0.00     0.311 A 
ATOM      9  S   UNL d   1     -59.195 -98.804 -45.468  0.00  0.00    -0.024 SA
ATOM     10  C   UNL d   1     -56.442 -98.882 -43.842  0.00  0.00    -0.017 A 
ATOM     11  C   UNL d   1     -55.831 -98.884 -44.501  0.00  0.00    -0.012 A 
ATOM     12  C   UNL d   1     -54.891 -98.899 -44.805  0.00  0.00     0.053 A 
ATOM     13  O   UNL d   1     -59.866 -98.771 -46.775  0.00  0.00    -0.258 OA
ATOM     14  C   UNL d   1     -56.402 -98.897 -42.804  0.00  0.00    -0.004 A 
ATOM     15  C   UNL d   1     -55.929 -98.896 -43.571  0.00  0.00    -0.004 A 
ENDROOT
BRANCH   7  16
ATOM     16  C   UNL d   1     -58.548 -98.840 -43.799  0.00  0.00     0.020 A 
ATOM     17  C   UNL d   1     -58.202 -98.853 -43.044  0.00  0.00     0.099 A 
ATOM     18  N   UNL d   1     -58.690 -98.853 -42.379  0.00  0.00    -0.242 NA
ATOM     19  C   UNL d   1     -59.509 -98.841 -42.459  0.00  0.00     0.099 A 
ATOM     20  C   UNL d   1     -59.844 -98.828 -43.213  0.00  0.00     0.021 A 
ATOM     21  C   UNL d   1     -59.366 -98.828 -43.879  0.00  0.00     0.003 A 
ENDBRANCH   7  16
TORSDOF 1
ENDMDL
MODEL 3
REMARK VINA RESULT:      50.8      1.535      2.867
REMARK  1 active torsions:
REMARK  status: ('A' for Active; 'I' for Inactive)
REMARK    1  A    between atoms: C_14  and  C_7 
ROOT
ATOM      1  C   UNL d   1     -59.408 -98.856 -43.942  0.00  0.00     0.121 A 
ATOM      2  C   UNL d   1     -58.591 -98.864 -43.828  0.00  0.00     0.058 A 
ATOM      3  N   UNL d   1     -59.764 -98.876 -43.198  0.00  0.00    -0.195 NA
ATOM      4  S   UNL d   1     -59.717 -98.833 -44.704  0.00  0.00    -0.068 SA
ATOM      5  C   UNL d   1     -59.212 -98.817 -45.344  0.00  0.00     0.027 A 
ATOM      6  C   UNL d   1     -58.395 -98.824 -45.230  0.00  0.00     0.003 A 
ATOM      7  C   UNL d   1     -58.084 -98.847 -44.476  0.00  0.00     0.010 A 
ATOM      8  C   UNL d   1     -59.175 -98.896 -42.628  0.00  0.00     0.311 A 
ATOM      9  S   UNL d   1     -58.444 -98.888 -43.014  0.00  0.00    -0.024 SA
ATOM     10  C   UNL d   1     -58.284 -98.796 -46.206  0.00  0.00    -0.017 A 
ATOM     11  C   UNL d   1     -59.152 -98.785 -46.441  0.00  0.00    -0.012 A 
ATOM     12  C   UNL d   1     -59.858 -98.762 -47.132  0.00  0.00     0.053 A 
ATOM     13  O   UNL d   1     -59.289 -98.919 -41.811  0.00  0.00    -0.258 OA
ATOM     14  C   UNL d   1     -57.383 -98.786 -46.724  0.00  0.00    -0.004 A 
ATOM     15  C   UNL d   1     -58.282 -98.780 -46.786  0.00  0.00    -0.004 A 
ENDROOT
BRANCH   7  16
ATOM     16  C   UNL d   1     -57.267 -98.855 -44.362  0.00  0.00     0.020 A 
ATOM     17  C   UNL d   1     -56.957 -98.764 -43.597  0.00  0.00     0.099 A 
ATOM     18  N   UNL d   1     -56.139 -98.773 -43.492  0.00  0.00    -0.242 NA
ATOM     19  C   UNL d   1     -55.634 -98.869 -44.135  0.00  0.00     0.099 A 
ATOM     20  C   UNL d   1     -55.950 -98.958 -44.891  0.00  0.00     0.021 A 
ATOM     21  C   UNL d   1     -56.762 -98.951 -45.005  0.00  0.00     0.003 A 
ENDBRANCH   7  16
TORSDOF 1
ENDMDL
