MODEL 1
REMARK VINA RESULT:       8.8      0.000      0.000
REMARK  4 active torsions:
REMARK  status: ('A' for Active; 'I' for Inactive)
REMARK    1  A    between atoms: C_9  and  C_4 
REMARK    2  A    between atoms: C_7  and  C_11 
REMARK    3  A    between atoms: O_12  and  C_7 
REMARK    4  A    between atoms: C_11  and  C_9 
ROOT
ATOM      1  N   UNL d   1      46.388 -18.202  42.972  0.00  0.00    -0.239 NA
ATOM      2  N   UNL d   1      46.400 -19.704  43.664  0.00  0.00    -0.205 NA
ATOM      3  C   UNL d   1      46.318 -19.031  44.134  0.00  0.00     0.297 A 
ATOM      4  C   UNL d   1      46.311 -18.274  43.787  0.00  0.00     0.139 A 
ATOM      5  C   UNL d   1      46.470 -18.873  42.504  0.00  0.00     0.099 A 
ATOM      6  C   UNL d   1      46.476 -19.624  42.848  0.00  0.00     0.102 A 
ATOM      7  O   UNL d   1      46.241 -19.102  44.954  0.00  0.00    -0.264 OA
ATOM      8  C   UNL d   1      46.546 -18.794  41.684  0.00  0.00     0.021 A 
ATOM      9  C   UNL d   1      46.559 -20.294  42.371  0.00  0.00     0.021 A 
ATOM     10  C   UNL d   1      46.635 -20.213  41.556  0.00  0.00     0.002 A 
ATOM     11  C   UNL d   1      46.629 -19.463  41.212  0.00  0.00     0.002 A 
ENDROOT
BRANCH   4  12
ATOM     12  C   UNL d   1      46.229 -17.605  44.261  0.00  0.00     0.029 C 
BRANCH  12  13
ATOM     13  C   UNL d   1      45.864 -16.932  43.964  0.00  0.00     0.070 C 
BRANCH  13  14
ATOM     14  C   UNL d   1      45.844 -16.242  44.421  0.00  0.00     0.296 C 
ATOM     15  O   UNL d   1      46.492 -16.027  44.885  0.00  0.00    -0.259 OA
BRANCH  14  16
ATOM     16  O   UNL d   1      45.165 -15.763  44.413  0.00  0.00    -0.296 OA
ATOM     17  C   UNL d   1      45.130 -15.086  44.883  0.00  0.00     0.185 C 
ENDBRANCH  14  16
ENDBRANCH  13  14
ENDBRANCH  12  13
ENDBRANCH   4  12
TORSDOF 4
ENDMDL
