MODEL 1
REMARK VINA RESULT:      17.3      0.000      0.000
REMARK  1 active torsions:
REMARK  status: ('A' for Active; 'I' for Inactive)
REMARK    1  A    between atoms: C_7  and  C_6 
ROOT
ATOM      1  C   UNL d   1     -54.752-101.321 -37.133  0.00  0.00     0.045 A 
ATOM      2  C   UNL d   1     -54.732-100.900 -37.843  0.00  0.00     0.196 A 
ATOM      3  C   UNL d   1     -54.762-102.130 -37.296  0.00  0.00     0.003 A 
ATOM      4  C   UNL d   1     -54.730-101.459 -38.454  0.00  0.00     0.039 A 
ATOM      5  C   UNL d   1     -54.748-102.210 -38.120  0.00  0.00     0.003 A 
ATOM      6  C   UNL d   1     -54.763-101.063 -36.339  0.00  0.00     0.068 A 
ATOM      7  O   UNL d   1     -54.718-100.085 -37.929  0.00  0.00    -0.287 OA
ATOM      8  C   UNL d   1     -54.782-102.675 -36.685  0.00  0.00     0.000 A 
ATOM      9  C   UNL d   1     -54.713-101.375 -39.277  0.00  0.00     0.003 A 
ATOM     10  C   UNL d   1     -54.749-102.877 -38.609  0.00  0.00     0.000 A 
ATOM     11  C   UNL d   1     -54.783-101.613 -35.726  0.00  0.00     0.006 A 
ATOM     12  C   UNL d   1     -54.793-102.425 -35.906  0.00  0.00     0.000 A 
ATOM     13  C   UNL d   1     -54.714-102.039 -39.758  0.00  0.00     0.000 A 
ATOM     14  C   UNL d   1     -54.732-102.790 -39.424  0.00  0.00     0.000 A 
ENDROOT
BRANCH   6  15
ATOM     15  C   UNL d   1     -54.754-100.254 -36.176  0.00  0.00     0.211 C 
ATOM     16  O   UNL d   1     -54.760-100.000 -35.389  0.00  0.00    -0.644 OA
ATOM     17  O   UNL d   1     -54.737 -99.708 -36.788  0.00  0.00    -0.644 OA
ENDBRANCH   6  15
TORSDOF 1
ENDMDL
