MODEL 1
REMARK VINA RESULT:      73.3      0.000      0.000
REMARK  3 active torsions:
REMARK  status: ('A' for Active; 'I' for Inactive)
REMARK    1  A    between atoms: C_7  and  N_1 
REMARK    2  A    between atoms: C_10  and  C_3 
REMARK    3  A    between atoms: C_8  and  C_7 
ROOT
ATOM      1  N   UNL d   1     -58.004 -98.868 -44.507  0.00  0.00    -0.289 N 
ATOM      2  N   UNL d   1     -57.144 -99.094 -43.385  0.00  0.00    -0.217 NA
ATOM      3  C   UNL d   1     -57.897 -98.981 -43.695  0.00  0.00     0.149 A 
ATOM      4  C   UNL d   1     -56.583 -98.982 -44.705  0.00  0.00     0.044 A 
ATOM      5  C   UNL d   1     -56.485 -99.095 -43.880  0.00  0.00     0.139 A 
ATOM      6  C   UNL d   1     -57.335 -98.869 -45.015  0.00  0.00     0.068 A 
ATOM      7  S   UNL d   1     -55.719 -99.208 -43.579  0.00  0.00    -0.057 SA
ATOM      8  C   UNL d   1     -55.920 -98.983 -45.209  0.00  0.00     0.004 A 
ATOM      9  C   UNL d   1     -57.446 -98.756 -45.829  0.00  0.00     0.018 A 
ATOM     10  C   UNL d   1     -56.035 -98.869 -46.025  0.00  0.00     0.000 A 
ATOM     11  C   UNL d   1     -56.787 -98.756 -46.336  0.00  0.00     0.002 A 
ENDROOT
BRANCH   1  12
ATOM     12  C   UNL d   1     -58.756 -98.756 -44.818  0.00  0.00     0.106 C 
BRANCH  12  13
ATOM     13  C   UNL d   1     -58.990 -99.161 -45.498  0.00  0.00     0.118 A 
ATOM     14  O   UNL d   1     -58.758 -99.910 -45.708  0.00  0.00    -0.304 OA
ATOM     15  C   UNL d   1     -59.118-100.098 -46.419  0.00  0.00     0.123 A 
ATOM     16  C   UNL d   1     -59.580 -99.452 -46.649  0.00  0.00     0.029 A 
ATOM     17  C   UNL d   1     -59.500 -98.866 -46.074  0.00  0.00     0.028 A 
ENDBRANCH  12  13
ENDBRANCH   1  12
BRANCH   3  18
ATOM     18  C   UNL d   1     -58.560 -98.979 -43.200  0.00  0.00     0.035 A 
ATOM     19  C   UNL d   1     -58.491 -98.758 -42.411  0.00  0.00     0.003 A 
ATOM     20  C   UNL d   1     -59.159 -98.761 -41.933  0.00  0.00     0.000 A 
ATOM     21  C   UNL d   1     -59.890 -98.980 -42.226  0.00  0.00     0.000 A 
ATOM     22  C   UNL d   1     -59.960 -99.205 -43.028  0.00  0.00     0.000 A 
ATOM     23  C   UNL d   1     -59.292 -99.203 -43.511  0.00  0.00     0.003 A 
ENDBRANCH   3  18
TORSDOF 3
ENDMDL
