MODEL 1
REMARK VINA RESULT:      -8.0      0.000      0.000
REMARK  6 active torsions:
REMARK  status: ('A' for Active; 'I' for Inactive)
REMARK    1  A    between atoms: N_9  and  C_1 
REMARK    2  A    between atoms: C_4  and  S_13 
REMARK    3  A    between atoms: C_14  and  C_8 
REMARK       I    between atoms: C_12  and  N_9 
REMARK    4  A    between atoms: C_17  and  C_10 
REMARK    5  A    between atoms: C_16  and  C_12 
REMARK    6  A    between atoms: S_13  and  C_16 
ROOT
ATOM      1  S   UNL d   1      51.309  34.061  52.582  0.00  0.00    -0.043 SA
ENDROOT
BRANCH   1   2
ATOM      2  C   UNL d   1      51.903  33.592  52.926  0.00  0.00     0.195 A 
ATOM      3  N   UNL d   1      52.534  33.860  53.379  0.00  0.00    -0.220 NA
ATOM      4  C   UNL d   1      52.975  33.212  53.601  0.00  0.00     0.103 A 
ATOM      5  C   UNL d   1      52.623  32.542  53.290  0.00  0.00     0.120 A 
ATOM      6  N   UNL d   1      51.963  32.781  52.875  0.00  0.00    -0.218 NA
BRANCH   4   7
ATOM      7  C   UNL d   1      53.655  33.269  54.062  0.00  0.00     0.019 A 
ATOM      8  C   UNL d   1      53.594  33.311  54.886  0.00  0.00     0.002 A 
ATOM      9  C   UNL d   1      54.285  33.369  55.336  0.00  0.00     0.000 A 
ATOM     10  C   UNL d   1      55.020  33.383  54.965  0.00  0.00     0.000 A 
ATOM     11  C   UNL d   1      55.075  33.341  54.156  0.00  0.00     0.000 A 
ATOM     12  C   UNL d   1      54.381  33.283  53.697  0.00  0.00     0.002 A 
ENDBRANCH   4   7
ENDBRANCH   1   2
BRANCH   1  13
ATOM     13  C   UNL d   1      50.568  34.111  52.945  0.00  0.00     0.101 C 
BRANCH  13  14
ATOM     14  C   UNL d   1      49.941  34.488  52.562  0.00  0.00     0.288 C 
ATOM     15  N   UNL d   1      49.346  34.864  52.995  0.00  0.00    -0.181 NA
ATOM     16  O   UNL d   1      49.909  34.488  51.729  0.00  0.00    -0.265 OA
BRANCH  15  17
ATOM     17  C   UNL d   1      48.717  35.243  52.607  0.00  0.00     0.219 A 
ATOM     18  S   UNL d   1      48.269  35.810  53.004  0.00  0.00    -0.026 SA
ATOM     19  C   UNL d   1      47.687  36.088  52.482  0.00  0.00     0.135 A 
ATOM     20  N   UNL d   1      47.781  35.690  51.765  0.00  0.00    -0.139 NA
ATOM     21  N   UNL d   1      48.415  35.168  51.839  0.00  0.00    -0.121 NA
BRANCH  19  22
ATOM     22  C   UNL d   1      47.118  36.657  52.645  0.00  0.00     0.028 C 
ATOM     23  C   UNL d   1      46.319  36.475  52.537  0.00  0.00     0.002 C 
ENDBRANCH  19  22
ENDBRANCH  15  17
ENDBRANCH  13  14
ENDBRANCH   1  13
TORSDOF 6
ENDMDL
MODEL 2
REMARK VINA RESULT:      -7.3      1.150      5.946
REMARK  6 active torsions:
REMARK  status: ('A' for Active; 'I' for Inactive)
REMARK    1  A    between atoms: N_9  and  C_1 
REMARK    2  A    between atoms: C_4  and  S_13 
REMARK    3  A    between atoms: C_14  and  C_8 
REMARK       I    between atoms: C_12  and  N_9 
REMARK    4  A    between atoms: C_17  and  C_10 
REMARK    5  A    between atoms: C_16  and  C_12 
REMARK    6  A    between atoms: S_13  and  C_16 
ROOT
ATOM      1  S   UNL d   1      50.367  33.995  52.867  0.00  0.00    -0.043 SA
ENDROOT
BRANCH   1   2
ATOM      2  C   UNL d   1      49.747  34.428  52.522  0.00  0.00     0.195 A 
ATOM      3  N   UNL d   1      49.200  34.895  52.920  0.00  0.00    -0.220 NA
ATOM      4  C   UNL d   1      48.696  35.214  52.365  0.00  0.00     0.103 A 
ATOM      5  C   UNL d   1      48.924  34.949  51.626  0.00  0.00     0.120 A 
ATOM      6  N   UNL d   1      49.572  34.466  51.728  0.00  0.00    -0.218 NA
BRANCH   4   7
ATOM      7  C   UNL d   1      48.072  35.715  52.563  0.00  0.00     0.019 A 
ATOM      8  C   UNL d   1      48.056  36.083  53.304  0.00  0.00     0.002 A 
ATOM      9  C   UNL d   1      47.424  36.583  53.488  0.00  0.00     0.000 A 
ATOM     10  C   UNL d   1      46.822  36.709  52.939  0.00  0.00     0.000 A 
ATOM     11  C   UNL d   1      46.843  36.346  52.213  0.00  0.00     0.000 A 
ATOM     12  C   UNL d   1      47.478  35.840  52.022  0.00  0.00     0.002 A 
ENDBRANCH   4   7
ENDBRANCH   1   2
BRANCH   1  13
ATOM     13  C   UNL d   1      51.149  34.167  52.659  0.00  0.00     0.101 C 
BRANCH  13  14
ATOM     14  C   UNL d   1      51.772  33.738  52.990  0.00  0.00     0.288 C 
ATOM     15  N   UNL d   1      52.462  34.119  53.238  0.00  0.00    -0.181 NA
ATOM     16  O   UNL d   1      51.703  32.912  53.072  0.00  0.00    -0.265 OA
BRANCH  15  17
ATOM     17  C   UNL d   1      53.087  33.684  53.570  0.00  0.00     0.219 A 
ATOM     18  S   UNL d   1      53.383  33.890  54.312  0.00  0.00    -0.026 SA
ATOM     19  C   UNL d   1      53.998  33.363  54.497  0.00  0.00     0.135 A 
ATOM     20  N   UNL d   1      54.076  32.836  53.867  0.00  0.00    -0.139 NA
ATOM     21  N   UNL d   1      53.516  33.031  53.294  0.00  0.00    -0.121 NA
BRANCH  19  22
ATOM     22  C   UNL d   1      54.450  33.363  55.183  0.00  0.00     0.028 C 
ATOM     23  C   UNL d   1      55.206  33.698  55.171  0.00  0.00     0.002 C 
ENDBRANCH  19  22
ENDBRANCH  15  17
ENDBRANCH  13  14
ENDBRANCH   1  13
TORSDOF 6
ENDMDL
MODEL 3
REMARK VINA RESULT:      -5.4     10.465     11.162
REMARK  6 active torsions:
REMARK  status: ('A' for Active; 'I' for Inactive)
REMARK    1  A    between atoms: N_9  and  C_1 
REMARK    2  A    between atoms: C_4  and  S_13 
REMARK    3  A    between atoms: C_14  and  C_8 
REMARK       I    between atoms: C_12  and  N_9 
REMARK    4  A    between atoms: C_17  and  C_10 
REMARK    5  A    between atoms: C_16  and  C_12 
REMARK    6  A    between atoms: S_13  and  C_16 
ROOT
ATOM      1  S   UNL d   1      45.085  27.021  57.025  0.00  0.00    -0.043 SA
ENDROOT
BRANCH   1   2
ATOM      2  C   UNL d   1      44.889  26.242  56.812  0.00  0.00     0.195 A 
ATOM      3  N   UNL d   1      44.961  25.909  56.065  0.00  0.00    -0.220 NA
ATOM      4  C   UNL d   1      44.704  25.136  56.112  0.00  0.00     0.103 A 
ATOM      5  C   UNL d   1      44.474  24.987  56.882  0.00  0.00     0.120 A 
ATOM      6  N   UNL d   1      44.589  25.671  57.310  0.00  0.00    -0.218 NA
BRANCH   4   7
ATOM      7  C   UNL d   1      44.697  24.627  55.464  0.00  0.00     0.019 A 
ATOM      8  C   UNL d   1      44.314  24.852  54.765  0.00  0.00     0.002 A 
ATOM      9  C   UNL d   1      44.315  24.331  54.123  0.00  0.00     0.000 A 
ATOM     10  C   UNL d   1      44.693  23.601  54.183  0.00  0.00     0.000 A 
ATOM     11  C   UNL d   1      45.067  23.385  54.871  0.00  0.00     0.000 A 
ATOM     12  C   UNL d   1      45.069  23.907  55.522  0.00  0.00     0.002 A 
ENDBRANCH   4   7
ENDBRANCH   1   2
BRANCH   1  13
ATOM     13  C   UNL d   1      44.888  27.300  57.778  0.00  0.00     0.101 C 
BRANCH  13  14
ATOM     14  C   UNL d   1      45.067  28.077  57.995  0.00  0.00     0.288 C 
ATOM     15  N   UNL d   1      44.745  28.409  58.679  0.00  0.00    -0.181 NA
ATOM     16  O   UNL d   1      45.579  28.529  57.517  0.00  0.00    -0.265 OA
BRANCH  15  17
ATOM     17  C   UNL d   1      44.927  29.190  58.894  0.00  0.00     0.219 A 
ATOM     18  S   UNL d   1      44.579  29.525  59.564  0.00  0.00    -0.026 SA
ATOM     19  C   UNL d   1      44.863  30.301  59.638  0.00  0.00     0.135 A 
ATOM     20  N   UNL d   1      45.384  30.440  59.013  0.00  0.00    -0.139 NA
ATOM     21  N   UNL d   1      45.425  29.757  58.553  0.00  0.00    -0.121 NA
BRANCH  19  22
ATOM     22  C   UNL d   1      44.664  30.839  60.226  0.00  0.00     0.028 C 
ATOM     23  C   UNL d   1      44.858  30.671  61.012  0.00  0.00     0.002 C 
ENDBRANCH  19  22
ENDBRANCH  15  17
ENDBRANCH  13  14
ENDBRANCH   1  13
TORSDOF 6
ENDMDL
