MODEL 1
REMARK VINA RESULT:      14.6      0.000      0.000
REMARK  3 active torsions:
REMARK  status: ('A' for Active; 'I' for Inactive)
REMARK    1  A    between atoms: C_6  and  C_1 
REMARK    2  A    between atoms: C_7  and  C_5 
REMARK    3  A    between atoms: O_11  and  C_6 
ROOT
ATOM      1  C   UNL d   1     -54.767-102.030 -40.171  0.00  0.00     0.167 A 
ATOM      2  C   UNL d   1     -54.711-101.424 -39.677  0.00  0.00     0.047 A 
ATOM      3  N   UNL d   1     -54.865-102.878 -39.121  0.00  0.00    -0.148 NA
ATOM      4  N   UNL d   1     -54.845-102.763 -39.892  0.00  0.00    -0.143 NA
ATOM      5  C   UNL d   1     -54.809-102.266 -38.621  0.00  0.00     0.105 A 
ENDROOT
BRANCH   5   6
ATOM      6  C   UNL d   1     -54.810-102.187 -37.800  0.00  0.00     0.019 A 
ATOM      7  C   UNL d   1     -54.866-102.873 -37.331  0.00  0.00     0.002 A 
ATOM      8  C   UNL d   1     -54.868-102.802 -36.506  0.00  0.00     0.011 A 
ATOM      9  C   UNL d   1     -54.813-102.049 -36.156  0.00  0.00     0.058 A 
ATOM     10  C   UNL d   1     -54.758-101.377 -36.635  0.00  0.00     0.011 A 
ATOM     11 CL   UNL d   1     -54.816-101.980 -35.316  0.00  0.00    -0.082 Cl
ATOM     12  C   UNL d   1     -54.756-101.449 -37.450  0.00  0.00     0.002 A 
ENDBRANCH   5   6
BRANCH   1  13
ATOM     13  C   UNL d   1     -54.746-101.906 -40.953  0.00  0.00     0.316 C 
ATOM     14  O   UNL d   1     -54.741-102.522 -41.451  0.00  0.00    -0.257 OA
BRANCH  13  15
ATOM     15  O   UNL d   1     -54.729-101.133 -41.236  0.00  0.00    -0.294 OA
ATOM     16  C   UNL d   1     -54.738-100.994 -42.072  0.00  0.00     0.185 C 
ENDBRANCH  13  15
ENDBRANCH   1  13
TORSDOF 3
ENDMDL
