MODEL 1
REMARK VINA RESULT:      -6.5      0.000      0.000
REMARK  6 active torsions:
REMARK  status: ('A' for Active; 'I' for Inactive)
REMARK    1  A    between atoms: C_10  and  C_1 
REMARK    2  A    between atoms: C_7  and  O_9 
REMARK       I    between atoms: N_12  and  C_7 
REMARK    3  A    between atoms: O_9  and  C_14 
REMARK    4  A    between atoms: C_24  and  N_12 
REMARK    5  A    between atoms: C_25  and  N_12 
REMARK    6  A    between atoms: O_23  and  C_20 
ROOT
ATOM      1  C   UNL d   1      48.540  35.172  52.132  0.00  0.00     0.062 A 
ATOM      2  C   UNL d   1      49.017  35.168  52.817  0.00  0.00     0.199 A 
ATOM      3  C   UNL d   1      48.812  34.785  51.439  0.00  0.00     0.103 A 
ATOM      4  C   UNL d   1      49.746  34.793  52.821  0.00  0.00     0.062 A 
ATOM      5  C   UNL d   1      50.017  34.408  52.131  0.00  0.00     0.105 A 
ATOM      6  O   UNL d   1      49.555  34.402  51.441  0.00  0.00    -0.307 OA
ATOM      7  C   UNL d   1      50.756  34.026  52.130  0.00  0.00     0.050 A 
ATOM      8  C   UNL d   1      50.226  34.785  53.498  0.00  0.00     0.007 A 
ATOM      9  O   UNL d   1      48.745  35.550  53.498  0.00  0.00    -0.286 OA
ATOM     10  C   UNL d   1      51.223  34.026  52.810  0.00  0.00     0.107 A 
ATOM     11  C   UNL d   1      50.958  34.405  53.494  0.00  0.00     0.025 A 
ATOM     12  C   UNL d   1      48.346  34.785  50.760  0.00  0.00     0.027 C 
ENDROOT
BRANCH   1  13
ATOM     13  C   UNL d   1      47.810  35.549  52.133  0.00  0.00     0.005 A 
ATOM     14  C   UNL d   1      47.735  36.306  51.800  0.00  0.00     0.002 A 
ATOM     15  C   UNL d   1      47.004  36.684  51.802  0.00  0.00     0.024 A 
ATOM     16  C   UNL d   1      46.348  36.312  52.133  0.00  0.00     0.094 A 
ATOM     17  C   UNL d   1      46.422  35.552  52.468  0.00  0.00     0.024 A 
ATOM     18  C   UNL d   1      47.152  35.178  52.465  0.00  0.00     0.002 A 
BRANCH  16  19
ATOM     19  O   UNL d   1      45.617  36.687  52.137  0.00  0.00    -0.328 OA
ATOM     20  C   UNL d   1      45.136  36.655  52.805  0.00  0.00     0.181 C 
ENDBRANCH  16  19
ENDBRANCH   1  13
BRANCH  10  21
ATOM     21  O   UNL d   1      51.955  33.646  52.805  0.00  0.00    -0.259 OA
BRANCH  21  22
ATOM     22  C   UNL d   1      52.019  32.875  53.089  0.00  0.00     0.377 C 
ATOM     23  N   UNL d   1      52.761  32.522  53.156  0.00  0.00    -0.252 N 
ATOM     24  O   UNL d   1      51.341  32.456  53.307  0.00  0.00    -0.237 OA
BRANCH  23  25
ATOM     25  C   UNL d   1      53.445  32.940  52.938  0.00  0.00     0.085 C 
ATOM     26  C   UNL d   1      54.111  32.948  53.425  0.00  0.00     0.021 C 
ENDBRANCH  23  25
BRANCH  23  27
ATOM     27  C   UNL d   1      52.828  31.748  53.441  0.00  0.00     0.085 C 
ATOM     28  C   UNL d   1      53.085  31.137  52.935  0.00  0.00     0.021 C 
ENDBRANCH  23  27
ENDBRANCH  21  22
ENDBRANCH  10  21
TORSDOF 6
ENDMDL
MODEL 2
REMARK VINA RESULT:      -6.2      1.744      5.815
REMARK  6 active torsions:
REMARK  status: ('A' for Active; 'I' for Inactive)
REMARK    1  A    between atoms: C_10  and  C_1 
REMARK    2  A    between atoms: C_7  and  O_9 
REMARK       I    between atoms: N_12  and  C_7 
REMARK    3  A    between atoms: O_9  and  C_14 
REMARK    4  A    between atoms: C_24  and  N_12 
REMARK    5  A    between atoms: C_25  and  N_12 
REMARK    6  A    between atoms: O_23  and  C_20 
ROOT
ATOM      1  C   UNL d   1      51.059  34.043  52.675  0.00  0.00     0.062 A 
ATOM      2  C   UNL d   1      50.799  34.150  51.888  0.00  0.00     0.199 A 
ATOM      3  C   UNL d   1      50.520  34.165  53.306  0.00  0.00     0.103 A 
ATOM      4  C   UNL d   1      50.027  34.372  51.726  0.00  0.00     0.062 A 
ATOM      5  C   UNL d   1      49.490  34.494  52.354  0.00  0.00     0.105 A 
ATOM      6  O   UNL d   1      49.732  34.392  53.142  0.00  0.00    -0.307 OA
ATOM      7  C   UNL d   1      48.706  34.720  52.194  0.00  0.00     0.050 A 
ATOM      8  C   UNL d   1      49.762  34.481  50.946  0.00  0.00     0.007 A 
ATOM      9  O   UNL d   1      51.333  34.029  51.269  0.00  0.00    -0.286 OA
ATOM     10  C   UNL d   1      48.456  34.824  51.415  0.00  0.00     0.107 A 
ATOM     11  C   UNL d   1      48.984  34.704  50.792  0.00  0.00     0.025 A 
ATOM     12  C   UNL d   1      50.770  34.062  54.084  0.00  0.00     0.027 C 
ENDROOT
BRANCH   1  13
ATOM     13  C   UNL d   1      51.834  33.820  52.832  0.00  0.00     0.005 A 
ATOM     14  C   UNL d   1      52.407  34.400  52.987  0.00  0.00     0.002 A 
ATOM     15  C   UNL d   1      53.183  34.177  53.144  0.00  0.00     0.024 A 
ATOM     16  C   UNL d   1      53.391  33.379  53.148  0.00  0.00     0.094 A 
ATOM     17  C   UNL d   1      52.815  32.796  52.993  0.00  0.00     0.024 A 
ATOM     18  C   UNL d   1      52.043  33.022  52.836  0.00  0.00     0.002 A 
BRANCH  16  19
ATOM     19  O   UNL d   1      54.164  33.153  53.305  0.00  0.00    -0.328 OA
ATOM     20  C   UNL d   1      54.395  32.962  54.073  0.00  0.00     0.181 C 
ENDBRANCH  16  19
ENDBRANCH   1  13
BRANCH  10  21
ATOM     21  O   UNL d   1      47.677  35.047  51.260  0.00  0.00    -0.259 OA
BRANCH  21  22
ATOM     22  C   UNL d   1      47.384  35.753  51.568  0.00  0.00     0.377 C 
ATOM     23  N   UNL d   1      46.571  35.893  51.572  0.00  0.00    -0.252 N 
ATOM     24  O   UNL d   1      47.903  36.320  51.871  0.00  0.00    -0.237 OA
BRANCH  23  25
ATOM     25  C   UNL d   1      46.046  35.327  51.268  0.00  0.00     0.085 C 
ATOM     26  C   UNL d   1      45.450  35.539  50.739  0.00  0.00     0.021 C 
ENDBRANCH  23  25
BRANCH  23  27
ATOM     27  C   UNL d   1      46.275  36.602  51.880  0.00  0.00     0.085 C 
ATOM     28  C   UNL d   1      45.751  36.588  52.528  0.00  0.00     0.021 C 
ENDBRANCH  23  27
ENDBRANCH  21  22
ENDBRANCH  10  21
TORSDOF 6
ENDMDL
MODEL 3
REMARK VINA RESULT:      -6.0      1.790      5.953
REMARK  6 active torsions:
REMARK  status: ('A' for Active; 'I' for Inactive)
REMARK    1  A    between atoms: C_10  and  C_1 
REMARK    2  A    between atoms: C_7  and  O_9 
REMARK       I    between atoms: N_12  and  C_7 
REMARK    3  A    between atoms: O_9  and  C_14 
REMARK    4  A    between atoms: C_24  and  N_12 
REMARK    5  A    between atoms: C_25  and  N_12 
REMARK    6  A    between atoms: O_23  and  C_20 
ROOT
ATOM      1  C   UNL d   1      52.489  34.104  53.544  0.00  0.00     0.062 A 
ATOM      2  C   UNL d   1      51.809  33.621  53.520  0.00  0.00     0.199 A 
ATOM      3  C   UNL d   1      52.478  34.850  53.160  0.00  0.00     0.103 A 
ATOM      4  C   UNL d   1      51.132  33.866  53.127  0.00  0.00     0.062 A 
ATOM      5  C   UNL d   1      51.120  34.608  52.744  0.00  0.00     0.105 A 
ATOM      6  O   UNL d   1      51.789  35.101  52.759  0.00  0.00    -0.307 OA
ATOM      7  C   UNL d   1      50.436  34.860  52.345  0.00  0.00     0.050 A 
ATOM      8  C   UNL d   1      50.451  33.390  53.099  0.00  0.00     0.007 A 
ATOM      9  O   UNL d   1      51.824  32.887  53.900  0.00  0.00    -0.286 OA
ATOM     10  C   UNL d   1      49.767  34.379  52.325  0.00  0.00     0.107 A 
ATOM     11  C   UNL d   1      49.775  33.644  52.702  0.00  0.00     0.025 A 
ATOM     12  C   UNL d   1      53.146  35.331  53.180  0.00  0.00     0.027 C 
ENDROOT
BRANCH   1  13
ATOM     13  C   UNL d   1      53.165  33.854  53.939  0.00  0.00     0.005 A 
ATOM     14  C   UNL d   1      53.702  33.347  53.560  0.00  0.00     0.002 A 
ATOM     15  C   UNL d   1      54.378  33.097  53.956  0.00  0.00     0.024 A 
ATOM     16  C   UNL d   1      54.523  33.350  54.727  0.00  0.00     0.094 A 
ATOM     17  C   UNL d   1      53.984  33.859  55.108  0.00  0.00     0.024 A 
ATOM     18  C   UNL d   1      53.310  34.107  54.711  0.00  0.00     0.002 A 
BRANCH  16  19
ATOM     19  O   UNL d   1      55.197  33.102  55.125  0.00  0.00    -0.328 OA
ATOM     20  C   UNL d   1      55.685  33.651  55.499  0.00  0.00     0.181 C 
ENDBRANCH  16  19
ENDBRANCH   1  13
BRANCH  10  21
ATOM     21  O   UNL d   1      49.091  34.632  51.927  0.00  0.00    -0.259 OA
BRANCH  21  22
ATOM     22  C   UNL d   1      48.535  35.098  52.319  0.00  0.00     0.377 C 
ATOM     23  N   UNL d   1      47.870  35.371  51.914  0.00  0.00    -0.252 N 
ATOM     24  O   UNL d   1      48.643  35.290  53.114  0.00  0.00    -0.237 OA
BRANCH  23  25
ATOM     25  C   UNL d   1      47.758  35.180  51.114  0.00  0.00     0.085 C 
ATOM     26  C   UNL d   1      47.001  35.146  50.787  0.00  0.00     0.021 C 
ENDBRANCH  23  25
BRANCH  23  27
ATOM     27  C   UNL d   1      47.311  35.839  52.306  0.00  0.00     0.085 C 
ATOM     28  C   UNL d   1      47.345  36.670  52.244  0.00  0.00     0.021 C 
ENDBRANCH  23  27
ENDBRANCH  21  22
ENDBRANCH  10  21
TORSDOF 6
ENDMDL
MODEL 4
REMARK VINA RESULT:      -5.6      1.666      5.937
REMARK  6 active torsions:
REMARK  status: ('A' for Active; 'I' for Inactive)
REMARK    1  A    between atoms: C_10  and  C_1 
REMARK    2  A    between atoms: C_7  and  O_9 
REMARK       I    between atoms: N_12  and  C_7 
REMARK    3  A    between atoms: O_9  and  C_14 
REMARK    4  A    between atoms: C_24  and  N_12 
REMARK    5  A    between atoms: C_25  and  N_12 
REMARK    6  A    between atoms: O_23  and  C_20 
ROOT
ATOM      1  C   UNL d   1      51.980  33.407  53.228  0.00  0.00     0.062 A 
ATOM      2  C   UNL d   1      51.173  33.197  53.178  0.00  0.00     0.199 A 
ATOM      3  C   UNL d   1      52.205  34.207  53.116  0.00  0.00     0.103 A 
ATOM      4  C   UNL d   1      50.600  33.763  53.020  0.00  0.00     0.062 A 
ATOM      5  C   UNL d   1      50.824  34.559  52.908  0.00  0.00     0.105 A 
ATOM      6  O   UNL d   1      51.622  34.785  52.955  0.00  0.00    -0.307 OA
ATOM      7  C   UNL d   1      50.246  35.136  52.748  0.00  0.00     0.050 A 
ATOM      8  C   UNL d   1      49.796  33.562  52.969  0.00  0.00     0.007 A 
ATOM      9  O   UNL d   1      50.956  32.408  53.290  0.00  0.00    -0.286 OA
ATOM     10  C   UNL d   1      49.452  34.923  52.699  0.00  0.00     0.107 A 
ATOM     11  C   UNL d   1      49.227  34.136  52.809  0.00  0.00     0.025 A 
ATOM     12  C   UNL d   1      52.999  34.420  53.164  0.00  0.00     0.027 C 
ENDROOT
BRANCH   1  13
ATOM     13  C   UNL d   1      52.551  32.837  53.387  0.00  0.00     0.005 A 
ATOM     14  C   UNL d   1      52.928  32.824  54.126  0.00  0.00     0.002 A 
ATOM     15  C   UNL d   1      53.499  32.253  54.284  0.00  0.00     0.024 A 
ATOM     16  C   UNL d   1      53.696  31.695  53.711  0.00  0.00     0.094 A 
ATOM     17  C   UNL d   1      53.317  31.708  52.968  0.00  0.00     0.024 A 
ATOM     18  C   UNL d   1      52.748  32.278  52.813  0.00  0.00     0.002 A 
BRANCH  16  19
ATOM     19  O   UNL d   1      54.265  31.124  53.865  0.00  0.00    -0.328 OA
ATOM     20  C   UNL d   1      54.123  30.334  53.681  0.00  0.00     0.181 C 
ENDBRANCH  16  19
ENDBRANCH   1  13
BRANCH  10  21
ATOM     21  O   UNL d   1      48.881  35.497  52.540  0.00  0.00    -0.259 OA
BRANCH  21  22
ATOM     22  C   UNL d   1      48.501  35.881  53.162  0.00  0.00     0.377 C 
ATOM     23  N   UNL d   1      47.735  36.170  53.059  0.00  0.00    -0.252 N 
ATOM     24  O   UNL d   1      48.886  35.977  53.886  0.00  0.00    -0.237 OA
BRANCH  23  25
ATOM     25  C   UNL d   1      47.346  36.076  52.333  0.00  0.00     0.085 C 
ATOM     26  C   UNL d   1      46.743  36.591  52.103  0.00  0.00     0.021 C 
ENDBRANCH  23  25
BRANCH  23  27
ATOM     27  C   UNL d   1      47.352  36.556  53.683  0.00  0.00     0.085 C 
ATOM     28  C   UNL d   1      46.676  36.216  54.032  0.00  0.00     0.021 C 
ENDBRANCH  23  27
ENDBRANCH  21  22
ENDBRANCH  10  21
TORSDOF 6
ENDMDL
MODEL 5
REMARK VINA RESULT:      -3.6     10.372     11.636
REMARK  6 active torsions:
REMARK  status: ('A' for Active; 'I' for Inactive)
REMARK    1  A    between atoms: C_10  and  C_1 
REMARK    2  A    between atoms: C_7  and  O_9 
REMARK       I    between atoms: N_12  and  C_7 
REMARK    3  A    between atoms: O_9  and  C_14 
REMARK    4  A    between atoms: C_24  and  N_12 
REMARK    5  A    between atoms: C_25  and  N_12 
REMARK    6  A    between atoms: O_23  and  C_20 
ROOT
ATOM      1  C   UNL d   1      44.688  25.299  57.308  0.00  0.00     0.062 A 
ATOM      2  C   UNL d   1      44.501  26.032  56.954  0.00  0.00     0.199 A 
ATOM      3  C   UNL d   1      44.877  25.273  58.125  0.00  0.00     0.103 A 
ATOM      4  C   UNL d   1      44.499  26.724  57.395  0.00  0.00     0.062 A 
ATOM      5  C   UNL d   1      44.687  26.698  58.208  0.00  0.00     0.105 A 
ATOM      6  O   UNL d   1      44.875  25.977  58.575  0.00  0.00    -0.307 OA
ATOM      7  C   UNL d   1      44.686  27.397  58.658  0.00  0.00     0.050 A 
ATOM      8  C   UNL d   1      44.314  27.457  57.050  0.00  0.00     0.007 A 
ATOM      9  O   UNL d   1      44.316  26.054  56.149  0.00  0.00    -0.286 OA
ATOM     10  C   UNL d   1      44.500  28.117  58.304  0.00  0.00     0.107 A 
ATOM     11  C   UNL d   1      44.315  28.147  57.500  0.00  0.00     0.025 A 
ATOM     12  C   UNL d   1      45.062  24.552  58.479  0.00  0.00     0.027 C 
ENDROOT
BRANCH   1  13
ATOM     13  C   UNL d   1      44.689  24.608  56.862  0.00  0.00     0.005 A 
ATOM     14  C   UNL d   1      45.065  24.594  56.122  0.00  0.00     0.002 A 
ATOM     15  C   UNL d   1      45.066  23.903  55.676  0.00  0.00     0.024 A 
ATOM     16  C   UNL d   1      44.693  23.226  55.963  0.00  0.00     0.094 A 
ATOM     17  C   UNL d   1      44.315  23.240  56.706  0.00  0.00     0.024 A 
ATOM     18  C   UNL d   1      44.316  23.931  57.148  0.00  0.00     0.002 A 
BRANCH  16  19
ATOM     19  O   UNL d   1      44.692  22.535  55.521  0.00  0.00    -0.328 OA
ATOM     20  C   UNL d   1      45.401  22.163  55.327  0.00  0.00     0.181 C 
ENDBRANCH  16  19
ENDBRANCH   1  13
BRANCH  10  21
ATOM     21  O   UNL d   1      44.501  28.809  58.754  0.00  0.00    -0.259 OA
BRANCH  21  22
ATOM     22  C   UNL d   1      44.940  29.460  58.504  0.00  0.00     0.377 C 
ATOM     23  N   UNL d   1      44.909  30.164  58.933  0.00  0.00    -0.252 N 
ATOM     24  O   UNL d   1      45.409  29.409  57.827  0.00  0.00    -0.237 OA
BRANCH  23  25
ATOM     25  C   UNL d   1      44.439  30.220  59.615  0.00  0.00     0.085 C 
ATOM     26  C   UNL d   1      44.755  30.486  60.329  0.00  0.00     0.021 C 
ENDBRANCH  23  25
BRANCH  23  27
ATOM     27  C   UNL d   1      45.349  30.819  58.685  0.00  0.00     0.085 C 
ATOM     28  C   UNL d   1      44.967  31.542  58.524  0.00  0.00     0.021 C 
ENDBRANCH  23  27
ENDBRANCH  21  22
ENDBRANCH  10  21
TORSDOF 6
ENDMDL
