MODEL 1
REMARK VINA RESULT:      -5.1      0.000      0.000
REMARK  4 active torsions:
REMARK  status: ('A' for Active; 'I' for Inactive)
REMARK    1  A    between atoms: S_2  and  N_1 
REMARK    2  A    between atoms: C_10  and  S_2 
REMARK    3  A    between atoms: C_7  and  C_4 
REMARK    4  A    between atoms: C_11  and  C_5 
ROOT
ATOM      1  N   UNL d   1      58.159  -1.152  30.149  0.00  0.00    -0.152 N 
ATOM      2  N   UNL d   1      57.561  -1.249  30.733  0.00  0.00    -0.155 NA
ATOM      3  C   UNL d   1      58.417  -0.362  30.173  0.00  0.00     0.099 A 
ATOM      4  C   UNL d   1      57.443  -0.524  31.121  0.00  0.00     0.104 A 
ATOM      5  C   UNL d   1      57.967   0.025  30.780  0.00  0.00     0.041 A 
ENDROOT
BRANCH   1   6
ATOM      6  S   UNL d   1      58.446  -1.718  29.645  0.00  0.00     0.286 S 
ATOM      7  O   UNL d   1      58.113  -1.287  28.908  0.00  0.00    -0.198 OA
ATOM      8  O   UNL d   1      58.757  -2.126  30.305  0.00  0.00    -0.198 OA
BRANCH   6   9
ATOM      9  C   UNL d   1      58.818  -2.391  29.358  0.00  0.00     0.105 A 
ATOM     10  C   UNL d   1      58.473  -2.823  28.745  0.00  0.00     0.013 A 
ATOM     11  C   UNL d   1      58.848  -3.500  28.455  0.00  0.00     0.001 A 
ATOM     12  C   UNL d   1      59.555  -3.724  28.788  0.00  0.00     0.000 A 
ATOM     13  C   UNL d   1      59.912  -3.312  29.394  0.00  0.00     0.001 A 
ATOM     14  C   UNL d   1      59.537  -2.635  29.683  0.00  0.00     0.013 A 
ENDBRANCH   6   9
ENDBRANCH   1   6
BRANCH   3  15
ATOM     15  C   UNL d   1      58.997  -0.015  29.700  0.00  0.00     0.058 A 
ATOM     16  C   UNL d   1      59.700   0.200  30.048  0.00  0.00     0.197 A 
ATOM     17  O   UNL d   1      59.860   0.089  30.837  0.00  0.00    -0.286 OA
ATOM     18  C   UNL d   1      60.300   0.559  29.560  0.00  0.00     0.042 A 
ATOM     19  C   UNL d   1      60.159   0.682  28.755  0.00  0.00     0.003 A 
ATOM     20  C   UNL d   1      59.431   0.446  28.456  0.00  0.00     0.000 A 
ATOM     21  C   UNL d   1      58.869   0.109  28.914  0.00  0.00     0.005 A 
ENDBRANCH   3  15
BRANCH   4  22
ATOM     22  C   UNL d   1      56.913  -0.394  31.717  0.00  0.00     0.019 A 
ATOM     23  C   UNL d   1      56.594  -1.038  32.130  0.00  0.00     0.002 A 
ATOM     24  C   UNL d   1      56.062  -0.909  32.729  0.00  0.00     0.000 A 
ATOM     25  C   UNL d   1      55.852  -0.172  32.912  0.00  0.00     0.000 A 
ATOM     26  C   UNL d   1      56.143   0.472  32.530  0.00  0.00     0.000 A 
ATOM     27  C   UNL d   1      55.309  -0.064  33.524  0.00  0.00     0.000 C 
ATOM     28  C   UNL d   1      56.688   0.364  31.915  0.00  0.00     0.002 A 
ENDBRANCH   4  22
TORSDOF 4
ENDMDL
