MODEL 1
REMARK VINA RESULT:      19.4      0.000      0.000
REMARK  5 active torsions:
REMARK  status: ('A' for Active; 'I' for Inactive)
REMARK    1  A    between atoms: C_12  and  N_1 
REMARK    2  A    between atoms: C_6  and  C_5 
REMARK    3  A    between atoms: C_7  and  C_6 
REMARK       I    between atoms: N_9  and  C_7 
REMARK    4  A    between atoms: C_13  and  N_9 
REMARK    5  A    between atoms: C_16  and  C_12 
ROOT
ATOM      1  N   UNL d   1      12.992  13.073  -4.498  0.00  0.00    -0.235 N 
ATOM      2  C   UNL d   1      13.161  12.360  -4.881  0.00  0.00     0.298 A 
ATOM      3  C   UNL d   1      13.006  12.948  -3.691  0.00  0.00     0.274 A 
ATOM      4  S   UNL d   1      13.282  11.787  -4.297  0.00  0.00    -0.022 SA
ATOM      5  C   UNL d   1      13.186  12.150  -3.563  0.00  0.00     0.095 A 
ATOM      6  O   UNL d   1      13.205  12.232  -5.696  0.00  0.00    -0.259 OA
ATOM      7  O   UNL d   1      12.868  13.508  -3.111  0.00  0.00    -0.266 OA
ENDROOT
BRANCH   5   8
ATOM      8  C   UNL d   1      13.257  11.780  -2.826  0.00  0.00     0.074 C 
BRANCH   8   9
ATOM      9  C   UNL d   1      13.867  11.998  -2.313  0.00  0.00     0.280 C 
ATOM     10  N   UNL d   1      13.693  12.248  -1.547  0.00  0.00    -0.208 NA
ATOM     11  O   UNL d   1      14.655  11.966  -2.570  0.00  0.00    -0.265 OA
BRANCH  10  12
ATOM     12  C   UNL d   1      14.302  12.466  -1.038  0.00  0.00     0.085 A 
ATOM     13  C   UNL d   1      14.906  11.934  -0.863  0.00  0.00     0.019 A 
ATOM     14  C   UNL d   1      15.517  12.154  -0.352  0.00  0.00     0.002 A 
ATOM     15  C   UNL d   1      15.522  12.907  -0.016  0.00  0.00     0.000 A 
ATOM     16  C   UNL d   1      14.913  13.442  -0.193  0.00  0.00     0.002 A 
ATOM     17  C   UNL d   1      14.309  13.216  -0.702  0.00  0.00     0.019 A 
ENDBRANCH  10  12
ENDBRANCH   8   9
ENDBRANCH   5   8
BRANCH   1  18
ATOM     18  C   UNL d   1      12.836  13.788  -4.872  0.00  0.00     0.086 C 
BRANCH  18  19
ATOM     19  C   UNL d   1      13.034  14.502  -4.516  0.00  0.00     0.019 C 
ATOM     20  C   UNL d   1      13.572  15.008  -4.876  0.00  0.00     0.002 C 
ENDBRANCH  18  19
ENDBRANCH   1  18
TORSDOF 5
ENDMDL
