MODEL 1
REMARK VINA RESULT:       6.4      0.000      0.000
REMARK  6 active torsions:
REMARK  status: ('A' for Active; 'I' for Inactive)
REMARK    1  A    between atoms: N_4  and  C_3 
REMARK       I    between atoms: C_6  and  N_10 
REMARK    2  A    between atoms: C_21  and  C_6 
REMARK    3  A    between atoms: C_11  and  C_7 
REMARK    4  A    between atoms: C_9  and  O_12 
REMARK    5  A    between atoms: N_10  and  C_22 
REMARK    6  A    between atoms: O_12  and  C_21 
ROOT
ATOM      1  C   UNL d   1      32.890  20.275 -22.642  0.00  0.00     0.019 A 
ATOM      2  C   UNL d   1      33.132  20.492 -21.892  0.00  0.00     0.003 A 
ATOM      3  C   UNL d   1      32.733  20.857 -23.206  0.00  0.00     0.003 A 
ATOM      4  C   UNL d   1      33.067  21.868 -22.254  0.00  0.00     0.085 A 
ATOM      5  C   UNL d   1      32.822  21.654 -23.012  0.00  0.00     0.019 A 
ATOM      6  C   UNL d   1      33.221  21.289 -21.698  0.00  0.00     0.019 A 
ENDROOT
BRANCH   4   7
ATOM      7  N   UNL d   1      33.156  22.665 -22.059  0.00  0.00    -0.206 NA
ATOM      8  C   UNL d   1      33.152  22.901 -21.272  0.00  0.00     0.304 C 
ATOM      9  O   UNL d   1      33.241  23.702 -21.077  0.00  0.00    -0.263 OA
BRANCH   8  10
ATOM     10  C   UNL d   1      33.058  22.339 -20.675  0.00  0.00     0.185 C 
BRANCH  10  11
ATOM     11  O   UNL d   1      32.451  22.421 -20.122  0.00  0.00    -0.299 OA
BRANCH  11  12
ATOM     12  C   UNL d   1      32.626  22.656 -19.350  0.00  0.00     0.111 A 
ATOM     13  C   UNL d   1      32.997  22.130 -18.834  0.00  0.00     0.081 A 
ATOM     14  C   UNL d   1      33.173  22.357 -18.069  0.00  0.00     0.025 A 
ATOM     15 CL   UNL d   1      33.195  21.360 -19.094  0.00  0.00    -0.080 Cl
ATOM     16  C   UNL d   1      32.977  23.118 -17.814  0.00  0.00     0.059 A 
ATOM     17  C   UNL d   1      32.606  23.644 -18.330  0.00  0.00     0.013 A 
ATOM     18 CL   UNL d   1      33.154  23.353 -17.035  0.00  0.00    -0.082 Cl
ATOM     19  C   UNL d   1      32.431  23.409 -19.102  0.00  0.00     0.026 A 
ENDBRANCH  11  12
ENDBRANCH  10  11
ENDBRANCH   8  10
ENDBRANCH   4   7
BRANCH   1  20
ATOM     20  C   UNL d   1      32.801  19.478 -22.836  0.00  0.00     0.103 A 
ATOM     21  N   UNL d   1      32.928  18.898 -22.267  0.00  0.00    -0.147 NA
ATOM     22  N   UNL d   1      32.839  18.102 -22.461  0.00  0.00    -0.130 NA
ATOM     23  C   UNL d   1      32.623  17.884 -23.224  0.00  0.00     0.170 A 
ATOM     24  C   UNL d   1      32.495  18.465 -23.797  0.00  0.00     0.041 A 
ATOM     25  C   UNL d   1      32.584  19.262 -23.603  0.00  0.00     0.024 A 
BRANCH  23  26
ATOM     26  N   UNL d   1      32.534  17.087 -23.419  0.00  0.00    -0.284 N 
ATOM     27  C   UNL d   1      31.793  16.782 -23.579  0.00  0.00     0.108 A 
ATOM     28  C   UNL d   1      31.704  15.985 -23.773  0.00  0.00     0.142 A 
ATOM     29  O   UNL d   1      32.356  15.493 -23.807  0.00  0.00    -0.300 OA
ATOM     30  C   UNL d   1      33.107  15.798 -23.646  0.00  0.00     0.142 A 
ATOM     31  C   UNL d   1      33.195  16.595 -23.451  0.00  0.00     0.108 A 
ENDBRANCH  23  26
ENDBRANCH   1  20
TORSDOF 6
ENDMDL
