MODEL 1
REMARK VINA RESULT:      40.2      0.000      0.000
REMARK  6 active torsions:
REMARK  status: ('A' for Active; 'I' for Inactive)
REMARK    1  A    between atoms: C_10  and  C_2 
REMARK    2  A    between atoms: S_12  and  C_7 
REMARK    3  A    between atoms: C_11  and  C_14 
REMARK    4  A    between atoms: O_15  and  C_11 
REMARK    5  A    between atoms: C_14  and  S_12 
REMARK    6  A    between atoms: C_18  and  O_15 
ROOT
ATOM      1  N   UNL d   1     -51.325  26.080  33.430  0.00  0.00    -0.191 N 
ATOM      2  C   UNL d   1     -51.654  25.331  33.375  0.00  0.00     0.187 A 
ATOM      3  N   UNL d   1     -52.468  25.419  33.317  0.00  0.00    -0.127 NA
ATOM      4  C   UNL d   1     -51.922  26.639  33.407  0.00  0.00     0.187 A 
ATOM      5  N   UNL d   1     -50.528  26.333  33.501  0.00  0.00    -0.156 NA
ATOM      6  N   UNL d   1     -52.642  26.226  33.335  0.00  0.00    -0.127 NA
ATOM      7  C   UNL d   1     -50.352  27.138  33.547  0.00  0.00     0.131 A 
ATOM      8  C   UNL d   1     -51.746  27.444  33.452  0.00  0.00     0.043 A 
ATOM      9  C   UNL d   1     -50.962  27.693  33.522  0.00  0.00     0.031 A 
ENDROOT
BRANCH   7  10
ATOM     10  S   UNL d   1     -49.567  27.386  33.617  0.00  0.00    -0.060 SA
BRANCH  10  11
ATOM     11  C   UNL d   1     -49.328  27.804  34.285  0.00  0.00     0.105 C 
BRANCH  11  12
ATOM     12  C   UNL d   1     -48.537  27.966  34.402  0.00  0.00     0.307 C 
ATOM     13  O   UNL d   1     -47.970  27.378  34.277  0.00  0.00    -0.258 OA
BRANCH  12  14
ATOM     14  O   UNL d   1     -48.308  28.717  34.645  0.00  0.00    -0.271 OA
BRANCH  14  15
ATOM     15  C   UNL d   1     -47.680  28.806  35.184  0.00  0.00     0.126 C 
ATOM     16  C   UNL d   1     -47.623  29.487  35.627  0.00  0.00     0.029 C 
ENDBRANCH  14  15
ENDBRANCH  12  14
ENDBRANCH  11  12
ENDBRANCH  10  11
ENDBRANCH   7  10
BRANCH   2  17
ATOM     17  C   UNL d   1     -51.251  24.618  33.378  0.00  0.00     0.038 A 
ATOM     18  C   UNL d   1     -51.661  23.909  33.341  0.00  0.00     0.003 A 
ATOM     19  C   UNL d   1     -51.256  23.188  33.344  0.00  0.00     0.000 A 
ATOM     20  C   UNL d   1     -50.429  23.188  33.384  0.00  0.00     0.000 A 
ATOM     21  C   UNL d   1     -50.012  23.899  33.421  0.00  0.00     0.000 A 
ATOM     22  C   UNL d   1     -50.424  24.618  33.418  0.00  0.00     0.003 A 
ENDBRANCH   2  17
TORSDOF 6
ENDMDL
