MODEL 1
REMARK VINA RESULT:      33.1      0.000      0.000
REMARK  6 active torsions:
REMARK  status: ('A' for Active; 'I' for Inactive)
REMARK    1  A    between atoms: S_6  and  C_1 
REMARK    2  A    between atoms: C_15  and  S_6 
REMARK    3  A    between atoms: C_8  and  O_11 
REMARK    4  A    between atoms: C_10  and  C_15 
REMARK    5  A    between atoms: C_16  and  C_10 
REMARK    6  A    between atoms: O_11  and  C_16 
ROOT
ATOM      1  C   UNL d   1     -55.810 -99.441 -44.437  0.00  0.00     0.040 C 
ENDROOT
BRANCH   1   2
ATOM      2  C   UNL d   1     -55.353 -99.823 -43.867  0.00  0.00     0.034 C 
BRANCH   2   3
ATOM      3  C   UNL d   1     -54.716-100.296 -44.103  0.00  0.00     0.123 C 
BRANCH   3   4
ATOM      4  O   UNL d   1     -54.829-101.110 -44.176  0.00  0.00    -0.305 OA
BRANCH   4   5
ATOM      5  C   UNL d   1     -54.877-101.582 -43.504  0.00  0.00     0.100 A 
ATOM      6  C   UNL d   1     -54.773-101.248 -42.756  0.00  0.00     0.025 A 
ATOM      7  C   UNL d   1     -54.823-101.731 -42.079  0.00  0.00     0.002 A 
ATOM      8  C   UNL d   1     -54.718-101.398 -41.332  0.00  0.00     0.000 C 
ATOM      9  C   UNL d   1     -54.976-102.538 -42.157  0.00  0.00     0.000 A 
ATOM     10  C   UNL d   1     -55.081-102.867 -42.915  0.00  0.00     0.002 A 
ATOM     11  C   UNL d   1     -55.032-102.392 -43.589  0.00  0.00     0.025 A 
ENDBRANCH   4   5
ENDBRANCH   3   4
ENDBRANCH   2   3
ENDBRANCH   1   2
BRANCH   1  12
ATOM     12  S   UNL d   1     -56.223 -98.756 -44.234  0.00  0.00    -0.048 SA
BRANCH  12  13
ATOM     13  C   UNL d   1     -57.044 -98.767 -44.174  0.00  0.00     0.194 A 
ATOM     14  N   UNL d   1     -57.588 -98.758 -44.802  0.00  0.00    -0.220 NA
ATOM     15  C   UNL d   1     -58.353 -98.774 -44.479  0.00  0.00     0.101 A 
ATOM     16  C   UNL d   1     -59.098 -98.774 -44.837  0.00  0.00     0.021 A 
ATOM     17  C   UNL d   1     -58.292 -98.794 -43.648  0.00  0.00     0.101 A 
ATOM     18  C   UNL d   1     -59.778 -98.793 -44.374  0.00  0.00     0.002 A 
ATOM     19  C   UNL d   1     -59.718 -98.812 -43.552  0.00  0.00     0.002 A 
ATOM     20  C   UNL d   1     -58.977 -98.812 -43.193  0.00  0.00     0.021 A 
ATOM     21  N   UNL d   1     -57.477 -98.789 -43.457  0.00  0.00    -0.220 NA
ENDBRANCH  12  13
ENDBRANCH   1  12
TORSDOF 6
ENDMDL
MODEL 2
REMARK VINA RESULT:      33.5      1.520      4.662
REMARK  6 active torsions:
REMARK  status: ('A' for Active; 'I' for Inactive)
REMARK    1  A    between atoms: S_6  and  C_1 
REMARK    2  A    between atoms: C_15  and  S_6 
REMARK    3  A    between atoms: C_8  and  O_11 
REMARK    4  A    between atoms: C_10  and  C_15 
REMARK    5  A    between atoms: C_16  and  C_10 
REMARK    6  A    between atoms: O_11  and  C_16 
ROOT
ATOM      1  C   UNL d   1     -55.575-100.132 -44.822  0.00  0.00     0.040 C 
ENDROOT
BRANCH   1   2
ATOM      2  C   UNL d   1     -55.416 -99.356 -45.047  0.00  0.00     0.034 C 
BRANCH   2   3
ATOM      3  C   UNL d   1     -55.995 -98.772 -44.945  0.00  0.00     0.123 C 
BRANCH   3   4
ATOM      4  O   UNL d   1     -56.733 -98.876 -45.298  0.00  0.00    -0.305 OA
BRANCH   4   5
ATOM      5  C   UNL d   1     -57.417 -98.838 -44.842  0.00  0.00     0.100 A 
ATOM      6  C   UNL d   1     -58.157 -98.832 -45.207  0.00  0.00     0.025 A 
ATOM      7  C   UNL d   1     -58.846 -98.793 -44.740  0.00  0.00     0.002 A 
ATOM      8  C   UNL d   1     -59.585 -98.786 -45.104  0.00  0.00     0.000 C 
ATOM      9  C   UNL d   1     -58.786 -98.761 -43.917  0.00  0.00     0.000 A 
ATOM     10  C   UNL d   1     -58.035 -98.768 -43.557  0.00  0.00     0.002 A 
ATOM     11  C   UNL d   1     -57.350 -98.807 -44.016  0.00  0.00     0.025 A 
ENDBRANCH   4   5
ENDBRANCH   3   4
ENDBRANCH   2   3
ENDBRANCH   1   2
BRANCH   1  12
ATOM     12  S   UNL d   1     -54.949-100.651 -44.682  0.00  0.00    -0.048 SA
BRANCH  12  13
ATOM     13  C   UNL d   1     -54.899-101.060 -43.968  0.00  0.00     0.194 A 
ATOM     14  N   UNL d   1     -54.861-100.728 -43.208  0.00  0.00    -0.220 NA
ATOM     15  C   UNL d   1     -54.816-101.349 -42.658  0.00  0.00     0.101 A 
ATOM     16  C   UNL d   1     -54.768-101.347 -41.834  0.00  0.00     0.021 A 
ATOM     17  C   UNL d   1     -54.825-102.072 -43.072  0.00  0.00     0.101 A 
ATOM     18  C   UNL d   1     -54.729-102.059 -41.421  0.00  0.00     0.002 A 
ATOM     19  C   UNL d   1     -54.737-102.775 -41.830  0.00  0.00     0.002 A 
ATOM     20  C   UNL d   1     -54.785-102.778 -42.652  0.00  0.00     0.021 A 
ATOM     21  N   UNL d   1     -54.876-101.893 -43.888  0.00  0.00    -0.220 NA
ENDBRANCH  12  13
ENDBRANCH   1  12
TORSDOF 6
ENDMDL
MODEL 3
REMARK VINA RESULT:      35.3      2.547      4.018
REMARK  6 active torsions:
REMARK  status: ('A' for Active; 'I' for Inactive)
REMARK    1  A    between atoms: S_6  and  C_1 
REMARK    2  A    between atoms: C_15  and  S_6 
REMARK    3  A    between atoms: C_8  and  O_11 
REMARK    4  A    between atoms: C_10  and  C_15 
REMARK    5  A    between atoms: C_16  and  C_10 
REMARK    6  A    between atoms: O_11  and  C_16 
ROOT
ATOM      1  C   UNL d   1     -54.909-101.963 -41.904  0.00  0.00     0.040 C 
ENDROOT
BRANCH   1   2
ATOM      2  C   UNL d   1     -54.720-102.655 -41.498  0.00  0.00     0.034 C 
BRANCH   2   3
ATOM      3  C   UNL d   1     -55.167-102.878 -40.838  0.00  0.00     0.123 C 
BRANCH   3   4
ATOM      4  O   UNL d   1     -55.413-102.296 -40.307  0.00  0.00    -0.305 OA
BRANCH   4   5
ATOM      5  C   UNL d   1     -55.472-102.468 -39.505  0.00  0.00     0.100 A 
ATOM      6  C   UNL d   1     -56.213-102.529 -39.149  0.00  0.00     0.025 A 
ATOM      7  C   UNL d   1     -56.267-102.704 -38.336  0.00  0.00     0.002 A 
ATOM      8  C   UNL d   1     -57.008-102.765 -37.980  0.00  0.00     0.000 C 
ATOM      9  C   UNL d   1     -55.581-102.814 -37.891  0.00  0.00     0.000 A 
ATOM     10  C   UNL d   1     -54.836-102.749 -38.258  0.00  0.00     0.002 A 
ATOM     11  C   UNL d   1     -54.778-102.577 -39.064  0.00  0.00     0.025 A 
ENDBRANCH   4   5
ENDBRANCH   3   4
ENDBRANCH   2   3
ENDBRANCH   1   2
BRANCH   1  12
ATOM     12  S   UNL d   1     -54.736-101.904 -42.709  0.00  0.00    -0.048 SA
BRANCH  12  13
ATOM     13  C   UNL d   1     -54.919-101.217 -43.125  0.00  0.00     0.194 A 
ATOM     14  N   UNL d   1     -55.140-100.485 -42.800  0.00  0.00    -0.220 NA
ATOM     15  C   UNL d   1     -55.271 -99.955 -43.427  0.00  0.00     0.101 A 
ATOM     16  C   UNL d   1     -55.499 -99.161 -43.433  0.00  0.00     0.021 A 
ATOM     17  C   UNL d   1     -55.133-100.353 -44.146  0.00  0.00     0.101 A 
ATOM     18  C   UNL d   1     -55.589 -98.763 -44.148  0.00  0.00     0.002 A 
ATOM     19  C   UNL d   1     -55.453 -99.158 -44.860  0.00  0.00     0.002 A 
ATOM     20  C   UNL d   1     -55.226 -99.949 -44.856  0.00  0.00     0.021 A 
ATOM     21  N   UNL d   1     -54.914-101.139 -43.958  0.00  0.00    -0.220 NA
ENDBRANCH  12  13
ENDBRANCH   1  12
TORSDOF 6
ENDMDL
