MODEL 1
REMARK VINA RESULT:      19.7      0.000      0.000
REMARK  6 active torsions:
REMARK  status: ('A' for Active; 'I' for Inactive)
REMARK    1  A    between atoms: C_6  and  C_1 
REMARK    2  A    between atoms: C_8  and  C_6 
REMARK    3  A    between atoms: O_14  and  C_10 
REMARK    4  A    between atoms: C_12  and  C_20 
REMARK    5  A    between atoms: O_21  and  C_12 
REMARK    6  A    between atoms: C_20  and  O_14 
ROOT
ATOM      1  C   UNL d   1      45.360 -13.682  44.020  0.00  0.00     0.141 A 
ATOM      2  C   UNL d   1      45.675 -14.985  44.049  0.00  0.00     0.105 A 
ATOM      3  O   UNL d   1      45.886 -14.246  43.717  0.00  0.00    -0.304 OA
ATOM      4  C   UNL d   1      45.032 -14.874  44.545  0.00  0.00     0.064 A 
ATOM      5  C   UNL d   1      44.825 -14.064  44.536  0.00  0.00     0.220 A 
ATOM      6  C   UNL d   1      45.999 -15.742  43.951  0.00  0.00     0.046 A 
ATOM      7  C   UNL d   1      44.704 -15.520  44.950  0.00  0.00     0.007 A 
ATOM      8  C   UNL d   1      45.671 -16.378  44.354  0.00  0.00     0.102 A 
ATOM      9  O   UNL d   1      44.211 -13.708  44.955  0.00  0.00    -0.284 OA
ATOM     10  C   UNL d   1      45.028 -16.267  44.851  0.00  0.00     0.025 A 
ATOM     11  C   UNL d   1      46.646 -15.853  43.452  0.00  0.00     0.004 C 
ENDROOT
BRANCH   1  12
ATOM     12  C   UNL d   1      45.363 -12.871  43.842  0.00  0.00     0.053 C 
BRANCH  12  13
ATOM     13  C   UNL d   1      45.133 -12.614  43.100  0.00  0.00     0.102 A 
ATOM     14  O   UNL d   1      45.603 -12.607  42.426  0.00  0.00    -0.305 OA
ATOM     15  C   UNL d   1      45.154 -12.305  41.803  0.00  0.00     0.123 A 
ATOM     16  C   UNL d   1      44.401 -12.124  42.098  0.00  0.00     0.029 A 
ATOM     17  C   UNL d   1      44.393 -12.315  42.892  0.00  0.00     0.027 A 
ENDBRANCH  12  13
ENDBRANCH   1  12
BRANCH   8  18
ATOM     18  O   UNL d   1      45.990 -17.130  44.260  0.00  0.00    -0.300 OA
BRANCH  18  19
ATOM     19  C   UNL d   1      45.568 -17.718  43.862  0.00  0.00     0.191 C 
BRANCH  19  20
ATOM     20  C   UNL d   1      45.874 -18.488  43.804  0.00  0.00     0.321 C 
ATOM     21  O   UNL d   1      46.059 -18.911  44.487  0.00  0.00    -0.257 OA
BRANCH  20  22
ATOM     22  O   UNL d   1      45.991 -18.829  43.072  0.00  0.00    -0.294 OA
ATOM     23  C   UNL d   1      46.335 -19.570  43.007  0.00  0.00     0.185 C 
ENDBRANCH  20  22
ENDBRANCH  19  20
ENDBRANCH  18  19
ENDBRANCH   8  18
TORSDOF 6
ENDMDL
MODEL 2
REMARK VINA RESULT:      22.6      1.511      5.075
REMARK  6 active torsions:
REMARK  status: ('A' for Active; 'I' for Inactive)
REMARK    1  A    between atoms: C_6  and  C_1 
REMARK    2  A    between atoms: C_8  and  C_6 
REMARK    3  A    between atoms: O_14  and  C_10 
REMARK    4  A    between atoms: C_12  and  C_20 
REMARK    5  A    between atoms: O_21  and  C_12 
REMARK    6  A    between atoms: C_20  and  O_14 
ROOT
ATOM      1  C   UNL d   1      46.416 -19.051  42.921  0.00  0.00     0.141 A 
ATOM      2  C   UNL d   1      46.044 -17.862  43.417  0.00  0.00     0.105 A 
ATOM      3  O   UNL d   1      46.186 -18.284  42.709  0.00  0.00    -0.304 OA
ATOM      4  C   UNL d   1      46.184 -18.362  44.052  0.00  0.00     0.064 A 
ATOM      5  C   UNL d   1      46.417 -19.109  43.755  0.00  0.00     0.220 A 
ATOM      6  C   UNL d   1      45.803 -17.080  43.551  0.00  0.00     0.046 A 
ATOM      7  C   UNL d   1      46.084 -18.086  44.827  0.00  0.00     0.007 A 
ATOM      8  C   UNL d   1      45.706 -16.811  44.320  0.00  0.00     0.102 A 
ATOM      9  O   UNL d   1      46.611 -19.775  44.199  0.00  0.00    -0.284 OA
ATOM     10  C   UNL d   1      45.846 -17.311  44.955  0.00  0.00     0.025 A 
ATOM     11  C   UNL d   1      45.662 -16.576  42.912  0.00  0.00     0.004 C 
ENDROOT
BRANCH   1  12
ATOM     12  C   UNL d   1      46.612 -19.662  42.396  0.00  0.00     0.053 C 
BRANCH  12  13
ATOM     13  C   UNL d   1      46.619 -19.524  41.590  0.00  0.00     0.102 A 
ATOM     14  O   UNL d   1      46.601 -20.098  41.002  0.00  0.00    -0.305 OA
ATOM     15  C   UNL d   1      46.617 -19.716  40.270  0.00  0.00     0.123 A 
ATOM     16  C   UNL d   1      46.644 -18.899  40.411  0.00  0.00     0.029 A 
ATOM     17  C   UNL d   1      46.645 -18.787  41.220  0.00  0.00     0.027 A 
ENDBRANCH  12  13
ENDBRANCH   1  12
BRANCH   8  18
ATOM     18  O   UNL d   1      45.467 -16.035  44.456  0.00  0.00    -0.300 OA
BRANCH  18  19
ATOM     19  C   UNL d   1      46.015 -15.463  44.690  0.00  0.00     0.191 C 
BRANCH  19  20
ATOM     20  C   UNL d   1      45.884 -14.662  44.516  0.00  0.00     0.321 C 
ATOM     21  O   UNL d   1      46.396 -14.262  44.006  0.00  0.00    -0.257 OA
BRANCH  20  22
ATOM     22  O   UNL d   1      45.252 -14.267  44.846  0.00  0.00    -0.294 OA
ATOM     23  C   UNL d   1      45.253 -13.449  44.903  0.00  0.00     0.185 C 
ENDBRANCH  20  22
ENDBRANCH  19  20
ENDBRANCH  18  19
ENDBRANCH   8  18
TORSDOF 6
ENDMDL
