MODEL 1
REMARK VINA RESULT:     -11.0      0.000      0.000
REMARK  1 active torsions:
REMARK  status: ('A' for Active; 'I' for Inactive)
REMARK    1  A    between atoms: C_7  and  N_2 
ROOT
ATOM      1  C   UNL d   1      52.958  32.172  53.135  0.00  0.00     0.304 A 
ATOM      2  N   UNL d   1      52.692  32.934  53.377  0.00  0.00    -0.272 N 
ATOM      3  C   UNL d   1      53.638  31.971  53.589  0.00  0.00     0.253 A 
ATOM      4  C   UNL d   1      53.186  33.202  53.959  0.00  0.00     0.070 A 
ATOM      5  C   UNL d   1      53.757  32.621  54.087  0.00  0.00     0.060 A 
ATOM      6  O   UNL d   1      52.596  31.684  52.530  0.00  0.00    -0.263 OA
ATOM      7  O   UNL d   1      54.101  31.306  53.573  0.00  0.00    -0.281 OA
ATOM      8  C   UNL d   1      53.208  33.842  54.370  0.00  0.00     0.018 A 
ATOM      9  C   UNL d   1      54.312  32.719  54.617  0.00  0.00     0.005 A 
ATOM     10  C   UNL d   1      53.781  34.006  54.955  0.00  0.00     0.002 A 
ATOM     11  C   UNL d   1      54.352  33.424  55.083  0.00  0.00     0.000 A 
ENDROOT
BRANCH   2  12
ATOM     12  C   UNL d   1      52.060  33.367  53.106  0.00  0.00     0.067 A 
ATOM     13  C   UNL d   1      52.148  33.912  52.506  0.00  0.00     0.018 A 
ATOM     14  C   UNL d   1      51.498  34.348  52.237  0.00  0.00     0.002 A 
ATOM     15  C   UNL d   1      50.768  34.229  52.577  0.00  0.00     0.000 A 
ATOM     16  C   UNL d   1      50.673  33.675  53.188  0.00  0.00     0.002 A 
ATOM     17  C   UNL d   1      51.319  33.244  53.453  0.00  0.00     0.018 A 
ENDBRANCH   2  12
TORSDOF 1
ENDMDL
MODEL 2
REMARK VINA RESULT:     -10.6      1.437      3.123
REMARK  1 active torsions:
REMARK  status: ('A' for Active; 'I' for Inactive)
REMARK    1  A    between atoms: C_7  and  N_2 
ROOT
ATOM      1  C   UNL d   1      52.898  33.030  53.260  0.00  0.00     0.304 A 
ATOM      2  N   UNL d   1      53.484  32.642  53.723  0.00  0.00    -0.272 N 
ATOM      3  C   UNL d   1      52.464  32.446  52.837  0.00  0.00     0.253 A 
ATOM      4  C   UNL d   1      53.421  31.845  53.597  0.00  0.00     0.070 A 
ATOM      5  C   UNL d   1      52.805  31.726  53.062  0.00  0.00     0.060 A 
ATOM      6  O   UNL d   1      52.766  33.876  53.224  0.00  0.00    -0.263 OA
ATOM      7  O   UNL d   1      51.846  32.525  52.318  0.00  0.00    -0.281 OA
ATOM      8  C   UNL d   1      53.802  31.242  53.866  0.00  0.00     0.018 A 
ATOM      9  C   UNL d   1      52.611  31.014  52.832  0.00  0.00     0.005 A 
ATOM     10  C   UNL d   1      53.639  30.452  53.655  0.00  0.00     0.002 A 
ATOM     11  C   UNL d   1      53.022  30.333  53.120  0.00  0.00     0.000 A 
ENDROOT
BRANCH   2  12
ATOM     12  C   UNL d   1      54.038  32.963  54.224  0.00  0.00     0.067 A 
ATOM     13  C   UNL d   1      53.889  33.045  55.022  0.00  0.00     0.018 A 
ATOM     14  C   UNL d   1      54.459  33.373  55.523  0.00  0.00     0.002 A 
ATOM     15  C   UNL d   1      55.172  33.613  55.215  0.00  0.00     0.000 A 
ATOM     16  C   UNL d   1      55.330  33.532  54.404  0.00  0.00     0.002 A 
ATOM     17  C   UNL d   1      54.763  33.206  53.908  0.00  0.00     0.018 A 
ENDBRANCH   2  12
TORSDOF 1
ENDMDL
MODEL 3
REMARK VINA RESULT:     -10.5      0.709      2.833
REMARK  1 active torsions:
REMARK  status: ('A' for Active; 'I' for Inactive)
REMARK    1  A    between atoms: C_7  and  N_2 
ROOT
ATOM      1  C   UNL d   1      53.342  32.070  53.452  0.00  0.00     0.304 A 
ATOM      2  N   UNL d   1      53.473  32.846  53.751  0.00  0.00    -0.272 N 
ATOM      3  C   UNL d   1      52.670  32.091  52.945  0.00  0.00     0.253 A 
ATOM      4  C   UNL d   1      52.905  33.336  53.445  0.00  0.00     0.070 A 
ATOM      5  C   UNL d   1      52.421  32.880  52.958  0.00  0.00     0.060 A 
ATOM      6  O   UNL d   1      53.813  31.377  53.632  0.00  0.00    -0.263 OA
ATOM      7  O   UNL d   1      52.314  31.498  52.521  0.00  0.00    -0.281 OA
ATOM      8  C   UNL d   1      52.759  34.079  53.525  0.00  0.00     0.018 A 
ATOM      9  C   UNL d   1      51.822  33.197  52.584  0.00  0.00     0.005 A 
ATOM     10  C   UNL d   1      52.130  34.477  53.149  0.00  0.00     0.002 A 
ATOM     11  C   UNL d   1      51.645  34.021  52.661  0.00  0.00     0.000 A 
ENDROOT
BRANCH   2  12
ATOM     12  C   UNL d   1      54.050  33.110  54.259  0.00  0.00     0.067 A 
ATOM     13  C   UNL d   1      54.758  33.403  53.978  0.00  0.00     0.018 A 
ATOM     14  C   UNL d   1      55.339  33.669  54.503  0.00  0.00     0.002 A 
ATOM     15  C   UNL d   1      55.200  33.636  55.304  0.00  0.00     0.000 A 
ATOM     16  C   UNL d   1      54.482  33.338  55.596  0.00  0.00     0.002 A 
ATOM     17  C   UNL d   1      53.906  33.075  55.073  0.00  0.00     0.018 A 
ENDBRANCH   2  12
TORSDOF 1
ENDMDL
MODEL 4
REMARK VINA RESULT:     -10.3      1.017      1.890
REMARK  1 active torsions:
REMARK  status: ('A' for Active; 'I' for Inactive)
REMARK    1  A    between atoms: C_7  and  N_2 
ROOT
ATOM      1  C   UNL d   1      53.307  33.461  53.969  0.00  0.00     0.304 A 
ATOM      2  N   UNL d   1      52.709  33.125  53.481  0.00  0.00    -0.272 N 
ATOM      3  C   UNL d   1      53.864  32.858  54.160  0.00  0.00     0.253 A 
ATOM      4  C   UNL d   1      52.882  32.342  53.368  0.00  0.00     0.070 A 
ATOM      5  C   UNL d   1      53.580  32.181  53.778  0.00  0.00     0.060 A 
ATOM      6  O   UNL d   1      53.343  34.277  54.229  0.00  0.00    -0.263 OA
ATOM      7  O   UNL d   1      54.538  32.890  54.610  0.00  0.00    -0.281 OA
ATOM      8  C   UNL d   1      52.540  31.783  52.982  0.00  0.00     0.018 A 
ATOM      9  C   UNL d   1      53.888  31.471  53.775  0.00  0.00     0.005 A 
ATOM     10  C   UNL d   1      52.823  30.999  52.941  0.00  0.00     0.002 A 
ATOM     11  C   UNL d   1      53.521  30.838  53.351  0.00  0.00     0.000 A 
ENDROOT
BRANCH   2  12
ATOM     12  C   UNL d   1      52.055  33.479  53.154  0.00  0.00     0.067 A 
ATOM     13  C   UNL d   1      51.325  33.435  53.518  0.00  0.00     0.018 A 
ATOM     14  C   UNL d   1      50.665  33.799  53.177  0.00  0.00     0.002 A 
ATOM     15  C   UNL d   1      50.747  34.202  52.476  0.00  0.00     0.000 A 
ATOM     16  C   UNL d   1      51.487  34.250  52.102  0.00  0.00     0.002 A 
ATOM     17  C   UNL d   1      52.141  33.888  52.441  0.00  0.00     0.018 A 
ENDBRANCH   2  12
TORSDOF 1
ENDMDL
MODEL 5
REMARK VINA RESULT:      -9.5      1.334      2.487
REMARK  1 active torsions:
REMARK  status: ('A' for Active; 'I' for Inactive)
REMARK    1  A    between atoms: C_7  and  N_2 
ROOT
ATOM      1  C   UNL d   1      52.783  33.020  53.017  0.00  0.00     0.304 A 
ATOM      2  N   UNL d   1      53.138  32.411  53.478  0.00  0.00    -0.272 N 
ATOM      3  C   UNL d   1      52.974  33.762  53.367  0.00  0.00     0.253 A 
ATOM      4  C   UNL d   1      53.536  32.755  54.093  0.00  0.00     0.070 A 
ATOM      5  C   UNL d   1      53.437  33.572  54.026  0.00  0.00     0.060 A 
ATOM      6  O   UNL d   1      52.309  32.904  52.313  0.00  0.00    -0.263 OA
ATOM      7  O   UNL d   1      52.772  34.514  53.142  0.00  0.00    -0.281 OA
ATOM      8  C   UNL d   1      53.948  32.477  54.669  0.00  0.00     0.018 A 
ATOM      9  C   UNL d   1      53.757  34.054  54.539  0.00  0.00     0.005 A 
ATOM     10  C   UNL d   1      54.317  32.946  55.253  0.00  0.00     0.002 A 
ATOM     11  C   UNL d   1      54.218  33.762  55.185  0.00  0.00     0.000 A 
ENDROOT
BRANCH   2  12
ATOM     12  C   UNL d   1      53.115  31.605  53.369  0.00  0.00     0.067 A 
ATOM     13  C   UNL d   1      53.774  31.195  53.115  0.00  0.00     0.018 A 
ATOM     14  C   UNL d   1      53.741  30.376  53.007  0.00  0.00     0.002 A 
ATOM     15  C   UNL d   1      53.046  29.980  53.156  0.00  0.00     0.000 A 
ATOM     16  C   UNL d   1      52.373  30.392  53.414  0.00  0.00     0.002 A 
ATOM     17  C   UNL d   1      52.408  31.206  53.521  0.00  0.00     0.018 A 
ENDBRANCH   2  12
TORSDOF 1
ENDMDL
MODEL 6
REMARK VINA RESULT:      -9.1      1.314      2.828
REMARK  1 active torsions:
REMARK  status: ('A' for Active; 'I' for Inactive)
REMARK    1  A    between atoms: C_7  and  N_2 
ROOT
ATOM      1  C   UNL d   1      53.632  33.089  54.642  0.00  0.00     0.304 A 
ATOM      2  N   UNL d   1      53.267  32.801  53.939  0.00  0.00    -0.272 N 
ATOM      3  C   UNL d   1      53.488  33.917  54.695  0.00  0.00     0.253 A 
ATOM      4  C   UNL d   1      52.908  33.422  53.565  0.00  0.00     0.070 A 
ATOM      5  C   UNL d   1      53.042  34.096  54.022  0.00  0.00     0.060 A 
ATOM      6  O   UNL d   1      54.074  32.619  55.206  0.00  0.00    -0.263 OA
ATOM      7  O   UNL d   1      53.716  34.453  55.259  0.00  0.00    -0.281 OA
ATOM      8  C   UNL d   1      52.505  33.482  52.923  0.00  0.00     0.018 A 
ATOM      9  C   UNL d   1      52.763  34.785  53.804  0.00  0.00     0.005 A 
ATOM     10  C   UNL d   1      52.180  34.195  52.636  0.00  0.00     0.002 A 
ATOM     11  C   UNL d   1      52.314  34.869  53.093  0.00  0.00     0.000 A 
ENDROOT
BRANCH   2  12
ATOM     12  C   UNL d   1      53.249  32.043  53.644  0.00  0.00     0.067 A 
ATOM     13  C   UNL d   1      52.566  31.597  53.669  0.00  0.00     0.018 A 
ATOM     14  C   UNL d   1      52.557  30.827  53.366  0.00  0.00     0.002 A 
ATOM     15  C   UNL d   1      53.236  30.517  53.042  0.00  0.00     0.000 A 
ATOM     16  C   UNL d   1      53.933  30.967  53.014  0.00  0.00     0.002 A 
ATOM     17  C   UNL d   1      53.940  31.731  53.316  0.00  0.00     0.018 A 
ENDBRANCH   2  12
TORSDOF 1
ENDMDL
