MODEL 1
REMARK VINA RESULT:     -10.6      0.000      0.000
REMARK  5 active torsions:
REMARK  status: ('A' for Active; 'I' for Inactive)
REMARK    1  A    between atoms: S_9  and  C_2 
REMARK    2  A    between atoms: C_19  and  S_9 
REMARK    3  A    between atoms: C_11  and  C_19 
REMARK       I    between atoms: N_16  and  C_11 
REMARK    4  A    between atoms: C_22  and  N_16 
REMARK    5  A    between atoms: C_21  and  C_22 
ROOT
ATOM      1  C   UNL d   1      52.716  33.238  53.432  0.00  0.00     0.092 A 
ATOM      2  C   UNL d   1      52.216  33.889  53.297  0.00  0.00     0.120 A 
ATOM      3  N   UNL d   1      52.347  34.590  53.697  0.00  0.00    -0.238 NA
ATOM      4  C   UNL d   1      53.346  33.290  53.968  0.00  0.00     0.013 A 
ATOM      5  C   UNL d   1      53.467  34.010  54.368  0.00  0.00     0.018 A 
ATOM      6  C   UNL d   1      52.972  34.655  54.234  0.00  0.00     0.082 A 
ATOM      7  C   UNL d   1      52.582  32.524  53.025  0.00  0.00     0.103 C 
ATOM      8  N   UNL d   1      52.458  31.812  52.626  0.00  0.00    -0.191 NA
ATOM      9  C   UNL d   1      53.841  32.646  54.102  0.00  0.00     0.001 A 
ATOM     10  C   UNL d   1      54.097  34.075  54.908  0.00  0.00     0.002 A 
ATOM     11  C   UNL d   1      53.099  35.362  54.633  0.00  0.00     0.021 C 
ATOM     12  C   UNL d   1      54.464  32.709  54.636  0.00  0.00     0.000 A 
ATOM     13  C   UNL d   1      54.598  33.423  55.043  0.00  0.00     0.000 A 
ENDROOT
BRANCH   2  14
ATOM     14  S   UNL d   1      51.589  33.821  52.758  0.00  0.00    -0.062 SA
BRANCH  14  15
ATOM     15  C   UNL d   1      50.925  34.307  52.839  0.00  0.00     0.099 C 
BRANCH  15  16
ATOM     16  C   UNL d   1      50.396  34.384  52.213  0.00  0.00     0.286 C 
ATOM     17  N   UNL d   1      49.652  34.722  52.344  0.00  0.00    -0.206 NA
ATOM     18  O   UNL d   1      50.605  34.125  51.455  0.00  0.00    -0.265 OA
BRANCH  17  19
ATOM     19  C   UNL d   1      49.113  34.804  51.722  0.00  0.00     0.102 C 
BRANCH  19  20
ATOM     20  C   UNL d   1      48.394  35.191  51.845  0.00  0.00     0.021 A 
ATOM     21  C   UNL d   1      47.762  35.046  51.344  0.00  0.00     0.028 A 
ATOM     22  C   UNL d   1      47.044  35.434  51.468  0.00  0.00     0.119 A 
ATOM     23  O   UNL d   1      46.327  35.399  51.063  0.00  0.00    -0.300 OA
ATOM     24  C   UNL d   1      46.964  35.959  52.086  0.00  0.00     0.119 A 
ATOM     25  C   UNL d   1      45.801  35.911  51.439  0.00  0.00     0.304 A 
ATOM     26  O   UNL d   1      46.195  36.258  52.074  0.00  0.00    -0.300 OA
ATOM     27  C   UNL d   1      47.611  36.106  52.598  0.00  0.00     0.026 A 
ATOM     28  C   UNL d   1      48.322  35.715  52.466  0.00  0.00     0.004 A 
ENDBRANCH  19  20
ENDBRANCH  17  19
ENDBRANCH  15  16
ENDBRANCH  14  15
ENDBRANCH   2  14
TORSDOF 5
ENDMDL
MODEL 2
REMARK VINA RESULT:      -9.4      1.701      6.202
REMARK  5 active torsions:
REMARK  status: ('A' for Active; 'I' for Inactive)
REMARK    1  A    between atoms: S_9  and  C_2 
REMARK    2  A    between atoms: C_19  and  S_9 
REMARK    3  A    between atoms: C_11  and  C_19 
REMARK       I    between atoms: N_16  and  C_11 
REMARK    4  A    between atoms: C_22  and  N_16 
REMARK    5  A    between atoms: C_21  and  C_22 
ROOT
ATOM      1  C   UNL d   1      48.259  35.275  52.114  0.00  0.00     0.092 A 
ATOM      2  C   UNL d   1      48.938  35.205  52.590  0.00  0.00     0.120 A 
ATOM      3  N   UNL d   1      48.976  35.608  53.301  0.00  0.00    -0.238 NA
ATOM      4  C   UNL d   1      47.621  35.748  52.350  0.00  0.00     0.013 A 
ATOM      5  C   UNL d   1      47.675  36.152  53.076  0.00  0.00     0.018 A 
ATOM      6  C   UNL d   1      48.347  36.083  53.547  0.00  0.00     0.082 A 
ATOM      7  C   UNL d   1      48.220  34.864  51.390  0.00  0.00     0.103 C 
ATOM      8  N   UNL d   1      48.172  34.462  50.672  0.00  0.00    -0.191 NA
ATOM      9  C   UNL d   1      46.949  35.817  51.878  0.00  0.00     0.001 A 
ATOM     10  C   UNL d   1      47.040  36.630  53.323  0.00  0.00     0.002 A 
ATOM     11  C   UNL d   1      48.391  36.486  54.263  0.00  0.00     0.021 C 
ATOM     12  C   UNL d   1      46.322  36.289  52.122  0.00  0.00     0.000 A 
ATOM     13  C   UNL d   1      46.361  36.700  52.846  0.00  0.00     0.000 A 
ENDROOT
BRANCH   2  14
ATOM     14  S   UNL d   1      49.569  34.728  52.341  0.00  0.00    -0.062 SA
BRANCH  14  15
ATOM     15  C   UNL d   1      50.137  34.481  52.889  0.00  0.00     0.099 C 
BRANCH  15  16
ATOM     16  C   UNL d   1      50.866  34.204  52.624  0.00  0.00     0.286 C 
ATOM     17  N   UNL d   1      51.457  34.019  53.173  0.00  0.00    -0.206 NA
ATOM     18  O   UNL d   1      51.009  34.110  51.814  0.00  0.00    -0.265 OA
BRANCH  17  19
ATOM     19  C   UNL d   1      52.193  33.740  52.918  0.00  0.00     0.102 C 
BRANCH  19  20
ATOM     20  C   UNL d   1      52.760  33.504  53.470  0.00  0.00     0.021 A 
ATOM     21  C   UNL d   1      53.145  34.067  53.925  0.00  0.00     0.028 A 
ATOM     22  C   UNL d   1      53.711  33.831  54.477  0.00  0.00     0.119 A 
ATOM     23  O   UNL d   1      54.178  34.262  55.001  0.00  0.00    -0.300 OA
ATOM     24  C   UNL d   1      53.888  33.040  54.568  0.00  0.00     0.119 A 
ATOM     25  C   UNL d   1      54.646  33.728  55.419  0.00  0.00     0.304 A 
ATOM     26  O   UNL d   1      54.467  32.971  55.151  0.00  0.00    -0.300 OA
ATOM     27  C   UNL d   1      53.494  32.466  54.103  0.00  0.00     0.026 A 
ATOM     28  C   UNL d   1      52.931  32.711  53.556  0.00  0.00     0.004 A 
ENDBRANCH  19  20
ENDBRANCH  17  19
ENDBRANCH  15  16
ENDBRANCH  14  15
ENDBRANCH   2  14
TORSDOF 5
ENDMDL
MODEL 3
REMARK VINA RESULT:      -8.6      1.884      6.255
REMARK  5 active torsions:
REMARK  status: ('A' for Active; 'I' for Inactive)
REMARK    1  A    between atoms: S_9  and  C_2 
REMARK    2  A    between atoms: C_19  and  S_9 
REMARK    3  A    between atoms: C_11  and  C_19 
REMARK       I    between atoms: N_16  and  C_11 
REMARK    4  A    between atoms: C_22  and  N_16 
REMARK    5  A    between atoms: C_21  and  C_22 
ROOT
ATOM      1  C   UNL d   1      48.504  35.586  52.850  0.00  0.00     0.092 A 
ATOM      2  C   UNL d   1      49.085  35.080  52.536  0.00  0.00     0.120 A 
ATOM      3  N   UNL d   1      48.957  34.717  51.815  0.00  0.00    -0.238 NA
ATOM      4  C   UNL d   1      47.798  35.728  52.441  0.00  0.00     0.013 A 
ATOM      5  C   UNL d   1      47.681  35.352  51.708  0.00  0.00     0.018 A 
ATOM      6  C   UNL d   1      48.256  34.850  51.397  0.00  0.00     0.082 A 
ATOM      7  C   UNL d   1      48.634  35.956  53.585  0.00  0.00     0.103 C 
ATOM      8  N   UNL d   1      48.753  36.328  54.312  0.00  0.00    -0.191 NA
ATOM      9  C   UNL d   1      47.223  36.230  52.752  0.00  0.00     0.001 A 
ATOM     10  C   UNL d   1      46.976  35.486  51.289  0.00  0.00     0.002 A 
ATOM     11  C   UNL d   1      48.133  34.482  50.672  0.00  0.00     0.021 C 
ATOM     12  C   UNL d   1      46.525  36.364  52.338  0.00  0.00     0.000 A 
ATOM     13  C   UNL d   1      46.395  35.994  51.603  0.00  0.00     0.000 A 
ENDROOT
BRANCH   2  14
ATOM     14  S   UNL d   1      49.787  34.947  52.957  0.00  0.00    -0.062 SA
BRANCH  14  15
ATOM     15  C   UNL d   1      50.331  34.389  52.681  0.00  0.00     0.099 C 
BRANCH  15  16
ATOM     16  C   UNL d   1      51.091  34.369  52.995  0.00  0.00     0.286 C 
ATOM     17  N   UNL d   1      51.506  33.654  53.020  0.00  0.00    -0.206 NA
ATOM     18  O   UNL d   1      51.441  35.061  53.287  0.00  0.00    -0.265 OA
BRANCH  17  19
ATOM     19  C   UNL d   1      52.270  33.623  53.334  0.00  0.00     0.102 C 
BRANCH  19  20
ATOM     20  C   UNL d   1      52.655  32.897  53.417  0.00  0.00     0.021 A 
ATOM     21  C   UNL d   1      52.427  32.259  52.953  0.00  0.00     0.028 A 
ATOM     22  C   UNL d   1      52.811  31.534  53.037  0.00  0.00     0.119 A 
ATOM     23  O   UNL d   1      52.705  30.812  52.655  0.00  0.00    -0.300 OA
ATOM     24  C   UNL d   1      53.415  31.451  53.578  0.00  0.00     0.119 A 
ATOM     25  C   UNL d   1      53.251  30.279  52.968  0.00  0.00     0.304 A 
ATOM     26  O   UNL d   1      53.692  30.675  53.540  0.00  0.00    -0.300 OA
ATOM     27  C   UNL d   1      53.647  32.103  54.051  0.00  0.00     0.026 A 
ATOM     28  C   UNL d   1      53.258  32.821  53.960  0.00  0.00     0.004 A 
ENDBRANCH  19  20
ENDBRANCH  17  19
ENDBRANCH  15  16
ENDBRANCH  14  15
ENDBRANCH   2  14
TORSDOF 5
ENDMDL
MODEL 4
REMARK VINA RESULT:      -7.6      1.622      6.319
REMARK  5 active torsions:
REMARK  status: ('A' for Active; 'I' for Inactive)
REMARK    1  A    between atoms: S_9  and  C_2 
REMARK    2  A    between atoms: C_19  and  S_9 
REMARK    3  A    between atoms: C_11  and  C_19 
REMARK       I    between atoms: N_16  and  C_11 
REMARK    4  A    between atoms: C_22  and  N_16 
REMARK    5  A    between atoms: C_21  and  C_22 
ROOT
ATOM      1  C   UNL d   1      48.071  35.870  52.789  0.00  0.00     0.092 A 
ATOM      2  C   UNL d   1      48.576  35.360  52.368  0.00  0.00     0.120 A 
ATOM      3  N   UNL d   1      48.319  35.023  51.669  0.00  0.00    -0.238 NA
ATOM      4  C   UNL d   1      47.311  36.041  52.509  0.00  0.00     0.013 A 
ATOM      5  C   UNL d   1      47.062  35.691  51.796  0.00  0.00     0.018 A 
ATOM      6  C   UNL d   1      47.562  35.186  51.379  0.00  0.00     0.082 A 
ATOM      7  C   UNL d   1      48.333  36.213  53.501  0.00  0.00     0.103 C 
ATOM      8  N   UNL d   1      48.583  36.558  54.208  0.00  0.00    -0.191 NA
ATOM      9  C   UNL d   1      46.811  36.546  52.926  0.00  0.00     0.001 A 
ATOM     10  C   UNL d   1      46.301  35.855  51.505  0.00  0.00     0.002 A 
ATOM     11  C   UNL d   1      47.309  34.844  50.675  0.00  0.00     0.021 C 
ATOM     12  C   UNL d   1      46.057  36.709  52.639  0.00  0.00     0.000 A 
ATOM     13  C   UNL d   1      45.795  36.366  51.927  0.00  0.00     0.000 A 
ENDROOT
BRANCH   2  14
ATOM     14  S   UNL d   1      49.335  35.198  52.661  0.00  0.00    -0.062 SA
BRANCH  14  15
ATOM     15  C   UNL d   1      49.688  34.467  52.501  0.00  0.00     0.099 C 
BRANCH  15  16
ATOM     16  C   UNL d   1      50.493  34.431  52.333  0.00  0.00     0.286 C 
ATOM     17  N   UNL d   1      51.040  34.388  52.952  0.00  0.00    -0.206 NA
ATOM     18  O   UNL d   1      50.757  34.436  51.548  0.00  0.00    -0.265 OA
BRANCH  17  19
ATOM     19  C   UNL d   1      51.851  34.351  52.794  0.00  0.00     0.102 C 
BRANCH  19  20
ATOM     20  C   UNL d   1      52.387  34.221  53.409  0.00  0.00     0.021 A 
ATOM     21  C   UNL d   1      52.630  33.457  53.584  0.00  0.00     0.028 A 
ATOM     22  C   UNL d   1      53.165  33.327  54.198  0.00  0.00     0.119 A 
ATOM     23  O   UNL d   1      53.501  32.636  54.493  0.00  0.00    -0.300 OA
ATOM     24  C   UNL d   1      53.452  33.957  54.629  0.00  0.00     0.119 A 
ATOM     25  C   UNL d   1      54.001  32.845  55.115  0.00  0.00     0.304 A 
ATOM     26  O   UNL d   1      53.971  33.664  55.200  0.00  0.00    -0.300 OA
ATOM     27  C   UNL d   1      53.203  34.737  54.450  0.00  0.00     0.026 A 
ATOM     28  C   UNL d   1      52.669  34.855  53.836  0.00  0.00     0.004 A 
ENDBRANCH  19  20
ENDBRANCH  17  19
ENDBRANCH  15  16
ENDBRANCH  14  15
ENDBRANCH   2  14
TORSDOF 5
ENDMDL
