MODEL 1
REMARK VINA RESULT:      16.9      0.000      0.000
REMARK  1 active torsions:
REMARK  status: ('A' for Active; 'I' for Inactive)
REMARK    1  A    between atoms: C_7  and  C_1 
ROOT
ATOM      1  C   UNL d   1      13.489  12.397  -3.445  0.00  0.00     0.122 A 
ATOM      2  C   UNL d   1      14.245  12.992  -2.375  0.00  0.00     0.057 A 
ATOM      3  C   UNL d   1      13.992  12.394  -1.864  0.00  0.00     0.085 A 
ATOM      4  C   UNL d   1      13.995  12.994  -3.161  0.00  0.00     0.204 A 
ATOM      5  N   UNL d   1      13.486  11.799  -2.155  0.00  0.00    -0.244 NA
ATOM      6  C   UNL d   1      14.238  12.386  -1.079  0.00  0.00     0.028 A 
ATOM      7  C   UNL d   1      13.236  11.799  -2.934  0.00  0.00     0.108 A 
ATOM      8  C   UNL d   1      14.743  13.583  -2.102  0.00  0.00     0.006 A 
ATOM      9  C   UNL d   1      14.733  12.975  -0.812  0.00  0.00     0.059 A 
ATOM     10  C   UNL d   1      14.984  13.570  -1.320  0.00  0.00     0.012 A 
ATOM     11  O   UNL d   1      14.246  13.589  -3.670  0.00  0.00    -0.286 OA
ATOM     12 CL   UNL d   1      14.988  12.976  -0.017  0.00  0.00    -0.082 Cl
ATOM     13  C   UNL d   1      13.982  11.779  -0.560  0.00  0.00     0.002 C 
ENDROOT
BRANCH   1  14
ATOM     14  C   UNL d   1      13.243  12.409  -4.241  0.00  0.00     0.216 C 
ATOM     15  O   UNL d   1      12.773  13.027  -4.529  0.00  0.00    -0.644 OA
ATOM     16  O   UNL d   1      13.472  11.793  -4.750  0.00  0.00    -0.644 OA
ENDBRANCH   1  14
TORSDOF 1
ENDMDL
MODEL 2
REMARK VINA RESULT:      17.5      2.016      3.028
REMARK  1 active torsions:
REMARK  status: ('A' for Active; 'I' for Inactive)
REMARK    1  A    between atoms: C_7  and  C_1 
ROOT
ATOM      1  C   UNL d   1      14.286  12.465  -1.520  0.00  0.00     0.122 A 
ATOM      2  C   UNL d   1      13.893  13.175  -2.708  0.00  0.00     0.057 A 
ATOM      3  C   UNL d   1      13.537  12.490  -3.000  0.00  0.00     0.085 A 
ATOM      4  C   UNL d   1      14.265  13.163  -1.972  0.00  0.00     0.204 A 
ATOM      5  N   UNL d   1      13.561  11.794  -2.542  0.00  0.00    -0.244 NA
ATOM      6  C   UNL d   1      13.164  12.493  -3.733  0.00  0.00     0.028 A 
ATOM      7  C   UNL d   1      13.930  11.779  -1.812  0.00  0.00     0.108 A 
ATOM      8  C   UNL d   1      13.877  13.866  -3.148  0.00  0.00     0.006 A 
ATOM      9  C   UNL d   1      13.150  13.183  -4.168  0.00  0.00     0.059 A 
ATOM     10  C   UNL d   1      13.504  13.865  -3.877  0.00  0.00     0.012 A 
ATOM     11  O   UNL d   1      14.620  13.846  -1.681  0.00  0.00    -0.286 OA
ATOM     12 CL   UNL d   1      12.775  13.198  -4.913  0.00  0.00    -0.082 Cl
ATOM     13  C   UNL d   1      12.803  11.798  -4.030  0.00  0.00     0.002 C 
ENDROOT
BRANCH   1  14
ATOM     14  C   UNL d   1      14.665  12.465  -0.778  0.00  0.00     0.216 C 
ATOM     15  O   UNL d   1      15.394  12.843  -0.675  0.00  0.00    -0.644 OA
ATOM     16  O   UNL d   1      14.305  12.081  -0.134  0.00  0.00    -0.644 OA
ENDBRANCH   1  14
TORSDOF 1
ENDMDL
MODEL 3
REMARK VINA RESULT:      18.9      0.871      1.511
REMARK  1 active torsions:
REMARK  status: ('A' for Active; 'I' for Inactive)
REMARK    1  A    between atoms: C_7  and  C_1 
ROOT
ATOM      1  C   UNL d   1      13.569  13.121  -3.486  0.00  0.00     0.122 A 
ATOM      2  C   UNL d   1      13.885  12.446  -2.255  0.00  0.00     0.057 A 
ATOM      3  C   UNL d   1      14.287  13.118  -1.990  0.00  0.00     0.085 A 
ATOM      4  C   UNL d   1      13.528  12.448  -2.999  0.00  0.00     0.204 A 
ATOM      5  N   UNL d   1      14.323  13.789  -2.484  0.00  0.00    -0.244 NA
ATOM      6  C   UNL d   1      14.645  13.124  -1.250  0.00  0.00     0.028 A 
ATOM      7  C   UNL d   1      13.970  13.793  -3.221  0.00  0.00     0.108 A 
ATOM      8  C   UNL d   1      13.841  11.780  -1.781  0.00  0.00     0.006 A 
ATOM      9  C   UNL d   1      14.599  12.459  -0.781  0.00  0.00     0.059 A 
ATOM     10  C   UNL d   1      14.200  11.791  -1.045  0.00  0.00     0.012 A 
ATOM     11  O   UNL d   1      13.129  11.779  -3.263  0.00  0.00    -0.286 OA
ATOM     12 CL   UNL d   1      14.959  12.454  -0.029  0.00  0.00    -0.082 Cl
ATOM     13  C   UNL d   1      15.052  13.805  -0.981  0.00  0.00     0.002 C 
ENDROOT
BRANCH   1  14
ATOM     14  C   UNL d   1      13.204  13.111  -4.235  0.00  0.00     0.216 C 
ATOM     15  O   UNL d   1      13.262  12.446  -4.725  0.00  0.00    -0.644 OA
ATOM     16  O   UNL d   1      12.778  13.776  -4.493  0.00  0.00    -0.644 OA
ENDBRANCH   1  14
TORSDOF 1
ENDMDL
