MODEL 1
REMARK VINA RESULT:      -2.0      0.000      0.000
REMARK  5 active torsions:
REMARK  status: ('A' for Active; 'I' for Inactive)
REMARK    1  A    between atoms: C_8  and  C_1 
REMARK    2  A    between atoms: C_11  and  C_3 
REMARK    3  A    between atoms: C_7  and  C_4 
REMARK    4  A    between atoms: O_16  and  C_8 
REMARK    5  A    between atoms: C_19  and  O_16 
ROOT
ATOM      1  C   UNL d   1      58.317  -1.178  29.873  0.00  0.00     0.102 A 
ATOM      2  C   UNL d   1      57.723  -1.557  30.309  0.00  0.00     0.201 A 
ATOM      3  C   UNL d   1      58.539  -0.402  30.045  0.00  0.00     0.008 A 
ATOM      4  C   UNL d   1      57.584  -0.361  31.090  0.00  0.00     0.009 A 
ATOM      5  C   UNL d   1      57.362  -1.137  30.917  0.00  0.00     0.043 A 
ATOM      6  C   UNL d   1      58.168   0.002  30.656  0.00  0.00     0.001 A 
ATOM      7  O   UNL d   1      57.504  -2.325  30.139  0.00  0.00    -0.286 OA
ENDROOT
BRANCH   3   8
ATOM      8  C   UNL d   1      59.129  -0.039  29.604  0.00  0.00     0.000 A 
ATOM      9  C   UNL d   1      59.902  -0.046  29.892  0.00  0.00     0.000 A 
ATOM     10  C   UNL d   1      60.491   0.322  29.443  0.00  0.00     0.000 A 
ATOM     11  C   UNL d   1      60.327   0.681  28.741  0.00  0.00     0.000 A 
ATOM     12  C   UNL d   1      59.537   0.681  28.460  0.00  0.00     0.000 A 
ATOM     13  C   UNL d   1      58.942   0.319  28.899  0.00  0.00     0.000 A 
ENDBRANCH   3   8
BRANCH   1  14
ATOM     14  C   UNL d   1      58.693  -1.587  29.255  0.00  0.00     0.303 C 
ATOM     15  O   UNL d   1      58.459  -1.460  28.474  0.00  0.00    -0.259 OA
BRANCH  14  16
ATOM     16  O   UNL d   1      59.302  -2.122  29.419  0.00  0.00    -0.271 OA
BRANCH  16  17
ATOM     17  C   UNL d   1      59.419  -2.774  28.929  0.00  0.00     0.126 C 
ATOM     18  C   UNL d   1      60.065  -3.269  29.055  0.00  0.00     0.029 C 
ENDBRANCH  16  17
ENDBRANCH  14  16
ENDBRANCH   1  14
BRANCH   4  19
ATOM     19  C   UNL d   1      57.207   0.043  31.707  0.00  0.00     0.030 A 
ATOM     20  S   UNL d   1      57.536   0.246  32.431  0.00  0.00    -0.086 SA
ATOM     21  C   UNL d   1      56.973   0.633  32.859  0.00  0.00     0.035 A 
ATOM     22  C   UNL d   1      56.277   0.682  32.414  0.00  0.00     0.007 A 
ATOM     23  C   UNL d   1      56.419   0.312  31.690  0.00  0.00     0.007 A 
ENDBRANCH   4  19
TORSDOF 5
ENDMDL
MODEL 2
REMARK VINA RESULT:      -1.4      1.693      3.674
REMARK  5 active torsions:
REMARK  status: ('A' for Active; 'I' for Inactive)
REMARK    1  A    between atoms: C_8  and  C_1 
REMARK    2  A    between atoms: C_11  and  C_3 
REMARK    3  A    between atoms: C_7  and  C_4 
REMARK    4  A    between atoms: O_16  and  C_8 
REMARK    5  A    between atoms: C_19  and  O_16 
ROOT
ATOM      1  C   UNL d   1      58.906  -1.274  29.483  0.00  0.00     0.102 A 
ATOM      2  C   UNL d   1      58.422  -1.945  29.538  0.00  0.00     0.201 A 
ATOM      3  C   UNL d   1      59.681  -1.332  29.207  0.00  0.00     0.008 A 
ATOM      4  C   UNL d   1      59.514  -2.728  29.033  0.00  0.00     0.009 A 
ATOM      5  C   UNL d   1      58.738  -2.669  29.310  0.00  0.00     0.043 A 
ATOM      6  C   UNL d   1      59.980  -2.063  28.983  0.00  0.00     0.001 A 
ATOM      7  O   UNL d   1      57.655  -1.887  29.812  0.00  0.00    -0.286 OA
ENDROOT
BRANCH   3   8
ATOM      8  C   UNL d   1      60.149  -0.659  29.158  0.00  0.00     0.000 A 
ATOM      9  C   UNL d   1      60.664  -0.485  29.779  0.00  0.00     0.000 A 
ATOM     10  C   UNL d   1      61.131   0.194  29.723  0.00  0.00     0.000 A 
ATOM     11  C   UNL d   1      61.094   0.682  29.083  0.00  0.00     0.000 A 
ATOM     12  C   UNL d   1      60.567   0.495  28.459  0.00  0.00     0.000 A 
ATOM     13  C   UNL d   1      60.096  -0.179  28.504  0.00  0.00     0.000 A 
ENDBRANCH   3   8
BRANCH   1  14
ATOM     14  C   UNL d   1      58.603  -0.534  29.710  0.00  0.00     0.303 C 
ATOM     15  O   UNL d   1      58.386   0.017  29.136  0.00  0.00    -0.259 OA
BRANCH  14  16
ATOM     16  O   UNL d   1      58.517  -0.346  30.511  0.00  0.00    -0.271 OA
BRANCH  16  17
ATOM     17  C   UNL d   1      57.959   0.212  30.745  0.00  0.00     0.126 C 
ATOM     18  C   UNL d   1      58.087   0.658  31.426  0.00  0.00     0.029 C 
ENDBRANCH  16  17
ENDBRANCH  14  16
ENDBRANCH   1  14
BRANCH   4  19
ATOM     19  C   UNL d   1      59.812  -3.467  28.808  0.00  0.00     0.030 A 
ATOM     20  S   UNL d   1      60.601  -3.661  28.693  0.00  0.00    -0.086 SA
ATOM     21  C   UNL d   1      60.636  -4.438  28.479  0.00  0.00     0.035 A 
ATOM     22  C   UNL d   1      59.870  -4.750  28.455  0.00  0.00     0.007 A 
ATOM     23  C   UNL d   1      59.349  -4.144  28.662  0.00  0.00     0.007 A 
ENDBRANCH   4  19
TORSDOF 5
ENDMDL
MODEL 3
REMARK VINA RESULT:       0.4      1.106      2.383
REMARK  5 active torsions:
REMARK  status: ('A' for Active; 'I' for Inactive)
REMARK    1  A    between atoms: C_8  and  C_1 
REMARK    2  A    between atoms: C_11  and  C_3 
REMARK    3  A    between atoms: C_7  and  C_4 
REMARK    4  A    between atoms: O_16  and  C_8 
REMARK    5  A    between atoms: C_19  and  O_16 
ROOT
ATOM      1  C   UNL d   1      58.630  -0.724  29.864  0.00  0.00     0.102 A 
ATOM      2  C   UNL d   1      58.429  -0.044  30.293  0.00  0.00     0.201 A 
ATOM      3  C   UNL d   1      58.303  -1.457  30.055  0.00  0.00     0.008 A 
ATOM      4  C   UNL d   1      57.567  -0.855  31.104  0.00  0.00     0.009 A 
ATOM      5  C   UNL d   1      57.894  -0.123  30.913  0.00  0.00     0.043 A 
ATOM      6  C   UNL d   1      57.771  -1.517  30.677  0.00  0.00     0.001 A 
ATOM      7  O   UNL d   1      58.753   0.682  30.104  0.00  0.00    -0.286 OA
ENDROOT
BRANCH   3   8
ATOM      8  C   UNL d   1      58.512  -2.123  29.621  0.00  0.00     0.000 A 
ATOM      9  C   UNL d   1      58.108  -2.284  28.919  0.00  0.00     0.000 A 
ATOM     10  C   UNL d   1      58.323  -2.955  28.488  0.00  0.00     0.000 A 
ATOM     11  C   UNL d   1      58.911  -3.447  28.736  0.00  0.00     0.000 A 
ATOM     12  C   UNL d   1      59.313  -3.273  29.450  0.00  0.00     0.000 A 
ATOM     13  C   UNL d   1      59.107  -2.607  29.888  0.00  0.00     0.000 A 
ENDBRANCH   3   8
BRANCH   1  14
ATOM     14  C   UNL d   1      59.169  -0.664  29.234  0.00  0.00     0.303 C 
ATOM     15  O   UNL d   1      58.893  -0.603  28.459  0.00  0.00    -0.259 OA
BRANCH  14  16
ATOM     16  O   UNL d   1      59.983  -0.665  29.380  0.00  0.00    -0.271 OA
BRANCH  16  17
ATOM     17  C   UNL d   1      60.478  -0.167  28.952  0.00  0.00     0.126 C 
ATOM     18  C   UNL d   1      61.107   0.209  29.329  0.00  0.00     0.029 C 
ENDBRANCH  16  17
ENDBRANCH  14  16
ENDBRANCH   1  14
BRANCH   4  19
ATOM     19  C   UNL d   1      57.030  -0.911  31.733  0.00  0.00     0.030 A 
ATOM     20  S   UNL d   1      57.123  -0.595  32.484  0.00  0.00    -0.086 SA
ATOM     21  C   UNL d   1      56.469  -0.783  32.915  0.00  0.00     0.035 A 
ATOM     22  C   UNL d   1      55.949  -1.222  32.444  0.00  0.00     0.007 A 
ATOM     23  C   UNL d   1      56.297  -1.305  31.700  0.00  0.00     0.007 A 
ENDBRANCH   4  19
TORSDOF 5
ENDMDL
