MODEL 1
REMARK VINA RESULT:     145.9      0.000      0.000
REMARK  9 active torsions:
REMARK  status: ('A' for Active; 'I' for Inactive)
REMARK    1  A    between atoms: N_9  and  C_3 
REMARK    2  A    between atoms: S_14  and  C_6 
REMARK       I    between atoms: C_11  and  N_9 
REMARK    3  A    between atoms: C_18  and  C_11 
REMARK    4  A    between atoms: C_12  and  C_15 
REMARK    5  A    between atoms: O_25  and  C_12 
REMARK    6  A    between atoms: C_13  and  C_23 
REMARK       I    between atoms: N_16  and  C_13 
REMARK    7  A    between atoms: C_23  and  S_14 
REMARK    8  A    between atoms: C_24  and  N_16 
REMARK    9  A    between atoms: C_32  and  O_25 
ROOT
ATOM      1  C   UNL d   1     -57.251 -99.375 -45.303  0.00  0.00     0.079 A 
ATOM      2  C   UNL d   1     -57.843 -98.946 -45.706  0.00  0.00     0.187 A 
ATOM      3  C   UNL d   1     -57.389 -99.633 -44.542  0.00  0.00     0.171 A 
ATOM      4  N   UNL d   1     -58.563 -98.785 -45.340  0.00  0.00    -0.197 NA
ATOM      5  N   UNL d   1     -58.104 -99.480 -44.161  0.00  0.00    -0.202 NA
ATOM      6  C   UNL d   1     -58.697 -99.052 -44.564  0.00  0.00     0.198 A 
ATOM      7  C   UNL d   1     -56.605 -99.444 -45.811  0.00  0.00     0.029 A 
ATOM      8  O   UNL d   1     -57.555 -98.755 -46.463  0.00  0.00    -0.289 OA
ATOM      9  C   UNL d   1     -56.787 -99.066 -46.524  0.00  0.00     0.102 A 
ATOM     10  C   UNL d   1     -55.892 -99.828 -45.638  0.00  0.00     0.002 C 
ATOM     11  C   UNL d   1     -56.294 -99.005 -47.183  0.00  0.00     0.027 C 
ENDROOT
BRANCH   6  12
ATOM     12  S   UNL d   1     -59.422 -98.891 -44.191  0.00  0.00    -0.043 SA
BRANCH  12  13
ATOM     13  C   UNL d   1     -59.848 -99.498 -43.840  0.00  0.00     0.101 C 
BRANCH  13  14
ATOM     14  C   UNL d   1     -59.714 -99.692 -43.049  0.00  0.00     0.286 C 
ATOM     15  N   UNL d   1     -59.886 -99.147 -42.460  0.00  0.00    -0.208 NA
ATOM     16  O   UNL d   1     -59.409-100.432 -42.848  0.00  0.00    -0.265 OA
BRANCH  15  17
ATOM     17  C   UNL d   1     -59.756 -99.331 -41.667  0.00  0.00     0.085 A 
ATOM     18  C   UNL d   1     -59.955 -98.794 -41.081  0.00  0.00     0.019 A 
ATOM     19  C   UNL d   1     -59.822 -98.987 -40.291  0.00  0.00     0.007 A 
ATOM     20  C   UNL d   1     -59.490 -99.716 -40.092  0.00  0.00     0.064 A 
ATOM     21  C   UNL d   1     -59.290-100.258 -40.690  0.00  0.00     0.007 A 
ATOM     22  C   UNL d   1     -59.422-100.067 -41.475  0.00  0.00     0.019 A 
BRANCH  20  23
ATOM     23  C   UNL d   1     -59.356 -99.910 -39.295  0.00  0.00     0.300 C 
ATOM     24  O   UNL d   1     -59.296-100.700 -39.065  0.00  0.00    -0.259 OA
BRANCH  23  25
ATOM     25  O   UNL d   1     -59.284 -99.310 -38.734  0.00  0.00    -0.271 OA
BRANCH  25  26
ATOM     26  C   UNL d   1     -59.632 -99.388 -37.992  0.00  0.00     0.126 C 
ATOM     27  C   UNL d   1     -59.563 -98.786 -37.440  0.00  0.00     0.029 C 
ENDBRANCH  25  26
ENDBRANCH  23  25
ENDBRANCH  20  23
ENDBRANCH  15  17
ENDBRANCH  13  14
ENDBRANCH  12  13
ENDBRANCH   6  12
BRANCH   3  28
ATOM     28  N   UNL d   1     -56.804-100.056 -44.143  0.00  0.00    -0.189 NA
ATOM     29  C   UNL d   1     -56.780-100.884 -44.202  0.00  0.00     0.281 C 
ATOM     30  O   UNL d   1     -57.340-101.283 -44.658  0.00  0.00    -0.265 OA
BRANCH  29  31
ATOM     31  C   UNL d   1     -56.192-101.303 -43.802  0.00  0.00     0.058 A 
ATOM     32  C   UNL d   1     -56.022-102.075 -44.021  0.00  0.00     0.005 A 
ATOM     33  C   UNL d   1     -55.439-102.496 -43.626  0.00  0.00     0.000 A 
ATOM     34  C   UNL d   1     -55.019-102.148 -43.008  0.00  0.00     0.000 A 
ATOM     35  C   UNL d   1     -55.193-101.369 -42.789  0.00  0.00     0.000 A 
ATOM     36  C   UNL d   1     -55.782-100.944 -43.189  0.00  0.00     0.005 A 
ENDBRANCH  29  31
ENDBRANCH   3  28
TORSDOF 9
ENDMDL
