MODEL 1
REMARK VINA RESULT:     -11.5      0.000      0.000
REMARK  4 active torsions:
REMARK  status: ('A' for Active; 'I' for Inactive)
REMARK    1  A    between atoms: C_9  and  C_1 
REMARK    2  A    between atoms: C_8  and  C_6 
REMARK    3  A    between atoms: C_14  and  C_9 
REMARK    4  A    between atoms: C_15  and  C_10 
ROOT
ATOM      1  C   UNL d   1      52.552  33.701  53.196  0.00  0.00     0.089 A 
ATOM      2  C   UNL d   1      53.310  32.868  53.910  0.00  0.00     0.048 A 
ATOM      3  C   UNL d   1      53.159  33.662  53.739  0.00  0.00     0.114 A 
ATOM      4  C   UNL d   1      52.784  32.417  53.461  0.00  0.00     0.112 A 
ATOM      5  S   UNL d   1      52.315  32.937  53.019  0.00  0.00    -0.063 SA
ATOM      6  C   UNL d   1      53.853  32.496  54.412  0.00  0.00     0.076 A 
ATOM      7  N   UNL d   1      52.807  31.598  53.519  0.00  0.00    -0.239 NA
ATOM      8  C   UNL d   1      53.339  31.224  54.010  0.00  0.00     0.082 A 
ATOM      9  C   UNL d   1      53.865  31.676  54.459  0.00  0.00     0.023 A 
ATOM     10  N   UNL d   1      53.567  34.311  54.074  0.00  0.00    -0.147 N 
ENDROOT
BRANCH   1  11
ATOM     11  C   UNL d   1      52.232  34.389  52.879  0.00  0.00     0.203 C 
ATOM     12  O   UNL d   1      52.703  35.022  52.728  0.00  0.00    -0.286 OA
BRANCH  11  13
ATOM     13  C   UNL d   1      51.420  34.421  52.718  0.00  0.00     0.040 A 
ATOM     14  C   UNL d   1      50.876  34.619  53.302  0.00  0.00     0.003 A 
ATOM     15  C   UNL d   1      50.081  34.648  53.136  0.00  0.00     0.000 A 
ATOM     16  C   UNL d   1      49.810  34.475  52.361  0.00  0.00     0.000 A 
ATOM     17  C   UNL d   1      50.343  34.278  51.780  0.00  0.00     0.000 A 
ATOM     18  C   UNL d   1      51.149  34.247  51.943  0.00  0.00     0.003 A 
ENDBRANCH  11  13
ENDBRANCH   1  11
BRANCH   6  19
ATOM     19  C   UNL d   1      54.378  32.946  54.860  0.00  0.00     0.419 C 
ATOM     20  F   UNL d   1      54.896  33.391  55.302  0.00  0.00    -0.166 F 
ATOM     21  F   UNL d   1      54.934  32.910  54.245  0.00  0.00    -0.166 F 
ATOM     22  F   UNL d   1      53.827  32.982  55.469  0.00  0.00    -0.166 F 
ENDBRANCH   6  19
BRANCH   8  23
ATOM     23  C   UNL d   1      53.362  30.405  54.068  0.00  0.00     0.018 A 
ATOM     24  C   UNL d   1      53.506  29.955  53.387  0.00  0.00     0.002 A 
ATOM     25  C   UNL d   1      53.534  29.128  53.421  0.00  0.00     0.000 A 
ATOM     26  C   UNL d   1      53.414  28.753  54.162  0.00  0.00     0.000 A 
ATOM     27  C   UNL d   1      53.271  29.203  54.843  0.00  0.00     0.000 A 
ATOM     28  C   UNL d   1      53.247  30.027  54.782  0.00  0.00     0.002 A 
ENDBRANCH   8  23
TORSDOF 4
ENDMDL
MODEL 2
REMARK VINA RESULT:     -11.3      1.378      4.317
REMARK  4 active torsions:
REMARK  status: ('A' for Active; 'I' for Inactive)
REMARK    1  A    between atoms: C_9  and  C_1 
REMARK    2  A    between atoms: C_8  and  C_6 
REMARK    3  A    between atoms: C_14  and  C_9 
REMARK    4  A    between atoms: C_15  and  C_10 
ROOT
ATOM      1  C   UNL d   1      53.210  32.484  53.301  0.00  0.00     0.089 A 
ATOM      2  C   UNL d   1      52.590  33.663  53.352  0.00  0.00     0.048 A 
ATOM      3  C   UNL d   1      53.281  33.257  53.549  0.00  0.00     0.114 A 
ATOM      4  C   UNL d   1      52.089  33.124  52.977  0.00  0.00     0.112 A 
ATOM      5  S   UNL d   1      52.478  32.392  52.947  0.00  0.00    -0.063 SA
ATOM      6  C   UNL d   1      52.348  34.446  53.463  0.00  0.00     0.076 A 
ATOM      7  N   UNL d   1      51.352  33.375  52.717  0.00  0.00    -0.239 NA
ATOM      8  C   UNL d   1      51.107  34.145  52.822  0.00  0.00     0.082 A 
ATOM      9  C   UNL d   1      51.608  34.684  53.198  0.00  0.00     0.023 A 
ATOM     10  N   UNL d   1      53.941  33.594  53.939  0.00  0.00    -0.147 N 
ENDROOT
BRANCH   1  11
ATOM     11  C   UNL d   1      53.777  31.895  53.390  0.00  0.00     0.203 C 
ATOM     12  O   UNL d   1      54.557  32.068  53.309  0.00  0.00    -0.286 OA
BRANCH  11  13
ATOM     13  C   UNL d   1      53.534  31.122  53.564  0.00  0.00     0.040 A 
ATOM     14  C   UNL d   1      53.440  30.869  54.341  0.00  0.00     0.003 A 
ATOM     15  C   UNL d   1      53.200  30.109  54.504  0.00  0.00     0.000 A 
ATOM     16  C   UNL d   1      53.048  29.576  53.874  0.00  0.00     0.000 A 
ATOM     17  C   UNL d   1      53.139  29.821  53.105  0.00  0.00     0.000 A 
ATOM     18  C   UNL d   1      53.381  30.588  52.935  0.00  0.00     0.003 A 
ENDBRANCH  11  13
ENDBRANCH   1  11
BRANCH   6  19
ATOM     19  C   UNL d   1      52.848  34.984  53.838  0.00  0.00     0.419 C 
ATOM     20  F   UNL d   1      53.341  35.514  54.207  0.00  0.00    -0.166 F 
ATOM     21  F   UNL d   1      53.138  35.229  53.099  0.00  0.00    -0.166 F 
ATOM     22  F   UNL d   1      52.561  34.741  54.569  0.00  0.00    -0.166 F 
ENDBRANCH   6  19
BRANCH   8  23
ATOM     23  C   UNL d   1      50.369  34.397  52.562  0.00  0.00     0.018 A 
ATOM     24  C   UNL d   1      50.158  34.279  51.770  0.00  0.00     0.002 A 
ATOM     25  C   UNL d   1      49.420  34.524  51.484  0.00  0.00     0.000 A 
ATOM     26  C   UNL d   1      48.889  34.897  52.016  0.00  0.00     0.000 A 
ATOM     27  C   UNL d   1      49.101  35.016  52.809  0.00  0.00     0.000 A 
ATOM     28  C   UNL d   1      49.843  34.761  53.068  0.00  0.00     0.002 A 
ENDBRANCH   8  23
TORSDOF 4
ENDMDL
