MODEL 1
REMARK VINA RESULT:      -1.9      0.000      0.000
REMARK  7 active torsions:
REMARK  status: ('A' for Active; 'I' for Inactive)
REMARK    1  A    between atoms: S_10  and  C_9 
REMARK    2  A    between atoms: C_15  and  S_10 
REMARK    3  A    between atoms: C_11  and  C_15 
REMARK       I    between atoms: N_16  and  C_11 
REMARK    4  A    between atoms: C_24  and  N_16 
REMARK    5  A    between atoms: C_21  and  C_24 
REMARK    6  A    between atoms: C_25  and  C_21 
REMARK    7  A    between atoms: O_23  and  C_25 
ROOT
ATOM      1  C   UNL d   1     -42.452-122.759 -49.894  0.00  0.00     0.004 A 
ATOM      2  C   UNL d   1     -41.796-123.115 -49.563  0.00  0.00     0.000 A 
ATOM      3  C   UNL d   1     -43.113-122.567 -49.434  0.00  0.00     0.039 A 
ATOM      4  C   UNL d   1     -43.131-122.726 -48.633  0.00  0.00     0.196 A 
ATOM      5  C   UNL d   1     -41.806-123.280 -48.748  0.00  0.00     0.003 A 
ATOM      6  C   UNL d   1     -42.484-123.083 -48.276  0.00  0.00     0.039 A 
ATOM      7  C   UNL d   1     -42.443-122.593 -50.710  0.00  0.00     0.006 A 
ATOM      8  C   UNL d   1     -41.136-123.307 -50.022  0.00  0.00     0.001 A 
ATOM      9  C   UNL d   1     -41.783-122.785 -51.169  0.00  0.00     0.030 A 
ATOM     10  O   UNL d   1     -43.795-122.533 -48.171  0.00  0.00    -0.287 OA
ATOM     11  C   UNL d   1     -41.137-123.142 -50.810  0.00  0.00     0.006 A 
ATOM     12  C   UNL d   1     -43.777-122.205 -49.780  0.00  0.00     0.003 A 
ATOM     13  C   UNL d   1     -41.142-123.642 -48.403  0.00  0.00     0.000 A 
ATOM     14  C   UNL d   1     -42.477-123.253 -47.474  0.00  0.00     0.003 A 
ATOM     15  C   UNL d   1     -43.107-122.231 -51.055  0.00  0.00     0.001 A 
ATOM     16  C   UNL d   1     -43.760-122.033 -50.637  0.00  0.00     0.000 A 
ATOM     17  C   UNL d   1     -41.828-123.612 -47.111  0.00  0.00     0.000 A 
ATOM     18  C   UNL d   1     -41.123-123.817 -47.602  0.00  0.00     0.000 A 
ENDROOT
BRANCH   9  19
ATOM     19  S   UNL d   1     -41.764-122.622 -51.990  0.00  0.00    -0.081 SA
BRANCH  19  20
ATOM     20  C   UNL d   1     -41.124-122.880 -52.450  0.00  0.00     0.098 C 
BRANCH  20  21
ATOM     21  C   UNL d   1     -41.192-122.963 -53.238  0.00  0.00     0.286 C 
ATOM     22  O   UNL d   1     -41.201-123.711 -53.576  0.00  0.00    -0.265 OA
ATOM     23  N   UNL d   1     -41.255-122.304 -53.723  0.00  0.00    -0.206 NA
BRANCH  23  24
ATOM     24  C   UNL d   1     -41.327-122.370 -54.547  0.00  0.00     0.104 C 
BRANCH  24  25
ATOM     25  C   UNL d   1     -41.920-121.960 -54.926  0.00  0.00     0.047 C 
BRANCH  25  26
ATOM     26  C   UNL d   1     -41.860-121.839 -55.734  0.00  0.00     0.118 C 
BRANCH  26  27
ATOM     27  O   UNL d   1     -42.506-121.887 -56.212  0.00  0.00    -0.326 OA
ATOM     28  C   UNL d   1     -43.225-122.163 -55.927  0.00  0.00     0.181 C 
ENDBRANCH  26  27
ENDBRANCH  25  26
ENDBRANCH  24  25
ENDBRANCH  23  24
ENDBRANCH  20  21
ENDBRANCH  19  20
ENDBRANCH   9  19
TORSDOF 7
ENDMDL
