MODEL 1
REMARK VINA RESULT:      51.8      0.000      0.000
REMARK  5 active torsions:
REMARK  status: ('A' for Active; 'I' for Inactive)
REMARK    1  A    between atoms: C_11  and  C_3 
REMARK    2  A    between atoms: C_13  and  N_5 
REMARK    3  A    between atoms: C_12  and  C_7 
REMARK    4  A    between atoms: O_21  and  C_11 
REMARK    5  A    between atoms: C_20  and  C_13 
ROOT
ATOM      1  C   UNL d   1      14.496  14.310  -2.084  0.00  0.00     0.080 A 
ATOM      2  C   UNL d   1      14.237  14.691  -2.773  0.00  0.00     0.267 A 
ATOM      3  C   UNL d   1      14.643  13.125  -1.312  0.00  0.00     0.106 A 
ATOM      4  C   UNL d   1      14.866  14.746  -1.490  0.00  0.00     0.108 A 
ATOM      5  N   UNL d   1      14.352  15.513  -2.858  0.00  0.00    -0.271 N 
ATOM      6  C   UNL d   1      15.016  13.563  -0.713  0.00  0.00     0.208 A 
ATOM      7  C   UNL d   1      14.386  13.503  -1.994  0.00  0.00     0.015 A 
ATOM      8  O   UNL d   1      15.127  14.373  -0.802  0.00  0.00    -0.288 OA
ATOM      9  C   UNL d   1      14.984  15.559  -1.566  0.00  0.00     0.043 A 
ATOM     10  C   UNL d   1      14.726  15.939  -2.251  0.00  0.00     0.069 A 
ATOM     11  O   UNL d   1      13.864  14.265  -3.376  0.00  0.00    -0.267 OA
ATOM     12  N   UNL d   1      15.274  13.183  -0.027  0.00  0.00    -0.121 N 
ATOM     13  C   UNL d   1      14.840  16.768  -2.341  0.00  0.00     0.019 C 
ENDROOT
BRANCH   7  14
ATOM     14  C   UNL d   1      14.017  13.072  -2.590  0.00  0.00     0.001 A 
ATOM     15  C   UNL d   1      13.190  13.032  -2.609  0.00  0.00     0.001 A 
ATOM     16  C   UNL d   1      12.821  12.601  -3.205  0.00  0.00     0.011 A 
ATOM     17  C   UNL d   1      13.269  12.212  -3.779  0.00  0.00     0.058 A 
ATOM     18  C   UNL d   1      14.099  12.254  -3.757  0.00  0.00     0.011 A 
ATOM     19 CL   UNL d   1      12.900  11.781  -4.375  0.00  0.00    -0.082 Cl
ATOM     20  C   UNL d   1      14.469  12.685  -3.161  0.00  0.00     0.001 A 
ENDBRANCH   7  14
BRANCH   3  21
ATOM     21  C   UNL d   1      14.532  12.314  -1.223  0.00  0.00     0.299 C 
ATOM     22  O   UNL d   1      15.096  11.784  -1.509  0.00  0.00    -0.259 OA
BRANCH  21  23
ATOM     23  O   UNL d   1      13.856  12.028  -0.846  0.00  0.00    -0.296 OA
ATOM     24  C   UNL d   1      13.891  11.786  -0.057  0.00  0.00     0.185 C 
ENDBRANCH  21  23
ENDBRANCH   3  21
BRANCH   5  25
ATOM     25  C   UNL d   1      14.094  15.893  -3.543  0.00  0.00     0.108 C 
BRANCH  25  26
ATOM     26  C   UNL d   1      14.634  16.100  -4.128  0.00  0.00     0.118 A 
ATOM     27  O   UNL d   1      15.461  16.070  -4.063  0.00  0.00    -0.304 OA
ATOM     28  C   UNL d   1      15.787  16.326  -4.779  0.00  0.00     0.123 A 
ATOM     29  C   UNL d   1      15.167  16.515  -5.290  0.00  0.00     0.029 A 
ATOM     30  C   UNL d   1      14.457  16.377  -4.891  0.00  0.00     0.028 A 
ENDBRANCH  25  26
ENDBRANCH   5  25
TORSDOF 5
ENDMDL
