MODEL 1
REMARK VINA RESULT:      68.8      0.000      0.000
REMARK  1 active torsions:
REMARK  status: ('A' for Active; 'I' for Inactive)
REMARK    1  A    between atoms: C_11  and  C_2 
ROOT
ATOM      1  C   UNL d   1      58.404  49.487  50.826  0.00  0.00     0.026 A 
ATOM      2  C   UNL d   1      59.161  49.537  51.112  0.00  0.00     0.007 A 
ATOM      3  C   UNL d   1      58.267  49.442  50.023  0.00  0.00     0.103 A 
ATOM      4  C   UNL d   1      59.799  49.545  50.598  0.00  0.00     0.026 A 
ATOM      5  C   UNL d   1      57.765  49.480  51.351  0.00  0.00     0.047 A 
ATOM      6  C   UNL d   1      59.662  49.500  49.790  0.00  0.00     0.103 A 
ATOM      7  O   UNL d   1      58.888  49.448  49.497  0.00  0.00    -0.307 OA
ATOM      8  C   UNL d   1      57.502  49.391  49.732  0.00  0.00     0.070 A 
ATOM      9  C   UNL d   1      56.994  49.429  51.080  0.00  0.00     0.234 A 
ATOM     10  C   UNL d   1      56.853  49.384  50.266  0.00  0.00     0.236 A 
ATOM     11  C   UNL d   1      60.572  49.595  50.869  0.00  0.00     0.047 A 
ATOM     12  C   UNL d   1      60.302  49.506  49.251  0.00  0.00     0.070 A 
ATOM     13  C   UNL d   1      61.223  49.602  50.342  0.00  0.00     0.234 A 
ATOM     14  C   UNL d   1      61.074  49.557  49.530  0.00  0.00     0.236 A 
ATOM     15  O   UNL d   1      56.080  49.334  50.002  0.00  0.00    -0.283 OA
ATOM     16  O   UNL d   1      56.376  49.424  51.615  0.00  0.00    -0.283 OA
ATOM     17  O   UNL d   1      61.990  49.653  50.618  0.00  0.00    -0.283 OA
ATOM     18  O   UNL d   1      61.700  49.563  48.993  0.00  0.00    -0.283 OA
ENDROOT
BRANCH   2  19
ATOM     19  C   UNL d   1      59.298  49.582  51.919  0.00  0.00     0.039 A 
ATOM     20  C   UNL d   1      60.081  49.548  52.208  0.00  0.00     0.196 A 
ATOM     21  O   UNL d   1      60.711  49.472  51.704  0.00  0.00    -0.287 OA
ATOM     22  C   UNL d   1      60.219  49.593  53.023  0.00  0.00     0.042 A 
ATOM     23  C   UNL d   1      59.576  49.672  53.555  0.00  0.00     0.003 A 
ATOM     24  C   UNL d   1      58.806  49.704  53.256  0.00  0.00     0.000 A 
ATOM     25  C   UNL d   1      58.679  49.659  52.440  0.00  0.00     0.003 A 
ENDBRANCH   2  19
TORSDOF 1
ENDMDL
MODEL 2
REMARK VINA RESULT:      71.0      1.113      2.737
REMARK  1 active torsions:
REMARK  status: ('A' for Active; 'I' for Inactive)
REMARK    1  A    between atoms: C_11  and  C_2 
ROOT
ATOM      1  C   UNL d   1      58.696  49.384  51.303  0.00  0.00     0.026 A 
ATOM      2  C   UNL d   1      59.491  49.315  51.447  0.00  0.00     0.007 A 
ATOM      3  C   UNL d   1      58.179  49.549  51.912  0.00  0.00     0.103 A 
ATOM      4  C   UNL d   1      59.786  49.410  52.205  0.00  0.00     0.026 A 
ATOM      5  C   UNL d   1      58.406  49.287  50.534  0.00  0.00     0.047 A 
ATOM      6  C   UNL d   1      59.266  49.576  52.817  0.00  0.00     0.103 A 
ATOM      7  O   UNL d   1      58.453  49.647  52.672  0.00  0.00    -0.307 OA
ATOM      8  C   UNL d   1      57.374  49.620  51.769  0.00  0.00     0.070 A 
ATOM      9  C   UNL d   1      57.606  49.354  50.373  0.00  0.00     0.234 A 
ATOM     10  C   UNL d   1      57.080  49.521  50.989  0.00  0.00     0.236 A 
ATOM     11  C   UNL d   1      60.588  49.343  52.369  0.00  0.00     0.047 A 
ATOM     12  C   UNL d   1      59.551  49.676  53.599  0.00  0.00     0.070 A 
ATOM     13  C   UNL d   1      60.887  49.440  53.144  0.00  0.00     0.234 A 
ATOM     14  C   UNL d   1      60.355  49.607  53.755  0.00  0.00     0.236 A 
ATOM     15  O   UNL d   1      56.282  49.587  50.819  0.00  0.00    -0.283 OA
ATOM     16  O   UNL d   1      57.339  49.254  49.606  0.00  0.00    -0.283 OA
ATOM     17  O   UNL d   1      61.686  49.373  53.301  0.00  0.00    -0.283 OA
ATOM     18  O   UNL d   1      60.628  49.707  54.527  0.00  0.00    -0.283 OA
ENDROOT
BRANCH   2  19
ATOM     19  C   UNL d   1      60.010  49.149  50.834  0.00  0.00     0.039 A 
ATOM     20  C   UNL d   1      60.386  48.403  50.801  0.00  0.00     0.196 A 
ATOM     21  O   UNL d   1      60.247  47.839  51.365  0.00  0.00    -0.287 OA
ATOM     22  C   UNL d   1      60.910  48.236  50.183  0.00  0.00     0.042 A 
ATOM     23  C   UNL d   1      61.062  48.812  49.592  0.00  0.00     0.003 A 
ATOM     24  C   UNL d   1      60.684  49.546  49.637  0.00  0.00     0.000 A 
ATOM     25  C   UNL d   1      60.162  49.703  50.259  0.00  0.00     0.003 A 
ENDBRANCH   2  19
TORSDOF 1
ENDMDL
