MODEL 1
REMARK VINA RESULT:      -6.9      0.000      0.000
REMARK  4 active torsions:
REMARK  status: ('A' for Active; 'I' for Inactive)
REMARK    1  A    between atoms: C_8  and  C_2 
REMARK    2  A    between atoms: O_6  and  C_8 
REMARK    3  A    between atoms: C_7  and  O_6 
REMARK    4  A    between atoms: O_10  and  C_9 
ROOT
ATOM      1  C   UNL d   1     -47.894  13.861  22.974  0.00  0.00     0.161 C 
ENDROOT
BRANCH   1   2
ATOM      2  O   UNL d   1     -47.536  13.220  23.180  0.00  0.00    -0.300 OA
BRANCH   2   3
ATOM      3  C   UNL d   1     -46.735  13.072  22.936  0.00  0.00     0.122 A 
ATOM      4  C   UNL d   1     -46.371  12.394  23.151  0.00  0.00     0.117 A 
ATOM      5  C   UNL d   1     -45.589  12.259  22.906  0.00  0.00     0.026 A 
ATOM      6  C   UNL d   1     -45.201  12.824  22.447  0.00  0.00     0.002 A 
ATOM      7  C   UNL d   1     -45.580  13.543  22.216  0.00  0.00     0.002 A 
ATOM      8  C   UNL d   1     -46.370  13.653  22.477  0.00  0.00     0.027 A 
BRANCH   4   9
ATOM      9  O   UNL d   1     -46.757  11.832  23.608  0.00  0.00    -0.326 OA
ATOM     10  C   UNL d   1     -46.453  11.093  23.697  0.00  0.00     0.181 C 
ENDBRANCH   4   9
ENDBRANCH   2   3
ENDBRANCH   1   2
BRANCH   1  11
ATOM     11  C   UNL d   1     -48.681  13.929  23.118  0.00  0.00     0.188 A 
ATOM     12  N   UNL d   1     -49.455  13.681  23.252  0.00  0.00    -0.224 NA
ATOM     13  C   UNL d   1     -49.926  14.329  23.353  0.00  0.00     0.101 A 
ATOM     14  C   UNL d   1     -49.449  14.999  23.283  0.00  0.00     0.101 A 
ATOM     15  C   UNL d   1     -50.715  14.436  23.498  0.00  0.00     0.021 A 
ATOM     16  C   UNL d   1     -49.780  15.751  23.361  0.00  0.00     0.021 A 
ATOM     17  N   UNL d   1     -48.693  14.752  23.140  0.00  0.00    -0.224 NA
ATOM     18  C   UNL d   1     -50.588  15.832  23.509  0.00  0.00     0.002 A 
ATOM     19  C   UNL d   1     -51.064  15.162  23.579  0.00  0.00     0.002 A 
ENDBRANCH   1  11
TORSDOF 4
ENDMDL
MODEL 2
REMARK VINA RESULT:      -6.6      1.222      4.390
REMARK  4 active torsions:
REMARK  status: ('A' for Active; 'I' for Inactive)
REMARK    1  A    between atoms: C_8  and  C_2 
REMARK    2  A    between atoms: O_6  and  C_8 
REMARK    3  A    between atoms: C_7  and  O_6 
REMARK    4  A    between atoms: O_10  and  C_9 
ROOT
ATOM      1  C   UNL d   1     -48.332  14.208  23.034  0.00  0.00     0.161 C 
ENDROOT
BRANCH   1   2
ATOM      2  O   UNL d   1     -49.057  14.003  22.913  0.00  0.00    -0.300 OA
BRANCH   2   3
ATOM      3  C   UNL d   1     -49.689  14.564  23.011  0.00  0.00     0.122 A 
ATOM      4  C   UNL d   1     -50.359  14.490  22.582  0.00  0.00     0.117 A 
ATOM      5  C   UNL d   1     -50.969  15.042  22.686  0.00  0.00     0.026 A 
ATOM      6  C   UNL d   1     -50.877  15.658  23.227  0.00  0.00     0.002 A 
ATOM      7  C   UNL d   1     -50.171  15.742  23.684  0.00  0.00     0.002 A 
ATOM      8  C   UNL d   1     -49.570  15.169  23.559  0.00  0.00     0.027 A 
BRANCH   4   9
ATOM      9  O   UNL d   1     -50.451  13.877  22.043  0.00  0.00    -0.326 OA
ATOM     10  C   UNL d   1     -51.063  13.875  21.522  0.00  0.00     0.181 C 
ENDBRANCH   4   9
ENDBRANCH   2   3
ENDBRANCH   1   2
BRANCH   1  11
ATOM     11  C   UNL d   1     -47.771  13.635  23.082  0.00  0.00     0.188 A 
ATOM     12  N   UNL d   1     -47.440  12.908  23.281  0.00  0.00    -0.224 NA
ATOM     13  C   UNL d   1     -46.677  12.885  23.016  0.00  0.00     0.101 A 
ATOM     14  C   UNL d   1     -46.518  13.604  22.644  0.00  0.00     0.101 A 
ATOM     15  C   UNL d   1     -46.087  12.332  23.045  0.00  0.00     0.021 A 
ATOM     16  C   UNL d   1     -45.774  13.743  22.315  0.00  0.00     0.021 A 
ATOM     17  N   UNL d   1     -47.185  14.058  22.686  0.00  0.00    -0.224 NA
ATOM     18  C   UNL d   1     -45.189  13.161  22.358  0.00  0.00     0.002 A 
ATOM     19  C   UNL d   1     -45.349  12.442  22.730  0.00  0.00     0.002 A 
ENDBRANCH   1  11
TORSDOF 4
ENDMDL
MODEL 3
REMARK VINA RESULT:      -6.2      1.832      4.688
REMARK  4 active torsions:
REMARK  status: ('A' for Active; 'I' for Inactive)
REMARK    1  A    between atoms: C_8  and  C_2 
REMARK    2  A    between atoms: O_6  and  C_8 
REMARK    3  A    between atoms: C_7  and  O_6 
REMARK    4  A    between atoms: O_10  and  C_9 
ROOT
ATOM      1  C   UNL d   1     -46.540  12.724  23.129  0.00  0.00     0.161 C 
ENDROOT
BRANCH   1   2
ATOM      2  O   UNL d   1     -47.298  12.794  23.151  0.00  0.00    -0.300 OA
BRANCH   2   3
ATOM      3  C   UNL d   1     -47.672  13.537  22.975  0.00  0.00     0.122 A 
ATOM      4  C   UNL d   1     -48.462  13.620  23.069  0.00  0.00     0.117 A 
ATOM      5  C   UNL d   1     -48.816  14.349  22.894  0.00  0.00     0.026 A 
ATOM      6  C   UNL d   1     -48.351  14.977  22.627  0.00  0.00     0.002 A 
ATOM      7  C   UNL d   1     -47.516  14.897  22.526  0.00  0.00     0.002 A 
ATOM      8  C   UNL d   1     -47.184  14.148  22.710  0.00  0.00     0.027 A 
BRANCH   4   9
ATOM      9  O   UNL d   1     -48.924  12.995  23.334  0.00  0.00    -0.326 OA
ATOM     10  C   UNL d   1     -49.726  13.044  23.327  0.00  0.00     0.181 C 
ENDBRANCH   4   9
ENDBRANCH   2   3
ENDBRANCH   1   2
BRANCH   1  11
ATOM     11  C   UNL d   1     -46.209  12.017  23.320  0.00  0.00     0.188 A 
ATOM     12  N   UNL d   1     -46.171  11.250  23.616  0.00  0.00    -0.224 NA
ATOM     13  C   UNL d   1     -45.420  10.968  23.520  0.00  0.00     0.101 A 
ATOM     14  C   UNL d   1     -44.974  11.560  23.158  0.00  0.00     0.101 A 
ATOM     15  C   UNL d   1     -45.054  10.269  23.698  0.00  0.00     0.021 A 
ATOM     16  C   UNL d   1     -44.177  11.430  22.988  0.00  0.00     0.021 A 
ATOM     17  N   UNL d   1     -45.456  12.196  23.038  0.00  0.00    -0.224 NA
ATOM     18  C   UNL d   1     -43.827  10.707  23.180  0.00  0.00     0.002 A 
ATOM     19  C   UNL d   1     -44.274  10.115  23.541  0.00  0.00     0.002 A 
ENDBRANCH   1  11
TORSDOF 4
ENDMDL
MODEL 4
REMARK VINA RESULT:      -6.2      1.532      4.455
REMARK  4 active torsions:
REMARK  status: ('A' for Active; 'I' for Inactive)
REMARK    1  A    between atoms: C_8  and  C_2 
REMARK    2  A    between atoms: O_6  and  C_8 
REMARK    3  A    between atoms: C_7  and  O_6 
REMARK    4  A    between atoms: O_10  and  C_9 
ROOT
ATOM      1  C   UNL d   1     -48.245  12.929  23.268  0.00  0.00     0.161 C 
ENDROOT
BRANCH   1   2
ATOM      2  O   UNL d   1     -48.893  13.318  23.171  0.00  0.00    -0.300 OA
BRANCH   2   3
ATOM      3  C   UNL d   1     -49.644  12.961  23.349  0.00  0.00     0.122 A 
ATOM      4  C   UNL d   1     -50.302  13.413  23.386  0.00  0.00     0.117 A 
ATOM      5  C   UNL d   1     -51.030  13.055  23.562  0.00  0.00     0.026 A 
ATOM      6  C   UNL d   1     -51.064  12.241  23.695  0.00  0.00     0.002 A 
ATOM      7  C   UNL d   1     -50.373  11.758  23.658  0.00  0.00     0.002 A 
ATOM      8  C   UNL d   1     -49.650  12.146  23.478  0.00  0.00     0.027 A 
BRANCH   4   9
ATOM      9  O   UNL d   1     -50.268  14.223  23.254  0.00  0.00    -0.326 OA
ATOM     10  C   UNL d   1     -50.896  14.695  23.422  0.00  0.00     0.181 C 
ENDBRANCH   4   9
ENDBRANCH   2   3
ENDBRANCH   1   2
BRANCH   1  11
ATOM     11  C   UNL d   1     -47.569  13.212  22.938  0.00  0.00     0.188 A 
ATOM     12  N   UNL d   1     -47.082  13.739  22.534  0.00  0.00    -0.224 NA
ATOM     13  C   UNL d   1     -46.338  13.429  22.490  0.00  0.00     0.101 A 
ATOM     14  C   UNL d   1     -46.348  12.696  22.869  0.00  0.00     0.101 A 
ATOM     15  C   UNL d   1     -45.640  13.682  22.169  0.00  0.00     0.021 A 
ATOM     16  C   UNL d   1     -45.659  12.244  22.913  0.00  0.00     0.021 A 
ATOM     17  N   UNL d   1     -47.098  12.567  23.140  0.00  0.00    -0.224 NA
ATOM     18  C   UNL d   1     -44.960  12.526  22.577  0.00  0.00     0.002 A 
ATOM     19  C   UNL d   1     -44.950  13.258  22.198  0.00  0.00     0.002 A 
ENDBRANCH   1  11
TORSDOF 4
ENDMDL
MODEL 5
REMARK VINA RESULT:      -5.3      1.373      2.389
REMARK  4 active torsions:
REMARK  status: ('A' for Active; 'I' for Inactive)
REMARK    1  A    between atoms: C_8  and  C_2 
REMARK    2  A    between atoms: O_6  and  C_8 
REMARK    3  A    between atoms: C_7  and  O_6 
REMARK    4  A    between atoms: O_10  and  C_9 
ROOT
ATOM      1  C   UNL d   1     -46.508  12.713  23.046  0.00  0.00     0.161 C 
ENDROOT
BRANCH   1   2
ATOM      2  O   UNL d   1     -45.770  12.626  22.873  0.00  0.00    -0.300 OA
BRANCH   2   3
ATOM      3  C   UNL d   1     -45.365  11.900  23.051  0.00  0.00     0.122 A 
ATOM      4  C   UNL d   1     -44.621  11.782  22.785  0.00  0.00     0.117 A 
ATOM      5  C   UNL d   1     -44.235  11.070  22.965  0.00  0.00     0.026 A 
ATOM      6  C   UNL d   1     -44.622  10.496  23.413  0.00  0.00     0.002 A 
ATOM      7  C   UNL d   1     -45.408  10.613  23.698  0.00  0.00     0.002 A 
ATOM      8  C   UNL d   1     -45.776  11.343  23.501  0.00  0.00     0.027 A 
BRANCH   4   9
ATOM      9  O   UNL d   1     -44.235  12.353  22.339  0.00  0.00    -0.326 OA
ATOM     10  C   UNL d   1     -43.478  12.242  22.093  0.00  0.00     0.181 C 
ENDBRANCH   4   9
ENDBRANCH   2   3
ENDBRANCH   1   2
BRANCH   1  11
ATOM     11  C   UNL d   1     -46.853  13.428  22.923  0.00  0.00     0.188 A 
ATOM     12  N   UNL d   1     -46.898  14.240  22.797  0.00  0.00    -0.224 NA
ATOM     13  C   UNL d   1     -47.674  14.454  22.733  0.00  0.00     0.101 A 
ATOM     14  C   UNL d   1     -48.131  13.773  22.819  0.00  0.00     0.101 A 
ATOM     15  C   UNL d   1     -48.057  15.156  22.609  0.00  0.00     0.021 A 
ATOM     16  C   UNL d   1     -48.954  13.819  22.778  0.00  0.00     0.021 A 
ATOM     17  N   UNL d   1     -47.629  13.150  22.934  0.00  0.00    -0.224 NA
ATOM     18  C   UNL d   1     -49.319  14.549  22.652  0.00  0.00     0.002 A 
ATOM     19  C   UNL d   1     -48.862  15.230  22.566  0.00  0.00     0.002 A 
ENDBRANCH   1  11
TORSDOF 4
ENDMDL
MODEL 6
REMARK VINA RESULT:      -5.2      8.434     10.363
REMARK  4 active torsions:
REMARK  status: ('A' for Active; 'I' for Inactive)
REMARK    1  A    between atoms: C_8  and  C_2 
REMARK    2  A    between atoms: O_6  and  C_8 
REMARK    3  A    between atoms: C_7  and  O_6 
REMARK    4  A    between atoms: O_10  and  C_9 
ROOT
ATOM      1  C   UNL d   1     -39.751  14.525  18.732  0.00  0.00     0.161 C 
ENDROOT
BRANCH   1   2
ATOM      2  O   UNL d   1     -39.778  14.335  19.470  0.00  0.00    -0.300 OA
BRANCH   2   3
ATOM      3  C   UNL d   1     -40.172  14.836  20.033  0.00  0.00     0.122 A 
ATOM      4  C   UNL d   1     -40.038  14.741  20.815  0.00  0.00     0.117 A 
ATOM      5  C   UNL d   1     -40.427  15.236  21.355  0.00  0.00     0.026 A 
ATOM      6  C   UNL d   1     -40.945  15.816  21.080  0.00  0.00     0.002 A 
ATOM      7  C   UNL d   1     -41.092  15.922  20.255  0.00  0.00     0.002 A 
ATOM      8  C   UNL d   1     -40.685  15.408  19.730  0.00  0.00     0.027 A 
BRANCH   4   9
ATOM      9  O   UNL d   1     -39.522  14.164  21.089  0.00  0.00    -0.326 OA
ATOM     10  C   UNL d   1     -39.430  14.034  21.877  0.00  0.00     0.181 C 
ENDBRANCH   4   9
ENDBRANCH   2   3
ENDBRANCH   1   2
BRANCH   1  11
ATOM     11  C   UNL d   1     -39.343  14.052  18.225  0.00  0.00     0.188 A 
ATOM     12  N   UNL d   1     -38.961  13.375  17.957  0.00  0.00    -0.224 NA
ATOM     13  C   UNL d   1     -38.682  13.507  17.211  0.00  0.00     0.101 A 
ATOM     14  C   UNL d   1     -38.887  14.277  16.999  0.00  0.00     0.101 A 
ATOM     15  C   UNL d   1     -38.272  13.061  16.675  0.00  0.00     0.021 A 
ATOM     16  C   UNL d   1     -38.674  14.573  16.259  0.00  0.00     0.021 A 
ATOM     17  N   UNL d   1     -39.289  14.606  17.618  0.00  0.00    -0.224 NA
ATOM     18  C   UNL d   1     -38.255  14.096  15.730  0.00  0.00     0.002 A 
ATOM     19  C   UNL d   1     -38.050  13.326  15.942  0.00  0.00     0.002 A 
ENDBRANCH   1  11
TORSDOF 4
ENDMDL
MODEL 7
REMARK VINA RESULT:      -5.1      8.261     10.059
REMARK  4 active torsions:
REMARK  status: ('A' for Active; 'I' for Inactive)
REMARK    1  A    between atoms: C_8  and  C_2 
REMARK    2  A    between atoms: O_6  and  C_8 
REMARK    3  A    between atoms: C_7  and  O_6 
REMARK    4  A    between atoms: O_10  and  C_9 
ROOT
ATOM      1  C   UNL d   1     -39.686  14.338  18.291  0.00  0.00     0.161 C 
ENDROOT
BRANCH   1   2
ATOM      2  O   UNL d   1     -39.497  14.574  17.591  0.00  0.00    -0.300 OA
BRANCH   2   3
ATOM      3  C   UNL d   1     -38.960  14.121  17.111  0.00  0.00     0.122 A 
ATOM      4  C   UNL d   1     -38.567  14.473  16.511  0.00  0.00     0.117 A 
ATOM      5  C   UNL d   1     -38.046  14.022  16.049  0.00  0.00     0.026 A 
ATOM      6  C   UNL d   1     -37.942  13.220  16.214  0.00  0.00     0.002 A 
ATOM      7  C   UNL d   1     -38.354  12.841  16.847  0.00  0.00     0.002 A 
ATOM      8  C   UNL d   1     -38.875  13.321  17.298  0.00  0.00     0.027 A 
BRANCH   4   9
ATOM      9  O   UNL d   1     -38.671  15.270  16.347  0.00  0.00    -0.326 OA
ATOM     10  C   UNL d   1     -38.205  15.645  15.810  0.00  0.00     0.181 C 
ENDBRANCH   4   9
ENDBRANCH   2   3
ENDBRANCH   1   2
BRANCH   1  11
ATOM     11  C   UNL d   1     -40.146  14.813  18.748  0.00  0.00     0.188 A 
ATOM     12  N   UNL d   1     -40.708  15.388  18.924  0.00  0.00    -0.224 NA
ATOM     13  C   UNL d   1     -40.770  15.460  19.726  0.00  0.00     0.101 A 
ATOM     14  C   UNL d   1     -40.242  14.926  20.068  0.00  0.00     0.101 A 
ATOM     15  C   UNL d   1     -41.216  15.922  20.218  0.00  0.00     0.021 A 
ATOM     16  C   UNL d   1     -40.181  14.873  20.889  0.00  0.00     0.021 A 
ATOM     17  N   UNL d   1     -39.865  14.534  19.470  0.00  0.00    -0.224 NA
ATOM     18  C   UNL d   1     -40.649  15.356  21.368  0.00  0.00     0.002 A 
ATOM     19  C   UNL d   1     -41.176  15.890  21.026  0.00  0.00     0.002 A 
ENDBRANCH   1  11
TORSDOF 4
ENDMDL
MODEL 8
REMARK VINA RESULT:      -5.1      9.131     10.210
REMARK  4 active torsions:
REMARK  status: ('A' for Active; 'I' for Inactive)
REMARK    1  A    between atoms: C_8  and  C_2 
REMARK    2  A    between atoms: O_6  and  C_8 
REMARK    3  A    between atoms: C_7  and  O_6 
REMARK    4  A    between atoms: O_10  and  C_9 
ROOT
ATOM      1  C   UNL d   1     -39.511  14.476  19.334  0.00  0.00     0.161 C 
ENDROOT
BRANCH   1   2
ATOM      2  O   UNL d   1     -39.341  14.435  18.592  0.00  0.00    -0.300 OA
BRANCH   2   3
ATOM      3  C   UNL d   1     -39.840  14.803  18.011  0.00  0.00     0.122 A 
ATOM      4  C   UNL d   1     -39.645  14.768  17.237  0.00  0.00     0.117 A 
ATOM      5  C   UNL d   1     -40.139  15.132  16.678  0.00  0.00     0.026 A 
ATOM      6  C   UNL d   1     -40.822  15.522  16.927  0.00  0.00     0.002 A 
ATOM      7  C   UNL d   1     -41.035  15.563  17.744  0.00  0.00     0.002 A 
ATOM      8  C   UNL d   1     -40.517  15.187  18.288  0.00  0.00     0.027 A 
BRANCH   4   9
ATOM      9  O   UNL d   1     -38.966  14.380  16.989  0.00  0.00    -0.326 OA
ATOM     10  C   UNL d   1     -38.753  14.377  16.214  0.00  0.00     0.181 C 
ENDBRANCH   4   9
ENDBRANCH   2   3
ENDBRANCH   1   2
BRANCH   1  11
ATOM     11  C   UNL d   1     -39.024  14.119  19.864  0.00  0.00     0.188 A 
ATOM     12  N   UNL d   1     -38.362  13.713  20.136  0.00  0.00    -0.224 NA
ATOM     13  C   UNL d   1     -38.426  13.608  20.934  0.00  0.00     0.101 A 
ATOM     14  C   UNL d   1     -39.136  13.951  21.176  0.00  0.00     0.101 A 
ATOM     15  C   UNL d   1     -37.961  13.257  21.496  0.00  0.00     0.021 A 
ATOM     16  C   UNL d   1     -39.354  13.931  21.972  0.00  0.00     0.021 A 
ATOM     17  N   UNL d   1     -39.497  14.261  20.524  0.00  0.00    -0.224 NA
ATOM     18  C   UNL d   1     -38.861  13.567  22.525  0.00  0.00     0.002 A 
ATOM     19  C   UNL d   1     -38.151  13.224  22.283  0.00  0.00     0.002 A 
ENDBRANCH   1  11
TORSDOF 4
ENDMDL
MODEL 9
REMARK VINA RESULT:      -5.0      9.128      9.400
REMARK  4 active torsions:
REMARK  status: ('A' for Active; 'I' for Inactive)
REMARK    1  A    between atoms: C_8  and  C_2 
REMARK    2  A    between atoms: O_6  and  C_8 
REMARK    3  A    between atoms: C_7  and  O_6 
REMARK    4  A    between atoms: O_10  and  C_9 
ROOT
ATOM      1  C   UNL d   1     -39.539  14.561  20.413  0.00  0.00     0.161 C 
ENDROOT
BRANCH   1   2
ATOM      2  O   UNL d   1     -39.376  14.888  21.083  0.00  0.00    -0.300 OA
BRANCH   2   3
ATOM      3  C   UNL d   1     -39.019  14.437  21.710  0.00  0.00     0.122 A 
ATOM      4  C   UNL d   1     -38.903  14.772  22.426  0.00  0.00     0.117 A 
ATOM      5  C   UNL d   1     -38.555  14.324  23.031  0.00  0.00     0.026 A 
ATOM      6  C   UNL d   1     -38.334  13.542  22.886  0.00  0.00     0.002 A 
ATOM      7  C   UNL d   1     -38.454  13.182  22.132  0.00  0.00     0.002 A 
ATOM      8  C   UNL d   1     -38.808  13.658  21.538  0.00  0.00     0.027 A 
BRANCH   4   9
ATOM      9  O   UNL d   1     -39.123  15.550  22.570  0.00  0.00    -0.326 OA
ATOM     10  C   UNL d   1     -38.914  15.917  23.254  0.00  0.00     0.181 C 
ENDBRANCH   4   9
ENDBRANCH   2   3
ENDBRANCH   1   2
BRANCH   1  11
ATOM     11  C   UNL d   1     -39.879  15.007  19.838  0.00  0.00     0.188 A 
ATOM     12  N   UNL d   1     -40.217  15.672  19.490  0.00  0.00    -0.224 NA
ATOM     13  C   UNL d   1     -40.413  15.499  18.726  0.00  0.00     0.101 A 
ATOM     14  C   UNL d   1     -40.198  14.716  18.582  0.00  0.00     0.101 A 
ATOM     15  C   UNL d   1     -40.753  15.917  18.122  0.00  0.00     0.021 A 
ATOM     16  C   UNL d   1     -40.331  14.380  17.841  0.00  0.00     0.021 A 
ATOM     17  N   UNL d   1     -39.874  14.419  19.261  0.00  0.00    -0.224 NA
ATOM     18  C   UNL d   1     -40.680  14.828  17.242  0.00  0.00     0.002 A 
ATOM     19  C   UNL d   1     -40.895  15.612  17.385  0.00  0.00     0.002 A 
ENDBRANCH   1  11
TORSDOF 4
ENDMDL
