MODEL 1
REMARK VINA RESULT:      -8.0      0.000      0.000
REMARK  2 active torsions:
REMARK  status: ('A' for Active; 'I' for Inactive)
REMARK    1  A    between atoms: N_2  and  S_1 
REMARK    2  A    between atoms: C_3  and  S_1 
ROOT
ATOM      1  S   UNL d   1     -48.409  13.294  22.721  0.00  0.00     0.287 S 
ATOM      2  O   UNL d   1     -48.587  13.535  21.953  0.00  0.00    -0.198 OA
ATOM      3  O   UNL d   1     -49.019  13.251  23.291  0.00  0.00    -0.198 OA
ENDROOT
BRANCH   1   4
ATOM      4  N   UNL d   1     -47.627  13.094  22.932  0.00  0.00    -0.152 N 
ATOM      5  N   UNL d   1     -47.451  12.322  23.201  0.00  0.00    -0.155 NA
ATOM      6  C   UNL d   1     -46.667  12.121  23.412  0.00  0.00     0.104 A 
ATOM      7  C   UNL d   1     -46.290  11.420  23.698  0.00  0.00     0.022 C 
ATOM      8  C   UNL d   1     -46.239  13.452  23.087  0.00  0.00     0.041 A 
ATOM      9  C   UNL d   1     -47.022  13.652  22.876  0.00  0.00     0.096 A 
ATOM     10  C   UNL d   1     -47.198  14.424  22.607  0.00  0.00     0.022 C 
ENDBRANCH   1   4
BRANCH   1  11
ATOM     11  C   UNL d   1     -49.547  13.586  22.415  0.00  0.00     0.117 A 
ATOM     12  C   UNL d   1     -49.863  14.273  22.585  0.00  0.00     0.025 A 
ATOM     13  C   UNL d   1     -50.599  14.426  22.372  0.00  0.00     0.059 A 
ATOM     14 CL   UNL d   1     -50.943  15.171  22.555  0.00  0.00    -0.082 Cl
ATOM     15  C   UNL d   1     -51.005  13.883  21.991  0.00  0.00     0.012 A 
ATOM     16  C   UNL d   1     -50.690  13.195  21.821  0.00  0.00     0.013 A 
ATOM     17  C   UNL d   1     -49.955  13.045  22.035  0.00  0.00     0.070 A 
ATOM     18 CL   UNL d   1     -49.613  12.306  21.854  0.00  0.00    -0.082 Cl
ENDBRANCH   1  11
TORSDOF 2
ENDMDL
MODEL 2
REMARK VINA RESULT:      -7.9      1.227      1.784
REMARK  2 active torsions:
REMARK  status: ('A' for Active; 'I' for Inactive)
REMARK    1  A    between atoms: N_2  and  S_1 
REMARK    2  A    between atoms: C_3  and  S_1 
ROOT
ATOM      1  S   UNL d   1     -47.931  13.632  22.858  0.00  0.00     0.287 S 
ATOM      2  O   UNL d   1     -48.137  14.109  23.499  0.00  0.00    -0.198 OA
ATOM      3  O   UNL d   1     -48.457  13.558  22.213  0.00  0.00    -0.198 OA
ENDROOT
BRANCH   1   4
ATOM      4  N   UNL d   1     -47.202  13.224  22.851  0.00  0.00    -0.152 N 
ATOM      5  N   UNL d   1     -46.552  13.538  22.429  0.00  0.00    -0.155 NA
ATOM      6  C   UNL d   1     -45.823  13.129  22.422  0.00  0.00     0.104 A 
ATOM      7  C   UNL d   1     -45.067  13.269  22.069  0.00  0.00     0.022 C 
ATOM      8  C   UNL d   1     -46.388  12.104  23.252  0.00  0.00     0.041 A 
ATOM      9  C   UNL d   1     -47.118  12.512  23.259  0.00  0.00     0.096 A 
ATOM     10  C   UNL d   1     -47.768  12.199  23.681  0.00  0.00     0.022 C 
ENDBRANCH   1   4
BRANCH   1  11
ATOM     11  C   UNL d   1     -48.990  14.225  22.868  0.00  0.00     0.117 A 
ATOM     12  C   UNL d   1     -49.651  13.897  23.104  0.00  0.00     0.025 A 
ATOM     13  C   UNL d   1     -50.315  14.309  23.097  0.00  0.00     0.059 A 
ATOM     14 CL   UNL d   1     -51.033  13.954  23.352  0.00  0.00    -0.082 Cl
ATOM     15  C   UNL d   1     -50.301  15.047  22.852  0.00  0.00     0.012 A 
ATOM     16  C   UNL d   1     -49.640  15.377  22.616  0.00  0.00     0.013 A 
ATOM     17  C   UNL d   1     -48.979  14.962  22.624  0.00  0.00     0.070 A 
ATOM     18 CL   UNL d   1     -48.266  15.314  22.371  0.00  0.00    -0.082 Cl
ENDBRANCH   1  11
TORSDOF 2
ENDMDL
