MODEL 1
REMARK VINA RESULT:     -10.2      0.000      0.000
REMARK  4 active torsions:
REMARK  status: ('A' for Active; 'I' for Inactive)
REMARK    1  A    between atoms: C_4  and  N_1 
REMARK    2  A    between atoms: C_8  and  C_2 
REMARK    3  A    between atoms: C_13  and  C_6 
REMARK    4  A    between atoms: C_7  and  C_8 
ROOT
ATOM      1  N   UNL d   1      53.597  33.851  54.130  0.00  0.00    -0.255 N 
ATOM      2  C   UNL d   1      53.572  32.709  53.444  0.00  0.00     0.101 A 
ATOM      3  C   UNL d   1      54.348  33.496  54.197  0.00  0.00     0.305 A 
ATOM      4  C   UNL d   1      54.332  32.785  53.770  0.00  0.00     0.256 A 
ATOM      5  C   UNL d   1      53.131  33.360  53.667  0.00  0.00     0.075 A 
ATOM      6  O   UNL d   1      54.994  33.796  54.613  0.00  0.00    -0.263 OA
ATOM      7  O   UNL d   1      54.960  32.263  53.692  0.00  0.00    -0.281 OA
ENDROOT
BRANCH   2   8
ATOM      8  C   UNL d   1      53.321  32.075  52.977  0.00  0.00     0.223 C 
ATOM      9  O   UNL d   1      53.134  32.203  52.183  0.00  0.00    -0.284 OA
BRANCH   8  10
ATOM     10  C   UNL d   1      53.256  31.323  53.289  0.00  0.00     0.139 A 
ATOM     11  O   UNL d   1      53.393  31.109  54.074  0.00  0.00    -0.304 OA
ATOM     12  C   UNL d   1      53.263  30.297  54.145  0.00  0.00     0.100 A 
ATOM     13  C   UNL d   1      53.313  29.783  54.782  0.00  0.00     0.025 A 
ATOM     14  C   UNL d   1      53.047  30.011  53.401  0.00  0.00     0.025 A 
ATOM     15  C   UNL d   1      53.150  28.993  54.686  0.00  0.00     0.002 A 
ATOM     16  C   UNL d   1      52.933  28.701  53.944  0.00  0.00     0.000 A 
ATOM     17  C   UNL d   1      52.882  29.213  53.301  0.00  0.00     0.002 A 
ATOM     18  C   UNL d   1      53.043  30.643  52.874  0.00  0.00     0.030 A 
ENDBRANCH   8  10
ENDBRANCH   2   8
BRANCH   5  19
ATOM     19  C   UNL d   1      52.341  33.497  53.458  0.00  0.00     0.017 A 
ATOM     20  C   UNL d   1      52.169  33.868  52.754  0.00  0.00     0.013 A 
ATOM     21  C   UNL d   1      51.380  34.008  52.540  0.00  0.00     0.058 A 
ATOM     22 CL   UNL d   1      51.202  34.384  51.827  0.00  0.00    -0.082 Cl
ATOM     23  C   UNL d   1      50.772  33.769  53.044  0.00  0.00     0.011 A 
ATOM     24  C   UNL d   1      50.949  33.393  53.757  0.00  0.00     0.001 A 
ATOM     25  C   UNL d   1      51.739  33.259  53.959  0.00  0.00     0.002 A 
ENDBRANCH   5  19
BRANCH   1  26
ATOM     26  C   UNL d   1      53.377  34.562  54.470  0.00  0.00     0.179 A 
ATOM     27  N   UNL d   1      53.028  34.650  55.217  0.00  0.00    -0.108 NA
ATOM     28  O   UNL d   1      52.897  35.451  55.341  0.00  0.00    -0.210 OA
ATOM     29  C   UNL d   1      53.165  35.860  54.671  0.00  0.00     0.128 A 
ATOM     30  C   UNL d   1      53.460  35.307  54.136  0.00  0.00     0.067 A 
ATOM     31  C   UNL d   1      53.140  36.678  54.560  0.00  0.00     0.029 C 
ENDBRANCH   1  26
TORSDOF 4
ENDMDL
MODEL 2
REMARK VINA RESULT:      -9.0      1.542      2.424
REMARK  4 active torsions:
REMARK  status: ('A' for Active; 'I' for Inactive)
REMARK    1  A    between atoms: C_4  and  N_1 
REMARK    2  A    between atoms: C_8  and  C_2 
REMARK    3  A    between atoms: C_13  and  C_6 
REMARK    4  A    between atoms: C_7  and  C_8 
ROOT
ATOM      1  N   UNL d   1      52.853  33.365  53.381  0.00  0.00    -0.255 N 
ATOM      2  C   UNL d   1      53.386  32.152  53.246  0.00  0.00     0.101 A 
ATOM      3  C   UNL d   1      52.304  32.888  52.975  0.00  0.00     0.305 A 
ATOM      4  C   UNL d   1      52.636  32.133  52.891  0.00  0.00     0.256 A 
ATOM      5  C   UNL d   1      53.512  32.903  53.541  0.00  0.00     0.075 A 
ATOM      6  O   UNL d   1      51.561  33.123  52.704  0.00  0.00    -0.263 OA
ATOM      7  O   UNL d   1      52.277  31.494  52.522  0.00  0.00    -0.281 OA
ENDROOT
BRANCH   2   8
ATOM      8  C   UNL d   1      53.905  31.509  53.284  0.00  0.00     0.223 C 
ATOM      9  O   UNL d   1      54.623  31.539  52.878  0.00  0.00    -0.284 OA
BRANCH   8  10
ATOM     10  C   UNL d   1      53.717  30.843  53.718  0.00  0.00     0.139 A 
ATOM     11  O   UNL d   1      53.482  30.829  54.510  0.00  0.00    -0.304 OA
ATOM     12  C   UNL d   1      53.349  30.044  54.724  0.00  0.00     0.100 A 
ATOM     13  C   UNL d   1      53.110  29.695  55.427  0.00  0.00     0.025 A 
ATOM     14  C   UNL d   1      53.503  29.573  54.063  0.00  0.00     0.025 A 
ATOM     15  C   UNL d   1      53.023  28.889  55.477  0.00  0.00     0.002 A 
ATOM     16  C   UNL d   1      53.176  28.413  54.820  0.00  0.00     0.000 A 
ATOM     17  C   UNL d   1      53.417  28.758  54.111  0.00  0.00     0.002 A 
ATOM     18  C   UNL d   1      53.730  30.066  53.444  0.00  0.00     0.030 A 
ENDBRANCH   8  10
ENDBRANCH   2   8
BRANCH   5  19
ATOM     19  C   UNL d   1      54.195  33.153  53.938  0.00  0.00     0.017 A 
ATOM     20  C   UNL d   1      54.206  33.172  54.752  0.00  0.00     0.013 A 
ATOM     21  C   UNL d   1      54.887  33.422  55.153  0.00  0.00     0.058 A 
ATOM     22 CL   UNL d   1      54.901  33.442  55.979  0.00  0.00    -0.082 Cl
ATOM     23  C   UNL d   1      55.553  33.651  54.723  0.00  0.00     0.011 A 
ATOM     24  C   UNL d   1      55.540  33.631  53.898  0.00  0.00     0.001 A 
ATOM     25  C   UNL d   1      54.855  33.380  53.509  0.00  0.00     0.002 A 
ENDBRANCH   5  19
BRANCH   1  26
ATOM     26  C   UNL d   1      52.744  34.151  53.578  0.00  0.00     0.179 A 
ATOM     27  N   UNL d   1      52.963  34.800  53.110  0.00  0.00    -0.108 NA
ATOM     28  O   UNL d   1      52.755  35.484  53.514  0.00  0.00    -0.210 OA
ATOM     29  C   UNL d   1      52.407  35.260  54.233  0.00  0.00     0.128 A 
ATOM     30  C   UNL d   1      52.403  34.436  54.268  0.00  0.00     0.067 A 
ATOM     31  C   UNL d   1      52.116  35.773  54.811  0.00  0.00     0.029 C 
ENDBRANCH   1  26
TORSDOF 4
ENDMDL
