MODEL 1
REMARK VINA RESULT:      39.0      0.000      0.000
REMARK  5 active torsions:
REMARK  status: ('A' for Active; 'I' for Inactive)
REMARK    1  A    between atoms: N_4  and  C_1 
REMARK    2  A    between atoms: C_8  and  C_3 
REMARK       I    between atoms: C_7  and  N_4 
REMARK    3  A    between atoms: C_11  and  C_7 
REMARK    4  A    between atoms: C_12  and  C_11 
REMARK    5  A    between atoms: O_18  and  C_13 
ROOT
ATOM      1  N   UNL d   1      13.656  13.148  -4.300  0.00  0.00    -0.183 NA
ATOM      2  C   UNL d   1      13.295  13.887  -4.357  0.00  0.00     0.281 C 
ATOM      3  O   UNL d   1      12.827  14.165  -3.729  0.00  0.00    -0.265 OA
ENDROOT
BRANCH   1   4
ATOM      4  C   UNL d   1      13.551  12.689  -3.619  0.00  0.00     0.197 A 
ATOM      5  N   UNL d   1      13.973  12.755  -2.926  0.00  0.00    -0.221 NA
ATOM      6  C   UNL d   1      13.689  12.194  -2.394  0.00  0.00     0.090 A 
ATOM      7  C   UNL d   1      13.083  11.779  -2.772  0.00  0.00     0.058 A 
ATOM      8  S   UNL d   1      13.003  12.096  -3.538  0.00  0.00    -0.046 SA
BRANCH   6   9
ATOM      9  C   UNL d   1      13.954  12.070  -1.639  0.00  0.00     0.021 A 
ATOM     10  C   UNL d   1      14.765  12.110  -1.483  0.00  0.00     0.022 A 
ATOM     11  C   UNL d   1      15.037  11.984  -0.710  0.00  0.00     0.099 A 
ATOM     12  N   UNL d   1      14.495  11.819  -0.107  0.00  0.00    -0.242 NA
ATOM     13  C   UNL d   1      13.695  11.779  -0.262  0.00  0.00     0.099 A 
ATOM     14  C   UNL d   1      13.415  11.905  -1.035  0.00  0.00     0.022 A 
ENDBRANCH   6   9
ENDBRANCH   1   4
BRANCH   2  15
ATOM     15  C   UNL d   1      13.397  14.349  -5.032  0.00  0.00     0.063 C 
BRANCH  15  16
ATOM     16  C   UNL d   1      13.835  15.042  -4.988  0.00  0.00     0.005 A 
ATOM     17  C   UNL d   1      13.907  15.445  -4.259  0.00  0.00     0.002 A 
ATOM     18  C   UNL d   1      14.347  16.138  -4.223  0.00  0.00     0.024 A 
ATOM     19  C   UNL d   1      14.714  16.438  -4.889  0.00  0.00     0.094 A 
ATOM     20  C   UNL d   1      14.641  16.035  -5.617  0.00  0.00     0.024 A 
ATOM     21  C   UNL d   1      14.203  15.342  -5.662  0.00  0.00     0.002 A 
BRANCH  19  22
ATOM     22  O   UNL d   1      15.156  17.133  -4.855  0.00  0.00    -0.328 OA
ATOM     23  C   UNL d   1      15.391  17.451  -4.139  0.00  0.00     0.181 C 
ENDBRANCH  19  22
ENDBRANCH  15  16
ENDBRANCH   2  15
TORSDOF 5
ENDMDL
