MODEL 1
REMARK VINA RESULT:      31.8      0.000      0.000
REMARK  2 active torsions:
REMARK  status: ('A' for Active; 'I' for Inactive)
REMARK    1  A    between atoms: C_7  and  C_1 
REMARK    2  A    between atoms: O_19  and  C_15 
ROOT
ATOM      1  C   UNL d   1     -51.544  25.486  33.385  0.00  0.00     0.064 A 
ATOM      2  C   UNL d   1     -51.748  26.294  33.348  0.00  0.00     0.199 A 
ATOM      3  C   UNL d   1     -51.159  26.875  33.355  0.00  0.00     0.062 A 
ATOM      4  C   UNL d   1     -50.739  25.263  33.428  0.00  0.00     0.126 A 
ATOM      5  C   UNL d   1     -50.354  26.649  33.398  0.00  0.00     0.106 A 
ATOM      6  O   UNL d   1     -50.144  25.851  33.434  0.00  0.00    -0.305 OA
ATOM      7  C   UNL d   1     -51.361  27.670  33.319  0.00  0.00     0.009 A 
ATOM      8  C   UNL d   1     -49.766  27.229  33.404  0.00  0.00     0.067 A 
ATOM      9  O   UNL d   1     -52.542  26.514  33.306  0.00  0.00    -0.286 OA
ATOM     10  C   UNL d   1     -49.980  28.026  33.368  0.00  0.00     0.198 A 
ATOM     11  C   UNL d   1     -50.774  28.246  33.325  0.00  0.00     0.042 A 
ATOM     12  O   UNL d   1     -49.393  28.604  33.374  0.00  0.00    -0.286 OA
ENDROOT
BRANCH   1  13
ATOM     13  C   UNL d   1     -52.131  24.914  33.378  0.00  0.00     0.005 A 
ATOM     14  C   UNL d   1     -51.924  24.118  33.317  0.00  0.00     0.002 A 
ATOM     15  C   UNL d   1     -52.516  23.545  33.310  0.00  0.00     0.024 A 
ATOM     16  C   UNL d   1     -53.311  23.761  33.365  0.00  0.00     0.094 A 
ATOM     17  C   UNL d   1     -53.512  24.567  33.427  0.00  0.00     0.024 A 
ATOM     18  C   UNL d   1     -52.921  25.140  33.433  0.00  0.00     0.002 A 
BRANCH  16  19
ATOM     19  O   UNL d   1     -53.902  23.189  33.359  0.00  0.00    -0.328 OA
ATOM     20  C   UNL d   1     -54.633  23.345  33.712  0.00  0.00     0.181 C 
ENDBRANCH  16  19
ENDBRANCH   1  13
TORSDOF 2
ENDMDL
MODEL 2
REMARK VINA RESULT:      32.6      0.847      4.333
REMARK  2 active torsions:
REMARK  status: ('A' for Active; 'I' for Inactive)
REMARK    1  A    between atoms: C_7  and  C_1 
REMARK    2  A    between atoms: O_19  and  C_15 
ROOT
ATOM      1  C   UNL d   1     -51.445  25.612  33.409  0.00  0.00     0.064 A 
ATOM      2  C   UNL d   1     -51.482  24.779  33.396  0.00  0.00     0.199 A 
ATOM      3  C   UNL d   1     -52.214  24.392  33.378  0.00  0.00     0.062 A 
ATOM      4  C   UNL d   1     -52.154  26.058  33.403  0.00  0.00     0.126 A 
ATOM      5  C   UNL d   1     -52.920  24.842  33.373  0.00  0.00     0.106 A 
ATOM      6  O   UNL d   1     -52.893  25.667  33.385  0.00  0.00    -0.305 OA
ATOM      7  C   UNL d   1     -52.248  23.572  33.366  0.00  0.00     0.009 A 
ATOM      8  C   UNL d   1     -53.650  24.456  33.355  0.00  0.00     0.067 A 
ATOM      9  O   UNL d   1     -50.784  24.339  33.401  0.00  0.00    -0.286 OA
ATOM     10  C   UNL d   1     -53.674  23.629  33.343  0.00  0.00     0.198 A 
ATOM     11  C   UNL d   1     -52.976  23.190  33.348  0.00  0.00     0.042 A 
ATOM     12  O   UNL d   1     -54.402  23.246  33.325  0.00  0.00    -0.286 OA
ENDROOT
BRANCH   1  13
ATOM     13  C   UNL d   1     -50.719  25.991  33.426  0.00  0.00     0.005 A 
ATOM     14  C   UNL d   1     -50.028  25.554  33.315  0.00  0.00     0.002 A 
ATOM     15  C   UNL d   1     -49.300  25.937  33.333  0.00  0.00     0.024 A 
ATOM     16  C   UNL d   1     -49.255  26.751  33.462  0.00  0.00     0.094 A 
ATOM     17  C   UNL d   1     -49.958  27.185  33.573  0.00  0.00     0.024 A 
ATOM     18  C   UNL d   1     -50.686  26.803  33.555  0.00  0.00     0.002 A 
BRANCH  16  19
ATOM     19  O   UNL d   1     -48.527  27.134  33.480  0.00  0.00    -0.328 OA
ATOM     20  C   UNL d   1     -48.365  27.688  34.072  0.00  0.00     0.181 C 
ENDBRANCH  16  19
ENDBRANCH   1  13
TORSDOF 2
ENDMDL
MODEL 3
REMARK VINA RESULT:      33.4      1.156      4.225
REMARK  2 active torsions:
REMARK  status: ('A' for Active; 'I' for Inactive)
REMARK    1  A    between atoms: C_7  and  C_1 
REMARK    2  A    between atoms: O_19  and  C_15 
ROOT
ATOM      1  C   UNL d   1     -51.759  24.444  33.352  0.00  0.00     0.064 A 
ATOM      2  C   UNL d   1     -52.482  24.859  33.332  0.00  0.00     0.199 A 
ATOM      3  C   UNL d   1     -53.201  24.448  33.330  0.00  0.00     0.062 A 
ATOM      4  C   UNL d   1     -51.761  23.607  33.370  0.00  0.00     0.126 A 
ATOM      5  C   UNL d   1     -53.199  23.611  33.348  0.00  0.00     0.106 A 
ATOM      6  O   UNL d   1     -52.487  23.192  33.368  0.00  0.00    -0.305 OA
ATOM      7  C   UNL d   1     -53.911  24.858  33.310  0.00  0.00     0.009 A 
ATOM      8  C   UNL d   1     -53.916  23.201  33.345  0.00  0.00     0.067 A 
ATOM      9  O   UNL d   1     -52.480  25.684  33.314  0.00  0.00    -0.286 OA
ATOM     10  C   UNL d   1     -54.627  23.623  33.325  0.00  0.00     0.198 A 
ATOM     11  C   UNL d   1     -54.624  24.448  33.307  0.00  0.00     0.042 A 
ATOM     12  O   UNL d   1     -55.341  23.213  33.323  0.00  0.00    -0.286 OA
ENDROOT
BRANCH   1  13
ATOM     13  C   UNL d   1     -51.050  24.855  33.354  0.00  0.00     0.005 A 
ATOM     14  C   UNL d   1     -50.337  24.439  33.342  0.00  0.00     0.002 A 
ATOM     15  C   UNL d   1     -49.626  24.855  33.344  0.00  0.00     0.024 A 
ATOM     16  C   UNL d   1     -49.621  25.681  33.358  0.00  0.00     0.094 A 
ATOM     17  C   UNL d   1     -50.345  26.093  33.370  0.00  0.00     0.024 A 
ATOM     18  C   UNL d   1     -51.056  25.678  33.368  0.00  0.00     0.002 A 
BRANCH  16  19
ATOM     19  O   UNL d   1     -48.911  26.096  33.361  0.00  0.00    -0.328 OA
ATOM     20  C   UNL d   1     -48.915  26.923  33.354  0.00  0.00     0.181 C 
ENDBRANCH  16  19
ENDBRANCH   1  13
TORSDOF 2
ENDMDL
MODEL 4
REMARK VINA RESULT:      34.7      0.884      4.226
REMARK  2 active torsions:
REMARK  status: ('A' for Active; 'I' for Inactive)
REMARK    1  A    between atoms: C_7  and  C_1 
REMARK    2  A    between atoms: O_19  and  C_15 
ROOT
ATOM      1  C   UNL d   1     -51.133  25.271  33.453  0.00  0.00     0.064 A 
ATOM      2  C   UNL d   1     -51.938  25.493  33.458  0.00  0.00     0.199 A 
ATOM      3  C   UNL d   1     -52.531  24.917  33.421  0.00  0.00     0.062 A 
ATOM      4  C   UNL d   1     -50.927  24.461  33.409  0.00  0.00     0.126 A 
ATOM      5  C   UNL d   1     -52.320  24.108  33.377  0.00  0.00     0.106 A 
ATOM      6  O   UNL d   1     -51.527  23.879  33.371  0.00  0.00    -0.305 OA
ATOM      7  C   UNL d   1     -53.321  25.137  33.427  0.00  0.00     0.009 A 
ATOM      8  C   UNL d   1     -52.913  23.533  33.340  0.00  0.00     0.067 A 
ATOM      9  O   UNL d   1     -52.141  26.291  33.502  0.00  0.00    -0.286 OA
ATOM     10  C   UNL d   1     -53.706  23.765  33.347  0.00  0.00     0.198 A 
ATOM     11  C   UNL d   1     -53.910  24.563  33.390  0.00  0.00     0.042 A 
ATOM     12  O   UNL d   1     -54.296  23.191  33.309  0.00  0.00    -0.286 OA
ENDROOT
BRANCH   1  13
ATOM     13  C   UNL d   1     -50.549  25.845  33.490  0.00  0.00     0.005 A 
ATOM     14  C   UNL d   1     -50.757  26.642  33.445  0.00  0.00     0.002 A 
ATOM     15  C   UNL d   1     -50.167  27.216  33.482  0.00  0.00     0.024 A 
ATOM     16  C   UNL d   1     -49.374  27.001  33.564  0.00  0.00     0.094 A 
ATOM     17  C   UNL d   1     -49.174  26.194  33.609  0.00  0.00     0.024 A 
ATOM     18  C   UNL d   1     -49.762  25.619  33.571  0.00  0.00     0.002 A 
BRANCH  16  19
ATOM     19  O   UNL d   1     -48.786  27.575  33.602  0.00  0.00    -0.328 OA
ATOM     20  C   UNL d   1     -48.695  28.030  34.286  0.00  0.00     0.181 C 
ENDBRANCH  16  19
ENDBRANCH   1  13
TORSDOF 2
ENDMDL
