MODEL 1
REMARK VINA RESULT:      -7.6      0.000      0.000
REMARK  6 active torsions:
REMARK  status: ('A' for Active; 'I' for Inactive)
REMARK    1  A    between atoms: C_4  and  C_1 
REMARK    2  A    between atoms: C_7  and  C_4 
REMARK    3  A    between atoms: N_10  and  C_7 
REMARK    4  A    between atoms: C_11  and  N_10 
REMARK    5  A    between atoms: O_14  and  C_12 
REMARK    6  A    between atoms: C_19  and  O_14 
ROOT
ATOM      1  C   UNL d   1      51.656  34.083  52.761  0.00  0.00     0.122 C 
ATOM      2  C   UNL d   1      52.117  34.719  53.007  0.00  0.00     0.106 C 
ATOM      3  N   UNL d   1      52.578  35.355  53.254  0.00  0.00    -0.191 NA
ENDROOT
BRANCH   1   4
ATOM      4  C   UNL d   1      50.947  34.218  52.360  0.00  0.00     0.159 A 
ATOM      5  N   UNL d   1      50.829  34.160  51.544  0.00  0.00    -0.226 NA
ATOM      6  C   UNL d   1      50.045  34.339  51.387  0.00  0.00     0.099 A 
ATOM      7  C   UNL d   1      49.612  34.372  50.680  0.00  0.00     0.021 A 
ATOM      8  C   UNL d   1      49.673  34.509  52.104  0.00  0.00     0.083 A 
ATOM      9  C   UNL d   1      48.810  34.575  50.700  0.00  0.00     0.002 A 
ATOM     10  C   UNL d   1      48.438  34.744  51.415  0.00  0.00     0.002 A 
ATOM     11  C   UNL d   1      48.863  34.712  52.119  0.00  0.00     0.019 A 
ATOM     12  N   UNL d   1      50.225  34.435  52.706  0.00  0.00    -0.287 N 
ATOM     13  C   UNL d   1      50.096  34.553  53.517  0.00  0.00     0.101 C 
ENDBRANCH   1   4
BRANCH   1  14
ATOM     14  C   UNL d   1      51.903  33.313  52.914  0.00  0.00     0.112 C 
BRANCH  14  15
ATOM     15  N   UNL d   1      52.671  33.171  53.178  0.00  0.00    -0.241 NA
BRANCH  15  16
ATOM     16  C   UNL d   1      52.932  32.393  53.292  0.00  0.00     0.104 A 
ATOM     17  C   UNL d   1      53.545  32.230  53.819  0.00  0.00     0.118 A 
ATOM     18  C   UNL d   1      53.802  31.455  53.930  0.00  0.00     0.026 A 
ATOM     19  C   UNL d   1      53.442  30.839  53.509  0.00  0.00     0.002 A 
ATOM     20  C   UNL d   1      52.820  31.001  52.973  0.00  0.00     0.002 A 
ATOM     21  C   UNL d   1      52.570  31.783  52.870  0.00  0.00     0.021 A 
BRANCH  17  22
ATOM     22  O   UNL d   1      53.898  32.843  54.233  0.00  0.00    -0.304 OA
BRANCH  22  23
ATOM     23  C   UNL d   1      54.378  32.674  54.882  0.00  0.00     0.123 C 
ATOM     24  C   UNL d   1      54.730  33.281  55.307  0.00  0.00     0.029 C 
ENDBRANCH  22  23
ENDBRANCH  17  22
ENDBRANCH  15  16
ENDBRANCH  14  15
ENDBRANCH   1  14
TORSDOF 6
ENDMDL
MODEL 2
REMARK VINA RESULT:      -7.3      1.721      4.775
REMARK  6 active torsions:
REMARK  status: ('A' for Active; 'I' for Inactive)
REMARK    1  A    between atoms: C_4  and  C_1 
REMARK    2  A    between atoms: C_7  and  C_4 
REMARK    3  A    between atoms: N_10  and  C_7 
REMARK    4  A    between atoms: C_11  and  N_10 
REMARK    5  A    between atoms: O_14  and  C_12 
REMARK    6  A    between atoms: C_19  and  O_14 
ROOT
ATOM      1  C   UNL d   1      53.506  31.959  53.441  0.00  0.00     0.122 C 
ATOM      2  C   UNL d   1      54.249  32.295  53.332  0.00  0.00     0.106 C 
ATOM      3  N   UNL d   1      54.994  32.631  53.222  0.00  0.00    -0.191 NA
ENDROOT
BRANCH   1   4
ATOM      4  C   UNL d   1      53.439  31.192  53.736  0.00  0.00     0.159 A 
ATOM      5  N   UNL d   1      53.495  30.968  54.530  0.00  0.00    -0.226 NA
ATOM      6  C   UNL d   1      53.394  30.156  54.573  0.00  0.00     0.099 A 
ATOM      7  C   UNL d   1      53.395  29.627  55.213  0.00  0.00     0.021 A 
ATOM      8  C   UNL d   1      53.276  29.872  53.807  0.00  0.00     0.083 A 
ATOM      9  C   UNL d   1      53.276  28.819  55.077  0.00  0.00     0.002 A 
ATOM     10  C   UNL d   1      53.157  28.536  54.313  0.00  0.00     0.002 A 
ATOM     11  C   UNL d   1      53.156  29.056  53.675  0.00  0.00     0.019 A 
ATOM     12  N   UNL d   1      53.302  30.507  53.289  0.00  0.00    -0.287 N 
ATOM     13  C   UNL d   1      53.210  30.481  52.464  0.00  0.00     0.101 C 
ENDBRANCH   1   4
BRANCH   1  14
ATOM     14  C   UNL d   1      52.830  32.391  53.256  0.00  0.00     0.112 C 
BRANCH  14  15
ATOM     15  N   UNL d   1      52.785  33.192  53.447  0.00  0.00    -0.241 NA
BRANCH  15  16
ATOM     16  C   UNL d   1      52.089  33.614  53.300  0.00  0.00     0.104 A 
ATOM     17  C   UNL d   1      52.025  34.406  53.520  0.00  0.00     0.118 A 
ATOM     18  C   UNL d   1      51.330  34.823  53.372  0.00  0.00     0.026 A 
ATOM     19  C   UNL d   1      50.694  34.444  53.001  0.00  0.00     0.002 A 
ATOM     20  C   UNL d   1      50.755  33.640  52.776  0.00  0.00     0.002 A 
ATOM     21  C   UNL d   1      51.458  33.231  52.929  0.00  0.00     0.021 A 
BRANCH  17  22
ATOM     22  O   UNL d   1      52.657  34.777  53.887  0.00  0.00    -0.304 OA
BRANCH  22  23
ATOM     23  C   UNL d   1      52.539  35.497  54.273  0.00  0.00     0.123 C 
ATOM     24  C   UNL d   1      53.163  35.871  54.652  0.00  0.00     0.029 C 
ENDBRANCH  22  23
ENDBRANCH  17  22
ENDBRANCH  15  16
ENDBRANCH  14  15
ENDBRANCH   1  14
TORSDOF 6
ENDMDL
MODEL 3
REMARK VINA RESULT:      -6.6      1.474      4.672
REMARK  6 active torsions:
REMARK  status: ('A' for Active; 'I' for Inactive)
REMARK    1  A    between atoms: C_4  and  C_1 
REMARK    2  A    between atoms: C_7  and  C_4 
REMARK    3  A    between atoms: N_10  and  C_7 
REMARK    4  A    between atoms: C_11  and  N_10 
REMARK    5  A    between atoms: O_14  and  C_12 
REMARK    6  A    between atoms: C_19  and  O_14 
ROOT
ATOM      1  C   UNL d   1      51.655  33.995  53.025  0.00  0.00     0.122 C 
ATOM      2  C   UNL d   1      51.854  34.594  53.552  0.00  0.00     0.106 C 
ATOM      3  N   UNL d   1      52.052  35.194  54.081  0.00  0.00    -0.191 NA
ENDROOT
BRANCH   1   4
ATOM      4  C   UNL d   1      52.035  33.263  53.069  0.00  0.00     0.159 A 
ATOM      5  N   UNL d   1      51.671  32.532  53.194  0.00  0.00    -0.226 NA
ATOM      6  C   UNL d   1      52.253  31.955  53.197  0.00  0.00     0.099 A 
ATOM      7  C   UNL d   1      52.221  31.131  53.297  0.00  0.00     0.021 A 
ATOM      8  C   UNL d   1      52.980  32.325  53.075  0.00  0.00     0.083 A 
ATOM      9  C   UNL d   1      52.919  30.688  53.272  0.00  0.00     0.002 A 
ATOM     10  C   UNL d   1      53.646  31.058  53.150  0.00  0.00     0.002 A 
ATOM     11  C   UNL d   1      53.682  31.874  53.051  0.00  0.00     0.019 A 
ATOM     12  N   UNL d   1      52.849  33.131  52.995  0.00  0.00    -0.287 N 
ATOM     13  C   UNL d   1      53.423  33.717  52.864  0.00  0.00     0.101 C 
ENDBRANCH   1   4
BRANCH   1  14
ATOM     14  C   UNL d   1      51.078  34.126  52.453  0.00  0.00     0.112 C 
BRANCH  14  15
ATOM     15  N   UNL d   1      50.365  34.485  52.661  0.00  0.00    -0.241 NA
BRANCH  15  16
ATOM     16  C   UNL d   1      49.766  34.572  52.096  0.00  0.00     0.104 A 
ATOM     17  C   UNL d   1      49.067  34.967  52.285  0.00  0.00     0.118 A 
ATOM     18  C   UNL d   1      48.473  35.052  51.721  0.00  0.00     0.026 A 
ATOM     19  C   UNL d   1      48.579  34.738  50.962  0.00  0.00     0.002 A 
ATOM     20  C   UNL d   1      49.287  34.337  50.766  0.00  0.00     0.002 A 
ATOM     21  C   UNL d   1      49.878  34.257  51.341  0.00  0.00     0.021 A 
BRANCH  17  22
ATOM     22  O   UNL d   1      48.966  35.275  53.037  0.00  0.00    -0.304 OA
BRANCH  22  23
ATOM     23  C   UNL d   1      48.301  35.734  53.205  0.00  0.00     0.123 C 
ATOM     24  C   UNL d   1      48.212  36.082  53.943  0.00  0.00     0.029 C 
ENDBRANCH  22  23
ENDBRANCH  17  22
ENDBRANCH  15  16
ENDBRANCH  14  15
ENDBRANCH   1  14
TORSDOF 6
ENDMDL
MODEL 4
REMARK VINA RESULT:      -6.3      2.243      5.468
REMARK  6 active torsions:
REMARK  status: ('A' for Active; 'I' for Inactive)
REMARK    1  A    between atoms: C_4  and  C_1 
REMARK    2  A    between atoms: C_7  and  C_4 
REMARK    3  A    between atoms: N_10  and  C_7 
REMARK    4  A    between atoms: C_11  and  N_10 
REMARK    5  A    between atoms: O_14  and  C_12 
REMARK    6  A    between atoms: C_19  and  O_14 
ROOT
ATOM      1  C   UNL d   1      50.060  34.583  52.574  0.00  0.00     0.122 C 
ATOM      2  C   UNL d   1      49.911  34.385  51.789  0.00  0.00     0.106 C 
ATOM      3  N   UNL d   1      49.762  34.187  51.004  0.00  0.00    -0.191 NA
ENDROOT
BRANCH   1   4
ATOM      4  C   UNL d   1      50.801  34.434  52.904  0.00  0.00     0.159 A 
ATOM      5  N   UNL d   1      51.422  34.975  52.974  0.00  0.00    -0.226 NA
ATOM      6  C   UNL d   1      52.053  34.594  53.334  0.00  0.00     0.099 A 
ATOM      7  C   UNL d   1      52.813  34.852  53.546  0.00  0.00     0.021 A 
ATOM      8  C   UNL d   1      51.827  33.816  53.489  0.00  0.00     0.083 A 
ATOM      9  C   UNL d   1      53.337  34.326  53.910  0.00  0.00     0.002 A 
ATOM     10  C   UNL d   1      53.112  33.548  54.064  0.00  0.00     0.002 A 
ATOM     11  C   UNL d   1      52.359  33.288  53.856  0.00  0.00     0.019 A 
ATOM     12  N   UNL d   1      51.056  33.713  53.225  0.00  0.00    -0.287 N 
ATOM     13  C   UNL d   1      50.604  33.018  53.267  0.00  0.00     0.101 C 
ENDBRANCH   1   4
BRANCH   1  14
ATOM     14  C   UNL d   1      49.469  34.931  53.029  0.00  0.00     0.112 C 
BRANCH  14  15
ATOM     15  N   UNL d   1      48.848  35.332  52.663  0.00  0.00    -0.241 NA
BRANCH  15  16
ATOM     16  C   UNL d   1      48.324  35.785  53.116  0.00  0.00     0.104 A 
ATOM     17  C   UNL d   1      47.590  36.006  52.811  0.00  0.00     0.118 A 
ATOM     18  C   UNL d   1      47.072  36.458  53.265  0.00  0.00     0.026 A 
ATOM     19  C   UNL d   1      47.290  36.690  54.029  0.00  0.00     0.002 A 
ATOM     20  C   UNL d   1      48.034  36.468  54.342  0.00  0.00     0.002 A 
ATOM     21  C   UNL d   1      48.547  36.014  53.877  0.00  0.00     0.021 A 
BRANCH  17  22
ATOM     22  O   UNL d   1      47.379  35.774  52.054  0.00  0.00    -0.304 OA
BRANCH  22  23
ATOM     23  C   UNL d   1      46.628  35.958  51.766  0.00  0.00     0.123 C 
ATOM     24  C   UNL d   1      46.359  35.624  51.066  0.00  0.00     0.029 C 
ENDBRANCH  22  23
ENDBRANCH  17  22
ENDBRANCH  15  16
ENDBRANCH  14  15
ENDBRANCH   1  14
TORSDOF 6
ENDMDL
MODEL 5
REMARK VINA RESULT:      -5.7      1.640      2.890
REMARK  6 active torsions:
REMARK  status: ('A' for Active; 'I' for Inactive)
REMARK    1  A    between atoms: C_4  and  C_1 
REMARK    2  A    between atoms: C_7  and  C_4 
REMARK    3  A    between atoms: N_10  and  C_7 
REMARK    4  A    between atoms: C_11  and  N_10 
REMARK    5  A    between atoms: O_14  and  C_12 
REMARK    6  A    between atoms: C_19  and  O_14 
ROOT
ATOM      1  C   UNL d   1      53.382  32.512  53.987  0.00  0.00     0.122 C 
ATOM      2  C   UNL d   1      53.808  32.723  54.659  0.00  0.00     0.106 C 
ATOM      3  N   UNL d   1      54.236  32.933  55.331  0.00  0.00    -0.191 NA
ENDROOT
BRANCH   1   4
ATOM      4  C   UNL d   1      52.778  33.001  53.711  0.00  0.00     0.159 A 
ATOM      5  N   UNL d   1      51.971  32.914  53.864  0.00  0.00    -0.226 NA
ATOM      6  C   UNL d   1      51.572  33.519  53.483  0.00  0.00     0.099 A 
ATOM      7  C   UNL d   1      50.766  33.714  53.437  0.00  0.00     0.021 A 
ATOM      8  C   UNL d   1      52.128  33.985  53.091  0.00  0.00     0.083 A 
ATOM      9  C   UNL d   1      50.528  34.374  52.998  0.00  0.00     0.002 A 
ATOM     10  C   UNL d   1      51.085  34.840  52.607  0.00  0.00     0.002 A 
ATOM     11  C   UNL d   1      51.885  34.651  52.650  0.00  0.00     0.019 A 
ATOM     12  N   UNL d   1      52.873  33.669  53.230  0.00  0.00    -0.287 N 
ATOM     13  C   UNL d   1      53.597  33.959  52.944  0.00  0.00     0.101 C 
ENDBRANCH   1   4
BRANCH   1  14
ATOM     14  C   UNL d   1      53.559  31.812  53.591  0.00  0.00     0.112 C 
BRANCH  14  15
ATOM     15  N   UNL d   1      53.489  31.088  53.981  0.00  0.00    -0.241 NA
BRANCH  15  16
ATOM     16  C   UNL d   1      53.288  30.408  53.555  0.00  0.00     0.104 A 
ATOM     17  C   UNL d   1      53.202  29.683  53.940  0.00  0.00     0.118 A 
ATOM     18  C   UNL d   1      53.002  29.008  53.513  0.00  0.00     0.026 A 
ATOM     19  C   UNL d   1      52.886  29.058  52.695  0.00  0.00     0.002 A 
ATOM     20  C   UNL d   1      52.972  29.791  52.300  0.00  0.00     0.002 A 
ATOM     21  C   UNL d   1      53.174  30.464  52.739  0.00  0.00     0.021 A 
BRANCH  17  22
ATOM     22  O   UNL d   1      53.318  29.638  54.750  0.00  0.00    -0.304 OA
BRANCH  22  23
ATOM     23  C   UNL d   1      53.327  28.901  55.121  0.00  0.00     0.123 C 
ATOM     24  C   UNL d   1      53.341  28.849  55.939  0.00  0.00     0.029 C 
ENDBRANCH  22  23
ENDBRANCH  17  22
ENDBRANCH  15  16
ENDBRANCH  14  15
ENDBRANCH   1  14
TORSDOF 6
ENDMDL
MODEL 6
REMARK VINA RESULT:      -5.7      2.616      4.994
REMARK  6 active torsions:
REMARK  status: ('A' for Active; 'I' for Inactive)
REMARK    1  A    between atoms: C_4  and  C_1 
REMARK    2  A    between atoms: C_7  and  C_4 
REMARK    3  A    between atoms: N_10  and  C_7 
REMARK    4  A    between atoms: C_11  and  N_10 
REMARK    5  A    between atoms: O_14  and  C_12 
REMARK    6  A    between atoms: C_19  and  O_14 
ROOT
ATOM      1  C   UNL d   1      53.280  31.618  53.510  0.00  0.00     0.122 C 
ATOM      2  C   UNL d   1      52.705  31.807  52.952  0.00  0.00     0.106 C 
ATOM      3  N   UNL d   1      52.130  31.996  52.394  0.00  0.00    -0.191 NA
ENDROOT
BRANCH   1   4
ATOM      4  C   UNL d   1      53.303  30.862  53.840  0.00  0.00     0.159 A 
ATOM      5  N   UNL d   1      53.031  30.649  54.591  0.00  0.00    -0.226 NA
ATOM      6  C   UNL d   1      53.162  29.847  54.691  0.00  0.00     0.099 A 
ATOM      7  C   UNL d   1      53.006  29.331  55.323  0.00  0.00     0.021 A 
ATOM      8  C   UNL d   1      53.516  29.557  54.004  0.00  0.00     0.083 A 
ATOM      9  C   UNL d   1      53.206  28.531  55.257  0.00  0.00     0.002 A 
ATOM     10  C   UNL d   1      53.560  28.242  54.571  0.00  0.00     0.002 A 
ATOM     11  C   UNL d   1      53.717  28.749  53.943  0.00  0.00     0.019 A 
ATOM     12  N   UNL d   1      53.605  30.180  53.478  0.00  0.00    -0.287 N 
ATOM     13  C   UNL d   1      53.935  30.145  52.716  0.00  0.00     0.101 C 
ENDBRANCH   1   4
BRANCH   1  14
ATOM     14  C   UNL d   1      53.833  32.184  53.738  0.00  0.00     0.112 C 
BRANCH  14  15
ATOM     15  N   UNL d   1      53.582  32.936  53.967  0.00  0.00    -0.241 NA
BRANCH  15  16
ATOM     16  C   UNL d   1      54.090  33.426  54.400  0.00  0.00     0.104 A 
ATOM     17  C   UNL d   1      53.840  34.172  54.649  0.00  0.00     0.118 A 
ATOM     18  C   UNL d   1      54.348  34.657  55.080  0.00  0.00     0.026 A 
ATOM     19  C   UNL d   1      55.111  34.394  55.263  0.00  0.00     0.002 A 
ATOM     20  C   UNL d   1      55.368  33.638  55.012  0.00  0.00     0.002 A 
ATOM     21  C   UNL d   1      54.850  33.158  54.580  0.00  0.00     0.021 A 
BRANCH  17  22
ATOM     22  O   UNL d   1      53.084  34.428  54.465  0.00  0.00    -0.304 OA
BRANCH  22  23
ATOM     23  C   UNL d   1      52.907  35.233  54.498  0.00  0.00     0.123 C 
ATOM     24  C   UNL d   1      52.170  35.506  54.260  0.00  0.00     0.029 C 
ENDBRANCH  22  23
ENDBRANCH  17  22
ENDBRANCH  15  16
ENDBRANCH  14  15
ENDBRANCH   1  14
TORSDOF 6
ENDMDL
MODEL 7
REMARK VINA RESULT:      -5.5      1.253      2.374
REMARK  6 active torsions:
REMARK  status: ('A' for Active; 'I' for Inactive)
REMARK    1  A    between atoms: C_4  and  C_1 
REMARK    2  A    between atoms: C_7  and  C_4 
REMARK    3  A    between atoms: N_10  and  C_7 
REMARK    4  A    between atoms: C_11  and  N_10 
REMARK    5  A    between atoms: O_14  and  C_12 
REMARK    6  A    between atoms: C_19  and  O_14 
ROOT
ATOM      1  C   UNL d   1      50.663  34.017  53.028  0.00  0.00     0.122 C 
ATOM      2  C   UNL d   1      50.616  33.196  53.049  0.00  0.00     0.106 C 
ATOM      3  N   UNL d   1      50.569  32.374  53.070  0.00  0.00    -0.191 NA
ENDROOT
BRANCH   1   4
ATOM      4  C   UNL d   1      49.996  34.465  52.841  0.00  0.00     0.159 A 
ATOM      5  N   UNL d   1      49.539  34.905  53.371  0.00  0.00    -0.226 NA
ATOM      6  C   UNL d   1      48.933  35.261  52.951  0.00  0.00     0.099 A 
ATOM      7  C   UNL d   1      48.311  35.760  53.184  0.00  0.00     0.021 A 
ATOM      8  C   UNL d   1      49.009  35.044  52.159  0.00  0.00     0.083 A 
ATOM      9  C   UNL d   1      47.774  36.036  52.619  0.00  0.00     0.002 A 
ATOM     10  C   UNL d   1      47.850  35.820  51.827  0.00  0.00     0.002 A 
ATOM     11  C   UNL d   1      48.464  35.325  51.591  0.00  0.00     0.019 A 
ATOM     12  N   UNL d   1      49.663  34.554  52.087  0.00  0.00    -0.287 N 
ATOM     13  C   UNL d   1      49.948  34.204  51.390  0.00  0.00     0.101 C 
ENDBRANCH   1   4
BRANCH   1  14
ATOM     14  C   UNL d   1      51.378  34.392  53.193  0.00  0.00     0.112 C 
BRANCH  14  15
ATOM     15  N   UNL d   1      51.994  33.970  53.544  0.00  0.00    -0.241 NA
BRANCH  15  16
ATOM     16  C   UNL d   1      52.613  34.375  53.914  0.00  0.00     0.104 A 
ATOM     17  C   UNL d   1      53.249  33.961  54.238  0.00  0.00     0.118 A 
ATOM     18  C   UNL d   1      53.864  34.368  54.606  0.00  0.00     0.026 A 
ATOM     19  C   UNL d   1      53.843  35.194  54.649  0.00  0.00     0.002 A 
ATOM     20  C   UNL d   1      53.200  35.618  54.320  0.00  0.00     0.002 A 
ATOM     21  C   UNL d   1      52.587  35.199  53.953  0.00  0.00     0.021 A 
BRANCH  17  22
ATOM     22  O   UNL d   1      53.265  33.143  54.194  0.00  0.00    -0.304 OA
BRANCH  22  23
ATOM     23  C   UNL d   1      53.920  32.732  54.480  0.00  0.00     0.123 C 
ATOM     24  C   UNL d   1      53.964  31.916  54.403  0.00  0.00     0.029 C 
ENDBRANCH  22  23
ENDBRANCH  17  22
ENDBRANCH  15  16
ENDBRANCH  14  15
ENDBRANCH   1  14
TORSDOF 6
ENDMDL
MODEL 8
REMARK VINA RESULT:      -5.0      2.325      3.783
REMARK  6 active torsions:
REMARK  status: ('A' for Active; 'I' for Inactive)
REMARK    1  A    between atoms: C_4  and  C_1 
REMARK    2  A    between atoms: C_7  and  C_4 
REMARK    3  A    between atoms: N_10  and  C_7 
REMARK    4  A    between atoms: C_11  and  N_10 
REMARK    5  A    between atoms: O_14  and  C_12 
REMARK    6  A    between atoms: C_19  and  O_14 
ROOT
ATOM      1  C   UNL d   1      54.468  32.813  53.710  0.00  0.00     0.122 C 
ATOM      2  C   UNL d   1      55.185  32.884  53.314  0.00  0.00     0.106 C 
ATOM      3  N   UNL d   1      55.904  32.954  52.917  0.00  0.00    -0.191 NA
ENDROOT
BRANCH   1   4
ATOM      4  C   UNL d   1      54.082  33.486  53.991  0.00  0.00     0.159 A 
ATOM      5  N   UNL d   1      53.639  34.018  53.539  0.00  0.00    -0.226 NA
ATOM      6  C   UNL d   1      53.357  34.603  54.039  0.00  0.00     0.099 A 
ATOM      7  C   UNL d   1      52.887  35.274  53.903  0.00  0.00     0.021 A 
ATOM      8  C   UNL d   1      53.624  34.438  54.802  0.00  0.00     0.083 A 
ATOM      9  C   UNL d   1      52.691  35.771  54.534  0.00  0.00     0.002 A 
ATOM     10  C   UNL d   1      52.957  35.607  55.296  0.00  0.00     0.002 A 
ATOM     11  C   UNL d   1      53.423  34.943  55.436  0.00  0.00     0.019 A 
ATOM     12  N   UNL d   1      54.071  33.751  54.776  0.00  0.00    -0.287 N 
ATOM     13  C   UNL d   1      54.449  33.379  55.415  0.00  0.00     0.101 C 
ENDBRANCH   1   4
BRANCH   1  14
ATOM     14  C   UNL d   1      54.134  32.069  53.827  0.00  0.00     0.112 C 
BRANCH  14  15
ATOM     15  N   UNL d   1      53.690  31.717  53.228  0.00  0.00    -0.241 NA
BRANCH  15  16
ATOM     16  C   UNL d   1      53.357  30.969  53.345  0.00  0.00     0.104 A 
ATOM     17  C   UNL d   1      52.553  30.842  53.211  0.00  0.00     0.118 A 
ATOM     18  C   UNL d   1      52.225  30.096  53.329  0.00  0.00     0.026 A 
ATOM     19  C   UNL d   1      52.705  29.471  53.584  0.00  0.00     0.002 A 
ATOM     20  C   UNL d   1      53.522  29.596  53.721  0.00  0.00     0.002 A 
ATOM     21  C   UNL d   1      53.841  30.350  53.599  0.00  0.00     0.021 A 
BRANCH  17  22
ATOM     22  O   UNL d   1      52.082  31.463  52.959  0.00  0.00    -0.304 OA
BRANCH  22  23
ATOM     23  C   UNL d   1      51.288  31.490  53.183  0.00  0.00     0.123 C 
ATOM     24  C   UNL d   1      50.833  32.152  53.017  0.00  0.00     0.029 C 
ENDBRANCH  22  23
ENDBRANCH  17  22
ENDBRANCH  15  16
ENDBRANCH  14  15
ENDBRANCH   1  14
TORSDOF 6
ENDMDL
