MODEL 1
REMARK VINA RESULT:      77.4      0.000      0.000
REMARK  9 active torsions:
REMARK  status: ('A' for Active; 'I' for Inactive)
REMARK    1  A    between atoms: N_2  and  S_1 
REMARK    2  A    between atoms: C_12  and  S_1 
REMARK    3  A    between atoms: C_4  and  N_2 
REMARK    4  A    between atoms: N_6  and  C_8 
REMARK       I    between atoms: C_9  and  N_6 
REMARK    5  A    between atoms: O_22  and  C_7 
REMARK    6  A    between atoms: C_8  and  N_15 
REMARK    7  A    between atoms: C_16  and  C_9 
REMARK    8  A    between atoms: O_23  and  C_10 
REMARK    9  A    between atoms: N_15  and  C_21 
ROOT
ATOM      1  C   UNL d   1     -55.725-100.428 -43.002  0.00  0.00     0.105 A 
ATOM      2  C   UNL d   1     -55.348-101.048 -43.361  0.00  0.00     0.015 A 
ATOM      3  C   UNL d   1     -55.835-100.426 -42.189  0.00  0.00     0.015 A 
ATOM      4  C   UNL d   1     -55.183-101.681 -42.092  0.00  0.00     0.084 A 
ATOM      5  C   UNL d   1     -55.071-101.679 -42.932  0.00  0.00     0.020 A 
ATOM      6  C   UNL d   1     -55.565-101.048 -41.743  0.00  0.00     0.020 A 
ENDROOT
BRANCH   1   7
ATOM      7  S   UNL d   1     -56.007 -99.782 -43.450  0.00  0.00     0.287 S 
ATOM      8  O   UNL d   1     -56.654-100.255 -43.699  0.00  0.00    -0.198 OA
ATOM      9  O   UNL d   1     -55.371 -99.326 -43.200  0.00  0.00    -0.198 OA
BRANCH   7  10
ATOM     10  N   UNL d   1     -56.308 -99.152 -43.903  0.00  0.00    -0.139 NA
BRANCH  10  11
ATOM     11  C   UNL d   1     -57.080 -99.163 -44.206  0.00  0.00     0.182 A 
ATOM     12  N   UNL d   1     -57.692 -99.364 -43.735  0.00  0.00    -0.185 NA
ATOM     13  C   UNL d   1     -58.466 -99.379 -44.025  0.00  0.00     0.274 A 
ATOM     14  N   UNL d   1     -58.610 -99.190 -44.790  0.00  0.00    -0.181 NA
ATOM     15  C   UNL d   1     -58.003 -98.980 -45.295  0.00  0.00     0.185 A 
ATOM     16  C   UNL d   1     -57.196 -98.969 -44.979  0.00  0.00     0.084 A 
BRANCH  13  17
ATOM     17  O   UNL d   1     -59.114 -99.590 -43.529  0.00  0.00    -0.297 OA
ATOM     18  C   UNL d   1     -59.697 -99.046 -43.343  0.00  0.00     0.185 C 
ENDBRANCH  13  17
BRANCH  15  19
ATOM     19  O   UNL d   1     -58.186 -98.791 -46.078  0.00  0.00    -0.312 OA
ATOM     20  C   UNL d   1     -58.807 -99.177 -46.461  0.00  0.00     0.183 C 
ENDBRANCH  15  19
ENDBRANCH  10  11
ENDBRANCH   7  10
ENDBRANCH   1   7
BRANCH   4  21
ATOM     21  N   UNL d   1     -54.915-102.306 -41.620  0.00  0.00    -0.217 NA
BRANCH  21  22
ATOM     22  C   UNL d   1     -55.313-102.495 -40.944  0.00  0.00     0.223 C 
ATOM     23  S   UNL d   1     -56.066-102.853 -40.986  0.00  0.00    -0.037 SA
BRANCH  22  24
ATOM     24  N   UNL d   1     -54.977-102.335 -40.220  0.00  0.00    -0.183 NA
ATOM     25  C   UNL d   1     -55.439-102.237 -39.552  0.00  0.00     0.257 C 
ATOM     26  O   UNL d   1     -56.278-102.306 -39.621  0.00  0.00    -0.270 OA
BRANCH  25  27
ATOM     27  C   UNL d   1     -55.098-102.075 -38.818  0.00  0.00     0.073 C 
ATOM     28  C   UNL d   1     -55.307-101.270 -38.899  0.00  0.00     0.009 C 
ATOM     29  C   UNL d   1     -54.891-102.876 -38.737  0.00  0.00     0.009 C 
ATOM     30  C   UNL d   1     -54.755-101.911 -38.078  0.00  0.00     0.009 C 
ENDBRANCH  25  27
ENDBRANCH  22  24
ENDBRANCH  21  22
ENDBRANCH   4  21
TORSDOF 9
ENDMDL
