MODEL 1
REMARK VINA RESULT:      29.1      0.000      0.000
REMARK  5 active torsions:
REMARK  status: ('A' for Active; 'I' for Inactive)
REMARK    1  A    between atoms: N_9  and  S_1 
REMARK    2  A    between atoms: C_12  and  S_1 
REMARK    3  A    between atoms: C_6  and  C_15 
REMARK    4  A    between atoms: C_18  and  N_9 
REMARK       I    between atoms: C_16  and  N_17 
REMARK    5  A    between atoms: N_17  and  C_23 
ROOT
ATOM      1  C   UNL d   1      46.276 -18.478  43.311  0.00  0.00     0.021 A 
ATOM      2  C   UNL d   1      45.723 -17.880  44.496  0.00  0.00     0.094 A 
ATOM      3  C   UNL d   1      45.811 -17.891  43.676  0.00  0.00     0.021 A 
ATOM      4  C   UNL d   1      46.647 -19.047  43.775  0.00  0.00     0.002 A 
ATOM      5  C   UNL d   1      46.565 -19.044  44.590  0.00  0.00     0.002 A 
ATOM      6  C   UNL d   1      46.101 -18.457  44.955  0.00  0.00     0.020 A 
ENDROOT
BRANCH   2   7
ATOM      7  N   UNL d   1      45.265 -17.302  44.856  0.00  0.00    -0.158 NA
BRANCH   7   8
ATOM      8  S   UNL d   1      45.416 -16.509  44.705  0.00  0.00     0.285 S 
ATOM      9  O   UNL d   1      46.194 -16.617  44.954  0.00  0.00    -0.198 OA
ATOM     10  O   UNL d   1      44.638 -16.392  44.453  0.00  0.00    -0.198 OA
BRANCH   8  11
ATOM     11  C   UNL d   1      45.568 -15.707  44.551  0.00  0.00     0.105 A 
ATOM     12  C   UNL d   1      46.340 -15.474  44.380  0.00  0.00     0.015 A 
ATOM     13  C   UNL d   1      46.514 -14.674  44.223  0.00  0.00     0.020 A 
ATOM     14  C   UNL d   1      45.901 -14.113  44.241  0.00  0.00     0.085 A 
ATOM     15  C   UNL d   1      45.128 -14.347  44.412  0.00  0.00     0.020 A 
ATOM     16  C   UNL d   1      44.965 -15.152  44.568  0.00  0.00     0.015 A 
BRANCH  14  17
ATOM     17  N   UNL d   1      46.061 -13.335  44.090  0.00  0.00    -0.208 NA
ATOM     18  C   UNL d   1      45.537 -12.888  43.650  0.00  0.00     0.279 C 
ATOM     19  O   UNL d   1      44.845 -13.228  43.358  0.00  0.00    -0.265 OA
ATOM     20  C   UNL d   1      45.697 -12.106  43.497  0.00  0.00     0.068 C 
ENDBRANCH  14  17
ENDBRANCH   8  11
ENDBRANCH   7   8
ENDBRANCH   2   7
BRANCH   1  21
ATOM     21  C   UNL d   1      46.355 -18.477  42.488  0.00  0.00     0.102 A 
ATOM     22  N   UNL d   1      46.428 -19.209  42.097  0.00  0.00    -0.162 NA
ATOM     23  N   UNL d   1      46.508 -19.216  41.265  0.00  0.00    -0.189 N 
ATOM     24  C   UNL d   1      46.589 -19.834  40.737  0.00  0.00     0.224 A 
ATOM     25  C   UNL d   1      46.516 -18.503  40.834  0.00  0.00     0.187 A 
ATOM     26  N   UNL d   1      46.646 -19.522  39.987  0.00  0.00    -0.124 NA
ATOM     27  N   UNL d   1      46.600 -18.703  40.056  0.00  0.00    -0.127 NA
ATOM     28  C   UNL d   1      46.441 -17.780  41.249  0.00  0.00     0.042 A 
ATOM     29  C   UNL d   1      46.361 -17.774  42.075  0.00  0.00     0.024 A 
ENDBRANCH   1  21
TORSDOF 5
ENDMDL
