MODEL 1
REMARK VINA RESULT:      -2.1      0.000      0.000
REMARK  10 active torsions:
REMARK  status: ('A' for Active; 'I' for Inactive)
REMARK    1  A    between atoms: C_9  and  S_1 
REMARK    2  A    between atoms: N_20  and  S_1 
REMARK    3  A    between atoms: S_2  and  C_10 
REMARK    4  A    between atoms: N_19  and  S_2 
REMARK    5  A    between atoms: C_28  and  N_19 
REMARK    6  A    between atoms: C_29  and  N_20 
REMARK    7  A    between atoms: C_24  and  C_28 
REMARK    8  A    between atoms: C_30  and  C_24 
REMARK    9  A    between atoms: C_25  and  C_29 
REMARK   10  A    between atoms: C_31  and  C_25 
ROOT
ATOM      1  C   UNL d   1      32.359  22.197 -21.929  0.00  0.00     0.300 A 
ATOM      2  C   UNL d   1      32.644  21.982 -21.193  0.00  0.00     0.064 A 
ATOM      3  C   UNL d   1      32.649  20.894 -22.430  0.00  0.00     0.104 A 
ATOM      4  O   UNL d   1      32.360  21.656 -22.547  0.00  0.00    -0.273 OA
ATOM      5  C   UNL d   1      32.933  21.223 -21.073  0.00  0.00     0.007 A 
ATOM      6  C   UNL d   1      32.937  20.674 -21.690  0.00  0.00     0.023 A 
ATOM      7  C   UNL d   1      32.928  22.311 -19.836  0.00  0.00     0.105 A 
ATOM      8  C   UNL d   1      32.936  19.594 -22.939  0.00  0.00     0.107 A 
ATOM      9  C   UNL d   1      32.642  22.521 -20.579  0.00  0.00     0.018 A 
ATOM     10  C   UNL d   1      32.649  20.352 -23.054  0.00  0.00     0.038 A 
ATOM     11  C   UNL d   1      33.221  21.002 -20.333  0.00  0.00     0.001 A 
ATOM     12  C   UNL d   1      33.226  19.912 -21.573  0.00  0.00     0.003 A 
ATOM     13  O   UNL d   1      32.066  22.959 -22.057  0.00  0.00    -0.259 OA
ATOM     14  C   UNL d   1      33.220  21.543 -19.715  0.00  0.00     0.013 A 
ATOM     15  C   UNL d   1      33.226  19.370 -22.196  0.00  0.00     0.013 A 
ENDROOT
BRANCH   7  16
ATOM     16  S   UNL d   1      32.926  22.855 -19.216  0.00  0.00     0.285 S 
ATOM     17  O   UNL d   1      32.612  23.606 -19.334  0.00  0.00    -0.198 OA
ATOM     18  O   UNL d   1      33.241  22.643 -18.476  0.00  0.00    -0.198 OA
BRANCH  16  19
ATOM     19  N   UNL d   1      32.919  23.407 -18.602  0.00  0.00    -0.157 NA
BRANCH  19  20
ATOM     20  C   UNL d   1      33.095  23.172 -17.832  0.00  0.00     0.116 C 
BRANCH  20  21
ATOM     21  C   UNL d   1      32.705  23.524 -17.196  0.00  0.00     0.067 C 
BRANCH  21  22
ATOM     22  C   UNL d   1      33.110  23.668 -16.491  0.00  0.00     0.236 C 
ATOM     23  O   UNL d   1      32.718  23.585 -15.769  0.00  0.00    -0.283 OA
ENDBRANCH  21  22
ENDBRANCH  20  21
ENDBRANCH  19  20
ENDBRANCH  16  19
ENDBRANCH   7  16
BRANCH   8  24
ATOM     24  S   UNL d   1      32.939  19.047 -23.558  0.00  0.00     0.285 S 
ATOM     25  O   UNL d   1      33.202  19.273 -24.305  0.00  0.00    -0.198 OA
ATOM     26  O   UNL d   1      32.680  18.277 -23.426  0.00  0.00    -0.198 OA
BRANCH  24  27
ATOM     27  N   UNL d   1      32.939  18.494 -24.172  0.00  0.00    -0.157 NA
BRANCH  27  28
ATOM     28  C   UNL d   1      32.694  17.720 -24.031  0.00  0.00     0.116 C 
BRANCH  28  29
ATOM     29  C   UNL d   1      32.893  17.114 -24.554  0.00  0.00     0.067 C 
BRANCH  29  30
ATOM     30  C   UNL d   1      32.779  16.325 -24.345  0.00  0.00     0.236 C 
ATOM     31  O   UNL d   1      32.073  15.943 -24.539  0.00  0.00    -0.283 OA
ENDBRANCH  29  30
ENDBRANCH  28  29
ENDBRANCH  27  28
ENDBRANCH  24  27
ENDBRANCH   8  24
TORSDOF 10
ENDMDL
MODEL 2
REMARK VINA RESULT:       0.3      0.870      6.469
REMARK  10 active torsions:
REMARK  status: ('A' for Active; 'I' for Inactive)
REMARK    1  A    between atoms: C_9  and  S_1 
REMARK    2  A    between atoms: N_20  and  S_1 
REMARK    3  A    between atoms: S_2  and  C_10 
REMARK    4  A    between atoms: N_19  and  S_2 
REMARK    5  A    between atoms: C_28  and  N_19 
REMARK    6  A    between atoms: C_29  and  N_20 
REMARK    7  A    between atoms: C_24  and  C_28 
REMARK    8  A    between atoms: C_30  and  C_24 
REMARK    9  A    between atoms: C_25  and  C_29 
REMARK   10  A    between atoms: C_31  and  C_25 
ROOT
ATOM      1  C   UNL d   1      32.538  19.839 -21.315  0.00  0.00     0.300 A 
ATOM      2  C   UNL d   1      32.771  20.053 -22.069  0.00  0.00     0.064 A 
ATOM      3  C   UNL d   1      32.631  21.197 -20.893  0.00  0.00     0.104 A 
ATOM      4  O   UNL d   1      32.468  20.408 -20.727  0.00  0.00    -0.273 OA
ATOM      5  C   UNL d   1      32.935  20.840 -22.238  0.00  0.00     0.007 A 
ATOM      6  C   UNL d   1      32.866  21.418 -21.652  0.00  0.00     0.023 A 
ATOM      7  C   UNL d   1      33.075  19.695 -23.414  0.00  0.00     0.105 A 
ATOM      8  C   UNL d   1      32.721  22.554 -20.462  0.00  0.00     0.107 A 
ATOM      9  C   UNL d   1      32.841  19.487 -22.654  0.00  0.00     0.018 A 
ATOM     10  C   UNL d   1      32.559  21.768 -20.299  0.00  0.00     0.038 A 
ATOM     11  C   UNL d   1      33.170  21.060 -22.997  0.00  0.00     0.001 A 
ATOM     12  C   UNL d   1      33.030  22.207 -21.818  0.00  0.00     0.003 A 
ATOM     13  O   UNL d   1      32.372  19.050 -21.138  0.00  0.00    -0.259 OA
ATOM     14  C   UNL d   1      33.241  20.491 -23.585  0.00  0.00     0.013 A 
ATOM     15  C   UNL d   1      32.958  22.777 -21.224  0.00  0.00     0.013 A 
ENDROOT
BRANCH   7  16
ATOM     16  S   UNL d   1      33.146  19.123 -24.005  0.00  0.00     0.285 S 
ATOM     17  O   UNL d   1      33.203  19.356 -24.792  0.00  0.00    -0.198 OA
ATOM     18  O   UNL d   1      33.159  18.317 -23.802  0.00  0.00    -0.198 OA
BRANCH  16  19
ATOM     19  N   UNL d   1      33.217  18.559 -24.604  0.00  0.00    -0.157 NA
BRANCH  19  20
ATOM     20  C   UNL d   1      32.581  18.068 -24.786  0.00  0.00     0.116 C 
BRANCH  20  21
ATOM     21  C   UNL d   1      32.719  17.291 -25.031  0.00  0.00     0.067 C 
BRANCH  21  22
ATOM     22  C   UNL d   1      32.161  16.704 -24.872  0.00  0.00     0.236 C 
ATOM     23  O   UNL d   1      32.315  15.924 -25.096  0.00  0.00    -0.283 OA
ENDBRANCH  21  22
ENDBRANCH  20  21
ENDBRANCH  19  20
ENDBRANCH  16  19
ENDBRANCH   7  16
BRANCH   8  24
ATOM     24  S   UNL d   1      32.652  23.129 -19.874  0.00  0.00     0.285 S 
ATOM     25  O   UNL d   1      32.005  23.640 -19.872  0.00  0.00    -0.198 OA
ATOM     26  O   UNL d   1      33.228  23.191 -19.290  0.00  0.00    -0.198 OA
BRANCH  24  27
ATOM     27  N   UNL d   1      32.589  23.702 -19.282  0.00  0.00    -0.157 NA
BRANCH  27  28
ATOM     28  C   UNL d   1      33.080  23.669 -18.621  0.00  0.00     0.116 C 
BRANCH  28  29
ATOM     29  C   UNL d   1      32.876  23.208 -17.968  0.00  0.00     0.067 C 
BRANCH  29  30
ATOM     30  C   UNL d   1      32.757  23.555 -17.230  0.00  0.00     0.236 C 
ATOM     31  O   UNL d   1      33.179  23.284 -16.573  0.00  0.00    -0.283 OA
ENDBRANCH  29  30
ENDBRANCH  28  29
ENDBRANCH  27  28
ENDBRANCH  24  27
ENDBRANCH   8  24
TORSDOF 10
ENDMDL
