MODEL 1
REMARK VINA RESULT:      17.3      0.000      0.000
REMARK  5 active torsions:
REMARK  status: ('A' for Active; 'I' for Inactive)
REMARK    1  A    between atoms: C_10  and  N_1 
REMARK    2  A    between atoms: C_7  and  C_4 
REMARK    3  A    between atoms: O_16  and  C_9 
REMARK    4  A    between atoms: C_15  and  C_10 
REMARK    5  A    between atoms: O_17  and  C_11 
ROOT
ATOM      1  N   UNL d   1      45.700 -14.859  44.528  0.00  0.00    -0.193 N 
ATOM      2  N   UNL d   1      45.987 -15.618  44.372  0.00  0.00    -0.163 NA
ATOM      3  C   UNL d   1      44.934 -14.772  44.799  0.00  0.00     0.281 A 
ATOM      4  C   UNL d   1      45.503 -16.276  44.491  0.00  0.00     0.102 A 
ATOM      5  C   UNL d   1      44.444 -15.414  44.920  0.00  0.00     0.064 A 
ATOM      6  C   UNL d   1      44.731 -16.174  44.764  0.00  0.00     0.026 A 
ATOM      7  O   UNL d   1      44.647 -14.013  44.955  0.00  0.00    -0.265 OA
ENDROOT
BRANCH   4   8
ATOM      8  C   UNL d   1      45.786 -17.023  44.337  0.00  0.00     0.021 A 
ATOM      9  C   UNL d   1      45.971 -17.252  43.554  0.00  0.00     0.028 A 
ATOM     10  C   UNL d   1      46.255 -18.005  43.408  0.00  0.00     0.116 A 
ATOM     11  C   UNL d   1      46.360 -18.543  44.025  0.00  0.00     0.116 A 
ATOM     12  C   UNL d   1      46.176 -18.318  44.811  0.00  0.00     0.026 A 
ATOM     13  C   UNL d   1      45.891 -17.561  44.954  0.00  0.00     0.004 A 
BRANCH  10  14
ATOM     14  O   UNL d   1      46.437 -18.229  42.638  0.00  0.00    -0.326 OA
ATOM     15  C   UNL d   1      45.976 -17.971  42.008  0.00  0.00     0.181 C 
ENDBRANCH  10  14
BRANCH  11  16
ATOM     16  O   UNL d   1      46.647 -19.304  43.881  0.00  0.00    -0.326 OA
ATOM     17  C   UNL d   1      46.555 -19.886  44.459  0.00  0.00     0.181 C 
ENDBRANCH  11  16
ENDBRANCH   4   8
BRANCH   1  18
ATOM     18  C   UNL d   1      46.187 -14.209  44.409  0.00  0.00     0.104 C 
BRANCH  18  19
ATOM     19  C   UNL d   1      45.915 -13.577  43.966  0.00  0.00     0.019 A 
ATOM     20  C   UNL d   1      45.794 -13.662  43.154  0.00  0.00     0.002 A 
ATOM     21  C   UNL d   1      45.521 -13.027  42.709  0.00  0.00     0.000 A 
ATOM     22  C   UNL d   1      45.370 -12.302  43.089  0.00  0.00     0.000 A 
ATOM     23  C   UNL d   1      45.491 -12.218  43.897  0.00  0.00     0.000 A 
ATOM     24  C   UNL d   1      45.766 -12.862  44.337  0.00  0.00     0.002 A 
ENDBRANCH  18  19
ENDBRANCH   1  18
TORSDOF 5
ENDMDL
