MODEL 1
REMARK VINA RESULT:      -9.9      0.000      0.000
REMARK  4 active torsions:
REMARK  status: ('A' for Active; 'I' for Inactive)
REMARK    1  A    between atoms: N_4  and  S_1 
REMARK    2  A    between atoms: C_5  and  S_1 
REMARK    3  A    between atoms: C_3  and  C_9 
REMARK    4  A    between atoms: C_14  and  N_4 
ROOT
ATOM      1  S   UNL d   1      51.545  34.068  52.761  0.00  0.00     0.285 S 
ATOM      2  O   UNL d   1      51.710  34.618  52.172  0.00  0.00    -0.198 OA
ATOM      3  O   UNL d   1      51.179  33.565  53.305  0.00  0.00    -0.198 OA
ENDROOT
BRANCH   1   4
ATOM      4  N   UNL d   1      50.768  33.892  52.965  0.00  0.00    -0.158 NA
BRANCH   4   5
ATOM      5  C   UNL d   1      50.144  34.247  52.554  0.00  0.00     0.094 A 
ATOM      6  C   UNL d   1      49.619  34.751  52.948  0.00  0.00     0.021 A 
ATOM      7  C   UNL d   1      49.003  35.101  52.536  0.00  0.00     0.020 A 
ATOM      8  C   UNL d   1      48.903  34.952  51.726  0.00  0.00     0.002 A 
ATOM      9  C   UNL d   1      49.420  34.456  51.336  0.00  0.00     0.002 A 
ATOM     10  C   UNL d   1      50.045  34.099  51.744  0.00  0.00     0.020 A 
BRANCH   7  11
ATOM     11  C   UNL d   1      48.478  35.604  52.930  0.00  0.00     0.088 A 
ATOM     12  N   UNL d   1      47.931  35.657  54.249  0.00  0.00    -0.238 NA
ATOM     13  C   UNL d   1      47.500  36.345  54.043  0.00  0.00     0.111 A 
ATOM     14  C   UNL d   1      47.015  36.709  54.600  0.00  0.00     0.028 C 
ATOM     15  S   UNL d   1      47.556  36.664  53.282  0.00  0.00    -0.066 SA
ATOM     16  C   UNL d   1      48.049  36.288  52.725  0.00  0.00     0.056 A 
ENDBRANCH   7  11
ENDBRANCH   4   5
ENDBRANCH   1   4
BRANCH   1  17
ATOM     17  C   UNL d   1      52.169  33.691  53.149  0.00  0.00     0.105 A 
ATOM     18  C   UNL d   1      52.582  34.091  53.741  0.00  0.00     0.013 A 
ATOM     19  C   UNL d   1      53.211  33.708  54.130  0.00  0.00     0.001 A 
ATOM     20  C   UNL d   1      53.623  34.113  54.723  0.00  0.00     0.000 A 
ATOM     21  C   UNL d   1      53.418  32.939  53.925  0.00  0.00     0.000 A 
ATOM     22  C   UNL d   1      54.246  33.732  55.108  0.00  0.00     0.000 A 
ATOM     23  C   UNL d   1      54.455  32.961  54.904  0.00  0.00     0.000 A 
ATOM     24  C   UNL d   1      54.043  32.564  54.315  0.00  0.00     0.000 A 
ATOM     25  C   UNL d   1      53.001  32.548  53.334  0.00  0.00     0.001 A 
ATOM     26  C   UNL d   1      52.378  32.919  52.945  0.00  0.00     0.013 A 
ENDBRANCH   1  17
TORSDOF 4
ENDMDL
MODEL 2
REMARK VINA RESULT:      -9.6      1.419      5.467
REMARK  4 active torsions:
REMARK  status: ('A' for Active; 'I' for Inactive)
REMARK    1  A    between atoms: N_4  and  S_1 
REMARK    2  A    between atoms: C_5  and  S_1 
REMARK    3  A    between atoms: C_3  and  C_9 
REMARK    4  A    between atoms: C_14  and  N_4 
ROOT
ATOM      1  S   UNL d   1      50.330  34.229  52.776  0.00  0.00     0.285 S 
ATOM      2  O   UNL d   1      50.291  33.844  53.502  0.00  0.00    -0.198 OA
ATOM      3  O   UNL d   1      50.572  34.558  52.057  0.00  0.00    -0.198 OA
ENDROOT
BRANCH   1   4
ATOM      4  N   UNL d   1      51.039  34.272  52.361  0.00  0.00    -0.158 NA
BRANCH   4   5
ATOM      5  C   UNL d   1      51.751  34.102  52.746  0.00  0.00     0.094 A 
ATOM      6  C   UNL d   1      52.004  33.319  52.826  0.00  0.00     0.021 A 
ATOM      7  C   UNL d   1      52.711  33.156  53.209  0.00  0.00     0.020 A 
ATOM      8  C   UNL d   1      53.173  33.773  53.516  0.00  0.00     0.002 A 
ATOM      9  C   UNL d   1      52.925  34.546  53.437  0.00  0.00     0.002 A 
ATOM     10  C   UNL d   1      52.213  34.719  53.052  0.00  0.00     0.020 A 
BRANCH   7  11
ATOM     11  C   UNL d   1      52.964  32.373  53.290  0.00  0.00     0.088 A 
ATOM     12  N   UNL d   1      52.542  31.118  52.752  0.00  0.00    -0.238 NA
ATOM     13  C   UNL d   1      53.150  30.730  53.180  0.00  0.00     0.111 A 
ATOM     14  C   UNL d   1      53.238  29.914  53.123  0.00  0.00     0.028 C 
ATOM     15  S   UNL d   1      53.665  31.161  53.663  0.00  0.00    -0.066 SA
ATOM     16  C   UNL d   1      53.568  31.988  53.715  0.00  0.00     0.056 A 
ENDBRANCH   7  11
ENDBRANCH   4   5
ENDBRANCH   1   4
BRANCH   1  17
ATOM     17  C   UNL d   1      49.648  34.574  52.464  0.00  0.00     0.105 A 
ATOM     18  C   UNL d   1      49.229  35.126  52.912  0.00  0.00     0.013 A 
ATOM     19  C   UNL d   1      48.541  35.473  52.594  0.00  0.00     0.001 A 
ATOM     20  C   UNL d   1      48.123  36.026  53.047  0.00  0.00     0.000 A 
ATOM     21  C   UNL d   1      48.283  35.266  51.841  0.00  0.00     0.000 A 
ATOM     22  C   UNL d   1      47.443  36.368  52.732  0.00  0.00     0.000 A 
ATOM     23  C   UNL d   1      47.182  36.163  51.976  0.00  0.00     0.000 A 
ATOM     24  C   UNL d   1      47.600  35.614  51.532  0.00  0.00     0.000 A 
ATOM     25  C   UNL d   1      48.707  34.716  51.401  0.00  0.00     0.001 A 
ATOM     26  C   UNL d   1      49.387  34.369  51.708  0.00  0.00     0.013 A 
ENDBRANCH   1  17
TORSDOF 4
ENDMDL
MODEL 3
REMARK VINA RESULT:      -8.9      1.450      5.360
REMARK  4 active torsions:
REMARK  status: ('A' for Active; 'I' for Inactive)
REMARK    1  A    between atoms: N_4  and  S_1 
REMARK    2  A    between atoms: C_5  and  S_1 
REMARK    3  A    between atoms: C_3  and  C_9 
REMARK    4  A    between atoms: C_14  and  N_4 
ROOT
ATOM      1  S   UNL d   1      50.891  34.055  52.623  0.00  0.00     0.285 S 
ATOM      2  O   UNL d   1      51.525  34.274  52.147  0.00  0.00    -0.198 OA
ATOM      3  O   UNL d   1      50.395  33.699  53.180  0.00  0.00    -0.198 OA
ENDROOT
BRANCH   1   4
ATOM      4  N   UNL d   1      50.973  33.460  53.185  0.00  0.00    -0.158 NA
BRANCH   4   5
ATOM      5  C   UNL d   1      51.646  32.980  53.179  0.00  0.00     0.094 A 
ATOM      6  C   UNL d   1      52.338  33.227  53.560  0.00  0.00     0.021 A 
ATOM      7  C   UNL d   1      53.002  32.747  53.550  0.00  0.00     0.020 A 
ATOM      8  C   UNL d   1      52.985  32.014  53.161  0.00  0.00     0.002 A 
ATOM      9  C   UNL d   1      52.303  31.769  52.785  0.00  0.00     0.002 A 
ATOM     10  C   UNL d   1      51.629  32.247  52.790  0.00  0.00     0.020 A 
BRANCH   7  11
ATOM     11  C   UNL d   1      53.694  32.994  53.931  0.00  0.00     0.088 A 
ATOM     12  N   UNL d   1      53.983  33.661  55.161  0.00  0.00    -0.238 NA
ATOM     13  C   UNL d   1      54.802  33.625  54.988  0.00  0.00     0.111 A 
ATOM     14  C   UNL d   1      55.349  33.940  55.517  0.00  0.00     0.028 C 
ATOM     15  S   UNL d   1      55.070  33.275  54.288  0.00  0.00    -0.066 SA
ATOM     16  C   UNL d   1      54.508  32.958  53.759  0.00  0.00     0.056 A 
ENDBRANCH   7  11
ENDBRANCH   4   5
ENDBRANCH   1   4
BRANCH   1  17
ATOM     17  C   UNL d   1      50.165  34.439  52.533  0.00  0.00     0.105 A 
ATOM     18  C   UNL d   1      49.749  34.362  51.825  0.00  0.00     0.013 A 
ATOM     19  C   UNL d   1      49.017  34.751  51.737  0.00  0.00     0.001 A 
ATOM     20  C   UNL d   1      48.602  34.671  51.025  0.00  0.00     0.000 A 
ATOM     21  C   UNL d   1      48.714  35.208  52.350  0.00  0.00     0.000 A 
ATOM     22  C   UNL d   1      47.878  35.057  50.939  0.00  0.00     0.000 A 
ATOM     23  C   UNL d   1      47.572  35.515  51.553  0.00  0.00     0.000 A 
ATOM     24  C   UNL d   1      47.988  35.591  52.256  0.00  0.00     0.000 A 
ATOM     25  C   UNL d   1      49.136  35.279  53.053  0.00  0.00     0.001 A 
ATOM     26  C   UNL d   1      49.860  34.898  53.147  0.00  0.00     0.013 A 
ENDBRANCH   1  17
TORSDOF 4
ENDMDL
MODEL 4
REMARK VINA RESULT:      -8.4      2.191      3.298
REMARK  4 active torsions:
REMARK  status: ('A' for Active; 'I' for Inactive)
REMARK    1  A    between atoms: N_4  and  S_1 
REMARK    2  A    between atoms: C_5  and  S_1 
REMARK    3  A    between atoms: C_3  and  C_9 
REMARK    4  A    between atoms: C_14  and  N_4 
ROOT
ATOM      1  S   UNL d   1      53.297  32.104  53.386  0.00  0.00     0.285 S 
ATOM      2  O   UNL d   1      53.774  32.581  53.857  0.00  0.00    -0.198 OA
ATOM      3  O   UNL d   1      52.765  31.809  52.827  0.00  0.00    -0.198 OA
ENDROOT
BRANCH   1   4
ATOM      4  N   UNL d   1      52.820  32.433  52.803  0.00  0.00    -0.158 NA
BRANCH   4   5
ATOM      5  C   UNL d   1      52.541  33.206  52.888  0.00  0.00     0.094 A 
ATOM      6  C   UNL d   1      51.763  33.394  52.678  0.00  0.00     0.021 A 
ATOM      7  C   UNL d   1      51.492  34.163  52.765  0.00  0.00     0.020 A 
ATOM      8  C   UNL d   1      51.994  34.754  53.061  0.00  0.00     0.002 A 
ATOM      9  C   UNL d   1      52.761  34.570  53.268  0.00  0.00     0.002 A 
ATOM     10  C   UNL d   1      53.043  33.797  53.184  0.00  0.00     0.020 A 
BRANCH   7  11
ATOM     11  C   UNL d   1      50.714  34.351  52.555  0.00  0.00     0.088 A 
ATOM     12  N   UNL d   1      49.969  34.342  51.336  0.00  0.00    -0.238 NA
ATOM     13  C   UNL d   1      49.293  34.616  51.747  0.00  0.00     0.111 A 
ATOM     14  C   UNL d   1      48.588  34.746  51.341  0.00  0.00     0.028 C 
ATOM     15  S   UNL d   1      49.324  34.758  52.562  0.00  0.00    -0.066 SA
ATOM     16  C   UNL d   1      50.041  34.623  52.964  0.00  0.00     0.056 A 
ENDBRANCH   7  11
ENDBRANCH   4   5
ENDBRANCH   1   4
BRANCH   1  17
ATOM     17  C   UNL d   1      53.302  31.287  53.503  0.00  0.00     0.105 A 
ATOM     18  C   UNL d   1      53.295  30.985  54.271  0.00  0.00     0.013 A 
ATOM     19  C   UNL d   1      53.300  30.159  54.387  0.00  0.00     0.001 A 
ATOM     20  C   UNL d   1      53.294  29.861  55.159  0.00  0.00     0.000 A 
ATOM     21  C   UNL d   1      53.312  29.651  53.740  0.00  0.00     0.000 A 
ATOM     22  C   UNL d   1      53.299  29.044  55.271  0.00  0.00     0.000 A 
ATOM     23  C   UNL d   1      53.310  28.532  54.624  0.00  0.00     0.000 A 
ATOM     24  C   UNL d   1      53.317  28.833  53.861  0.00  0.00     0.000 A 
ATOM     25  C   UNL d   1      53.319  29.961  52.978  0.00  0.00     0.001 A 
ATOM     26  C   UNL d   1      53.314  30.775  52.856  0.00  0.00     0.013 A 
ENDBRANCH   1  17
TORSDOF 4
ENDMDL
