MODEL 1
REMARK VINA RESULT:      52.3      0.000      0.000
REMARK  4 active torsions:
REMARK  status: ('A' for Active; 'I' for Inactive)
REMARK    1  A    between atoms: C_7  and  C_1 
REMARK    2  A    between atoms: O_10  and  C_2 
REMARK    3  A    between atoms: C_17  and  O_10 
REMARK    4  A    between atoms: C_19  and  C_12 
ROOT
ATOM      1  C   UNL d   1     -50.338  24.732  33.686  0.00  0.00     0.197 A 
ATOM      2  C   UNL d   1     -51.153  24.786  33.542  0.00  0.00     0.165 A 
ATOM      3  O   UNL d   1     -49.904  25.421  33.738  0.00  0.00    -0.301 OA
ATOM      4  C   UNL d   1     -51.510  25.527  33.456  0.00  0.00     0.222 A 
ATOM      5  C   UNL d   1     -51.055  26.190  33.513  0.00  0.00     0.064 A 
ATOM      6  C   UNL d   1     -50.240  26.137  33.657  0.00  0.00     0.106 A 
ATOM      7  C   UNL d   1     -51.412  26.932  33.427  0.00  0.00     0.008 A 
ATOM      8  C   UNL d   1     -49.806  26.825  33.709  0.00  0.00     0.067 A 
ATOM      9  C   UNL d   1     -50.141  27.557  33.627  0.00  0.00     0.198 A 
ATOM     10  C   UNL d   1     -50.955  27.611  33.484  0.00  0.00     0.039 A 
ATOM     11  O   UNL d   1     -52.302  25.580  33.317  0.00  0.00    -0.284 OA
ATOM     12  O   UNL d   1     -49.687  28.243  33.683  0.00  0.00    -0.286 OA
ENDROOT
BRANCH   2  13
ATOM     13  O   UNL d   1     -51.609  24.100  33.486  0.00  0.00    -0.302 OA
BRANCH  13  14
ATOM     14  C   UNL d   1     -52.331  24.053  33.874  0.00  0.00     0.100 A 
ATOM     15  C   UNL d   1     -53.018  23.932  33.426  0.00  0.00     0.025 A 
ATOM     16  C   UNL d   1     -53.726  23.886  33.807  0.00  0.00     0.002 A 
ATOM     17  C   UNL d   1     -53.754  23.960  34.640  0.00  0.00     0.000 A 
ATOM     18  C   UNL d   1     -53.081  24.076  35.061  0.00  0.00     0.002 A 
ATOM     19  C   UNL d   1     -52.360  24.123  34.673  0.00  0.00     0.025 A 
ENDBRANCH  13  14
ENDBRANCH   2  13
BRANCH   1  20
ATOM     20  C   UNL d   1     -49.984  23.992  33.771  0.00  0.00     0.442 C 
ATOM     21  F   UNL d   1     -49.630  23.241  33.862  0.00  0.00    -0.164 F 
ATOM     22  F   UNL d   1     -50.624  23.739  34.226  0.00  0.00    -0.164 F 
ATOM     23  F   UNL d   1     -49.343  24.249  33.316  0.00  0.00    -0.164 F 
ENDBRANCH   1  20
BRANCH  10  24
ATOM     24  C   UNL d   1     -51.312  28.351  33.398  0.00  0.00     0.003 C 
ATOM     25  C   UNL d   1     -50.859  29.034  33.469  0.00  0.00     0.000 C 
ENDBRANCH  10  24
TORSDOF 4
ENDMDL
