MODEL 1
REMARK VINA RESULT:      46.5      0.000      0.000
REMARK  1 active torsions:
REMARK  status: ('A' for Active; 'I' for Inactive)
REMARK       I    between atoms: N_3  and  C_1 
REMARK       I    between atoms: N_5  and  C_1 
REMARK       I    between atoms: C_2  and  N_4 
REMARK    1  A    between atoms: C_6  and  C_2 
ROOT
ATOM      1  C   UNL d   1      14.486  15.496  -2.436  0.00  0.00     0.340 C 
ATOM      2  C   UNL d   1      13.651  12.416  -3.285  0.00  0.00     0.271 C 
ATOM      3  N   UNL d   1      14.181  14.752  -2.624  0.00  0.00    -0.254 N 
ATOM      4  N   UNL d   1      13.850  13.201  -3.070  0.00  0.00    -0.269 N 
ATOM      5  N   UNL d   1      14.733  15.657  -1.666  0.00  0.00    -0.253 N 
ATOM      6  O   UNL d   1      14.545  16.076  -3.016  0.00  0.00    -0.245 OA
ATOM      7  C   UNL d   1      13.961  14.582  -3.406  0.00  0.00     0.104 A 
ATOM      8  C   UNL d   1      14.216  14.136  -2.060  0.00  0.00     0.104 A 
ATOM      9  C   UNL d   1      13.803  13.792  -3.633  0.00  0.00     0.102 A 
ATOM     10  C   UNL d   1      14.046  13.360  -2.280  0.00  0.00     0.102 A 
ATOM     11  O   UNL d   1      13.687  11.804  -2.720  0.00  0.00    -0.266 OA
ATOM     12  O   UNL d   1      15.495  15.888  -0.190  0.00  0.00    -0.300 OA
ATOM     13  C   UNL d   1      15.304  16.299  -1.542  0.00  0.00     0.111 C 
ATOM     14  C   UNL d   1      14.940  14.976  -1.155  0.00  0.00     0.111 C 
ATOM     15  C   UNL d   1      15.190  15.146  -0.382  0.00  0.00     0.142 C 
ATOM     16  C   UNL d   1      15.549  16.464  -0.779  0.00  0.00     0.142 C 
ENDROOT
BRANCH   2  17
ATOM     17  C   UNL d   1      13.438  12.243  -4.069  0.00  0.00     0.086 A 
ATOM     18  S   UNL d   1      12.770  11.809  -4.310  0.00  0.00    -0.082 SA
ATOM     19  C   UNL d   1      12.769  11.779  -5.151  0.00  0.00     0.036 A 
ATOM     20  C   UNL d   1      13.440  12.190  -5.419  0.00  0.00     0.008 A 
ATOM     21  C   UNL d   1      13.851  12.480  -4.755  0.00  0.00     0.012 A 
ENDBRANCH   2  17
TORSDOF 1
ENDMDL
