MODEL 1
REMARK VINA RESULT:      -7.3      0.000      0.000
REMARK  5 active torsions:
REMARK  status: ('A' for Active; 'I' for Inactive)
REMARK    1  A    between atoms: C_2  and  C_1 
REMARK    2  A    between atoms: C_3  and  C_1 
REMARK    3  A    between atoms: C_4  and  C_2 
REMARK    4  A    between atoms: O_9  and  C_6 
REMARK    5  A    between atoms: O_10  and  C_7 
ROOT
ATOM      1  C   UNL d   1      53.865  32.303  53.659  0.00  0.00     0.236 C 
ATOM      2  O   UNL d   1      54.149  32.766  53.048  0.00  0.00    -0.283 OA
ENDROOT
BRANCH   1   3
ATOM      3  C   UNL d   1      53.921  32.538  54.449  0.00  0.00     0.236 C 
ATOM      4  O   UNL d   1      53.508  32.149  55.033  0.00  0.00    -0.283 OA
BRANCH   3   5
ATOM      5  C   UNL d   1      54.411  33.188  54.651  0.00  0.00     0.065 A 
ATOM      6  C   UNL d   1      54.109  33.865  54.959  0.00  0.00     0.097 A 
ATOM      7  C   UNL d   1      54.606  34.502  55.156  0.00  0.00     0.024 A 
ATOM      8  C   UNL d   1      55.414  34.426  55.029  0.00  0.00     0.002 A 
ATOM      9  C   UNL d   1      55.721  33.746  54.719  0.00  0.00     0.000 A 
ATOM     10  C   UNL d   1      55.219  33.112  54.524  0.00  0.00     0.005 A 
BRANCH   6  11
ATOM     11  O   UNL d   1      53.287  33.939  55.087  0.00  0.00    -0.328 OA
ATOM     12  C   UNL d   1      52.976  34.583  55.262  0.00  0.00     0.181 C 
ENDBRANCH   6  11
ENDBRANCH   3   5
ENDBRANCH   1   3
BRANCH   1  13
ATOM     13  C   UNL d   1      53.509  31.576  53.485  0.00  0.00     0.065 A 
ATOM     14  C   UNL d   1      52.834  31.554  53.014  0.00  0.00     0.097 A 
ATOM     15  C   UNL d   1      52.487  30.826  52.846  0.00  0.00     0.024 A 
ATOM     16  C   UNL d   1      52.805  30.135  53.141  0.00  0.00     0.002 A 
ATOM     17  C   UNL d   1      53.464  30.151  53.601  0.00  0.00     0.000 A 
ATOM     18  C   UNL d   1      53.834  30.868  53.787  0.00  0.00     0.005 A 
BRANCH  14  19
ATOM     19  O   UNL d   1      52.490  32.274  52.698  0.00  0.00    -0.328 OA
ATOM     20  C   UNL d   1      51.692  32.330  52.489  0.00  0.00     0.181 C 
ENDBRANCH  14  19
ENDBRANCH   1  13
TORSDOF 5
ENDMDL
MODEL 2
REMARK VINA RESULT:      -7.3      0.070      3.512
REMARK  5 active torsions:
REMARK  status: ('A' for Active; 'I' for Inactive)
REMARK    1  A    between atoms: C_2  and  C_1 
REMARK    2  A    between atoms: C_3  and  C_1 
REMARK    3  A    between atoms: C_4  and  C_2 
REMARK    4  A    between atoms: O_9  and  C_6 
REMARK    5  A    between atoms: O_10  and  C_7 
ROOT
ATOM      1  C   UNL d   1      53.909  32.558  54.459  0.00  0.00     0.236 C 
ATOM      2  O   UNL d   1      53.461  32.206  55.045  0.00  0.00    -0.283 OA
ENDROOT
BRANCH   1   3
ATOM      3  C   UNL d   1      53.880  32.302  53.674  0.00  0.00     0.236 C 
ATOM      4  O   UNL d   1      54.199  32.751  53.074  0.00  0.00    -0.283 OA
BRANCH   3   5
ATOM      5  C   UNL d   1      53.515  31.569  53.493  0.00  0.00     0.065 A 
ATOM      6  C   UNL d   1      52.862  31.525  53.027  0.00  0.00     0.097 A 
ATOM      7  C   UNL d   1      52.510  30.792  52.855  0.00  0.00     0.024 A 
ATOM      8  C   UNL d   1      52.843  30.111  53.171  0.00  0.00     0.002 A 
ATOM      9  C   UNL d   1      53.500  30.151  53.640  0.00  0.00     0.000 A 
ATOM     10  C   UNL d   1      53.848  30.888  53.809  0.00  0.00     0.005 A 
BRANCH   6  11
ATOM     11  O   UNL d   1      52.527  32.220  52.707  0.00  0.00    -0.328 OA
ATOM     12  C   UNL d   1      51.837  32.238  52.453  0.00  0.00     0.181 C 
ENDBRANCH   6  11
ENDBRANCH   3   5
ENDBRANCH   1   3
BRANCH   1  13
ATOM     13  C   UNL d   1      54.409  33.189  54.653  0.00  0.00     0.065 A 
ATOM     14  C   UNL d   1      54.087  33.889  54.943  0.00  0.00     0.097 A 
ATOM     15  C   UNL d   1      54.592  34.512  55.134  0.00  0.00     0.024 A 
ATOM     16  C   UNL d   1      55.399  34.439  55.038  0.00  0.00     0.002 A 
ATOM     17  C   UNL d   1      55.717  33.757  54.754  0.00  0.00     0.000 A 
ATOM     18  C   UNL d   1      55.234  33.115  54.555  0.00  0.00     0.005 A 
BRANCH  14  19
ATOM     19  O   UNL d   1      53.241  33.979  55.049  0.00  0.00    -0.328 OA
ATOM     20  C   UNL d   1      52.886  34.713  55.188  0.00  0.00     0.181 C 
ENDBRANCH  14  19
ENDBRANCH   1  13
TORSDOF 5
ENDMDL
MODEL 3
REMARK VINA RESULT:      -7.1      0.955      1.998
REMARK  5 active torsions:
REMARK  status: ('A' for Active; 'I' for Inactive)
REMARK    1  A    between atoms: C_2  and  C_1 
REMARK    2  A    between atoms: C_3  and  C_1 
REMARK    3  A    between atoms: C_4  and  C_2 
REMARK    4  A    between atoms: O_9  and  C_6 
REMARK    5  A    between atoms: O_10  and  C_7 
ROOT
ATOM      1  C   UNL d   1      53.520  31.654  54.197  0.00  0.00     0.236 C 
ATOM      2  O   UNL d   1      53.334  31.556  54.987  0.00  0.00    -0.283 OA
ENDROOT
BRANCH   1   3
ATOM      3  C   UNL d   1      53.920  32.322  53.922  0.00  0.00     0.236 C 
ATOM      4  O   UNL d   1      54.536  32.254  53.394  0.00  0.00    -0.283 OA
BRANCH   3   5
ATOM      5  C   UNL d   1      53.689  33.082  54.193  0.00  0.00     0.065 A 
ATOM      6  C   UNL d   1      54.184  33.547  54.621  0.00  0.00     0.097 A 
ATOM      7  C   UNL d   1      53.942  34.298  54.883  0.00  0.00     0.024 A 
ATOM      8  C   UNL d   1      53.186  34.557  54.695  0.00  0.00     0.002 A 
ATOM      9  C   UNL d   1      52.685  34.091  54.265  0.00  0.00     0.000 A 
ATOM     10  C   UNL d   1      52.932  33.341  54.005  0.00  0.00     0.005 A 
BRANCH   6  11
ATOM     11  O   UNL d   1      54.953  33.280  54.810  0.00  0.00    -0.328 OA
ATOM     12  C   UNL d   1      55.435  33.705  55.168  0.00  0.00     0.181 C 
ENDBRANCH   6  11
ENDBRANCH   3   5
ENDBRANCH   1   3
BRANCH   1  13
ATOM     13  C   UNL d   1      53.301  31.070  53.653  0.00  0.00     0.065 A 
ATOM     14  C   UNL d   1      53.289  30.281  53.885  0.00  0.00     0.097 A 
ATOM     15  C   UNL d   1      53.070  29.705  53.337  0.00  0.00     0.024 A 
ATOM     16  C   UNL d   1      52.868  29.912  52.574  0.00  0.00     0.002 A 
ATOM     17  C   UNL d   1      52.878  30.682  52.343  0.00  0.00     0.000 A 
ATOM     18  C   UNL d   1      53.094  31.281  52.872  0.00  0.00     0.005 A 
BRANCH  14  19
ATOM     19  O   UNL d   1      53.500  30.049  54.684  0.00  0.00    -0.328 OA
ATOM     20  C   UNL d   1      53.428  29.271  54.955  0.00  0.00     0.181 C 
ENDBRANCH  14  19
ENDBRANCH   1  13
TORSDOF 5
ENDMDL
MODEL 4
REMARK VINA RESULT:      -7.0      1.557      3.385
REMARK  5 active torsions:
REMARK  status: ('A' for Active; 'I' for Inactive)
REMARK    1  A    between atoms: C_2  and  C_1 
REMARK    2  A    between atoms: C_3  and  C_1 
REMARK    3  A    between atoms: C_4  and  C_2 
REMARK    4  A    between atoms: O_9  and  C_6 
REMARK    5  A    between atoms: O_10  and  C_7 
ROOT
ATOM      1  C   UNL d   1      53.030  33.353  53.396  0.00  0.00     0.236 C 
ATOM      2  O   UNL d   1      53.159  32.953  52.694  0.00  0.00    -0.283 OA
ENDROOT
BRANCH   1   3
ATOM      3  C   UNL d   1      52.382  33.855  53.500  0.00  0.00     0.236 C 
ATOM      4  O   UNL d   1      52.228  34.194  54.224  0.00  0.00    -0.283 OA
BRANCH   3   5
ATOM      5  C   UNL d   1      51.877  34.016  52.850  0.00  0.00     0.065 A 
ATOM      6  C   UNL d   1      51.090  33.859  52.879  0.00  0.00     0.097 A 
ATOM      7  C   UNL d   1      50.600  34.024  52.227  0.00  0.00     0.024 A 
ATOM      8  C   UNL d   1      50.936  34.352  51.553  0.00  0.00     0.002 A 
ATOM      9  C   UNL d   1      51.728  34.511  51.522  0.00  0.00     0.000 A 
ATOM     10  C   UNL d   1      52.213  34.344  52.176  0.00  0.00     0.005 A 
BRANCH   6  11
ATOM     11  O   UNL d   1      50.752  33.526  53.565  0.00  0.00    -0.328 OA
ATOM     12  C   UNL d   1      50.028  33.403  53.623  0.00  0.00     0.181 C 
ENDBRANCH   6  11
ENDBRANCH   3   5
ENDBRANCH   1   3
BRANCH   1  13
ATOM     13  C   UNL d   1      53.562  33.255  54.022  0.00  0.00     0.065 A 
ATOM     14  C   UNL d   1      53.763  32.497  54.272  0.00  0.00     0.097 A 
ATOM     15  C   UNL d   1      54.294  32.408  54.896  0.00  0.00     0.024 A 
ATOM     16  C   UNL d   1      54.618  33.061  55.263  0.00  0.00     0.002 A 
ATOM     17  C   UNL d   1      54.424  33.804  55.023  0.00  0.00     0.000 A 
ATOM     18  C   UNL d   1      53.894  33.922  54.398  0.00  0.00     0.005 A 
BRANCH  14  19
ATOM     19  O   UNL d   1      53.429  31.802  53.894  0.00  0.00    -0.328 OA
ATOM     20  C   UNL d   1      53.644  31.033  54.111  0.00  0.00     0.181 C 
ENDBRANCH  14  19
ENDBRANCH   1  13
TORSDOF 5
ENDMDL
MODEL 5
REMARK VINA RESULT:      -6.9      0.963      3.686
REMARK  5 active torsions:
REMARK  status: ('A' for Active; 'I' for Inactive)
REMARK    1  A    between atoms: C_2  and  C_1 
REMARK    2  A    between atoms: C_3  and  C_1 
REMARK    3  A    between atoms: C_4  and  C_2 
REMARK    4  A    between atoms: O_9  and  C_6 
REMARK    5  A    between atoms: O_10  and  C_7 
ROOT
ATOM      1  C   UNL d   1      53.903  32.306  53.891  0.00  0.00     0.236 C 
ATOM      2  O   UNL d   1      54.530  32.246  53.369  0.00  0.00    -0.283 OA
ENDROOT
BRANCH   1   3
ATOM      3  C   UNL d   1      53.511  31.640  54.181  0.00  0.00     0.236 C 
ATOM      4  O   UNL d   1      53.326  31.574  54.971  0.00  0.00    -0.283 OA
BRANCH   3   5
ATOM      5  C   UNL d   1      53.301  31.023  53.654  0.00  0.00     0.065 A 
ATOM      6  C   UNL d   1      53.280  30.255  53.889  0.00  0.00     0.097 A 
ATOM      7  C   UNL d   1      53.070  29.652  53.356  0.00  0.00     0.024 A 
ATOM      8  C   UNL d   1      52.884  29.857  52.583  0.00  0.00     0.002 A 
ATOM      9  C   UNL d   1      52.903  30.628  52.343  0.00  0.00     0.000 A 
ATOM     10  C   UNL d   1      53.114  31.227  52.880  0.00  0.00     0.005 A 
BRANCH   6  11
ATOM     11  O   UNL d   1      53.471  30.051  54.676  0.00  0.00    -0.328 OA
ATOM     12  C   UNL d   1      53.409  29.362  54.926  0.00  0.00     0.181 C 
ENDBRANCH   6  11
ENDBRANCH   3   5
ENDBRANCH   1   3
BRANCH   1  13
ATOM     13  C   UNL d   1      53.650  33.056  54.136  0.00  0.00     0.065 A 
ATOM     14  C   UNL d   1      54.159  33.535  54.571  0.00  0.00     0.097 A 
ATOM     15  C   UNL d   1      53.899  34.279  54.812  0.00  0.00     0.024 A 
ATOM     16  C   UNL d   1      53.149  34.540  54.623  0.00  0.00     0.002 A 
ATOM     17  C   UNL d   1      52.649  34.075  54.198  0.00  0.00     0.000 A 
ATOM     18  C   UNL d   1      52.883  33.323  53.943  0.00  0.00     0.005 A 
BRANCH  14  19
ATOM     19  O   UNL d   1      54.950  33.273  54.776  0.00  0.00    -0.328 OA
ATOM     20  C   UNL d   1      55.485  33.753  55.184  0.00  0.00     0.181 C 
ENDBRANCH  14  19
ENDBRANCH   1  13
TORSDOF 5
ENDMDL
MODEL 6
REMARK VINA RESULT:      -6.9      0.999      3.581
REMARK  5 active torsions:
REMARK  status: ('A' for Active; 'I' for Inactive)
REMARK    1  A    between atoms: C_2  and  C_1 
REMARK    2  A    between atoms: C_3  and  C_1 
REMARK    3  A    between atoms: C_4  and  C_2 
REMARK    4  A    between atoms: O_9  and  C_6 
REMARK    5  A    between atoms: O_10  and  C_7 
ROOT
ATOM      1  C   UNL d   1      53.704  32.738  53.398  0.00  0.00     0.236 C 
ATOM      2  O   UNL d   1      54.472  32.492  53.535  0.00  0.00    -0.283 OA
ENDROOT
BRANCH   1   3
ATOM      3  C   UNL d   1      53.155  32.258  53.010  0.00  0.00     0.236 C 
ATOM      4  O   UNL d   1      52.600  32.579  52.508  0.00  0.00    -0.283 OA
BRANCH   3   5
ATOM      5  C   UNL d   1      53.171  31.429  53.135  0.00  0.00     0.065 A 
ATOM      6  C   UNL d   1      52.498  31.008  53.257  0.00  0.00     0.097 A 
ATOM      7  C   UNL d   1      52.527  30.186  53.379  0.00  0.00     0.024 A 
ATOM      8  C   UNL d   1      53.258  29.812  53.373  0.00  0.00     0.002 A 
ATOM      9  C   UNL d   1      53.937  30.233  53.251  0.00  0.00     0.000 A 
ATOM     10  C   UNL d   1      53.902  31.055  53.128  0.00  0.00     0.005 A 
BRANCH   6  11
ATOM     11  O   UNL d   1      51.756  31.392  53.262  0.00  0.00    -0.328 OA
ATOM     12  C   UNL d   1      51.133  31.033  53.416  0.00  0.00     0.181 C 
ENDBRANCH   6  11
ENDBRANCH   3   5
ENDBRANCH   1   3
BRANCH   1  13
ATOM     13  C   UNL d   1      53.466  33.488  53.654  0.00  0.00     0.065 A 
ATOM     14  C   UNL d   1      53.672  33.746  54.408  0.00  0.00     0.097 A 
ATOM     15  C   UNL d   1      53.431  34.494  54.655  0.00  0.00     0.024 A 
ATOM     16  C   UNL d   1      52.994  34.976  54.161  0.00  0.00     0.002 A 
ATOM     17  C   UNL d   1      52.791  34.728  53.424  0.00  0.00     0.000 A 
ATOM     18  C   UNL d   1      53.019  33.981  53.150  0.00  0.00     0.005 A 
BRANCH  14  19
ATOM     19  O   UNL d   1      54.131  33.250  54.937  0.00  0.00    -0.328 OA
ATOM     20  C   UNL d   1      54.461  33.536  55.640  0.00  0.00     0.181 C 
ENDBRANCH  14  19
ENDBRANCH   1  13
TORSDOF 5
ENDMDL
MODEL 7
REMARK VINA RESULT:      -6.8      1.624      2.410
REMARK  5 active torsions:
REMARK  status: ('A' for Active; 'I' for Inactive)
REMARK    1  A    between atoms: C_2  and  C_1 
REMARK    2  A    between atoms: C_3  and  C_1 
REMARK    3  A    between atoms: C_4  and  C_2 
REMARK    4  A    between atoms: O_9  and  C_6 
REMARK    5  A    between atoms: O_10  and  C_7 
ROOT
ATOM      1  C   UNL d   1      53.337  32.327  53.162  0.00  0.00     0.236 C 
ATOM      2  O   UNL d   1      54.033  32.711  53.355  0.00  0.00    -0.283 OA
ENDROOT
BRANCH   1   3
ATOM      3  C   UNL d   1      52.691  32.727  52.839  0.00  0.00     0.236 C 
ATOM      4  O   UNL d   1      52.193  32.361  52.309  0.00  0.00    -0.283 OA
BRANCH   3   5
ATOM      5  C   UNL d   1      52.547  33.523  53.062  0.00  0.00     0.065 A 
ATOM      6  C   UNL d   1      51.812  33.780  53.256  0.00  0.00     0.097 A 
ATOM      7  C   UNL d   1      51.682  34.572  53.475  0.00  0.00     0.024 A 
ATOM      8  C   UNL d   1      52.321  35.087  53.488  0.00  0.00     0.002 A 
ATOM      9  C   UNL d   1      53.062  34.831  53.293  0.00  0.00     0.000 A 
ATOM     10  C   UNL d   1      53.187  34.039  53.075  0.00  0.00     0.005 A 
BRANCH   6  11
ATOM     11  O   UNL d   1      51.164  33.254  53.241  0.00  0.00    -0.328 OA
ATOM     12  C   UNL d   1      50.476  33.478  53.375  0.00  0.00     0.181 C 
ENDBRANCH   6  11
ENDBRANCH   3   5
ENDBRANCH   1   3
BRANCH   1  13
ATOM     13  C   UNL d   1      53.275  31.511  53.292  0.00  0.00     0.065 A 
ATOM     14  C   UNL d   1      53.471  31.200  54.028  0.00  0.00     0.097 A 
ATOM     15  C   UNL d   1      53.406  30.387  54.149  0.00  0.00     0.024 A 
ATOM     16  C   UNL d   1      53.152  29.895  53.549  0.00  0.00     0.002 A 
ATOM     17  C   UNL d   1      52.959  30.196  52.828  0.00  0.00     0.000 A 
ATOM     18  C   UNL d   1      53.015  31.008  52.679  0.00  0.00     0.005 A 
BRANCH  14  19
ATOM     19  O   UNL d   1      53.740  31.706  54.667  0.00  0.00    -0.328 OA
ATOM     20  C   UNL d   1      53.827  31.432  55.443  0.00  0.00     0.181 C 
ENDBRANCH  14  19
ENDBRANCH   1  13
TORSDOF 5
ENDMDL
MODEL 8
REMARK VINA RESULT:      -6.8      1.579      3.296
REMARK  5 active torsions:
REMARK  status: ('A' for Active; 'I' for Inactive)
REMARK    1  A    between atoms: C_2  and  C_1 
REMARK    2  A    between atoms: C_3  and  C_1 
REMARK    3  A    between atoms: C_4  and  C_2 
REMARK    4  A    between atoms: O_9  and  C_6 
REMARK    5  A    between atoms: O_10  and  C_7 
ROOT
ATOM      1  C   UNL d   1      52.742  32.770  52.865  0.00  0.00     0.236 C 
ATOM      2  O   UNL d   1      52.231  32.434  52.322  0.00  0.00    -0.283 OA
ENDROOT
BRANCH   1   3
ATOM      3  C   UNL d   1      53.374  32.348  53.188  0.00  0.00     0.236 C 
ATOM      4  O   UNL d   1      54.071  32.721  53.382  0.00  0.00    -0.283 OA
BRANCH   3   5
ATOM      5  C   UNL d   1      53.295  31.523  53.319  0.00  0.00     0.065 A 
ATOM      6  C   UNL d   1      53.461  31.191  54.031  0.00  0.00     0.097 A 
ATOM      7  C   UNL d   1      53.379  30.372  54.148  0.00  0.00     0.024 A 
ATOM      8  C   UNL d   1      53.124  29.907  53.520  0.00  0.00     0.002 A 
ATOM      9  C   UNL d   1      52.956  30.239  52.803  0.00  0.00     0.000 A 
ATOM     10  C   UNL d   1      53.040  31.059  52.691  0.00  0.00     0.005 A 
BRANCH   6  11
ATOM     11  O   UNL d   1      53.720  31.666  54.667  0.00  0.00    -0.328 OA
ATOM     12  C   UNL d   1      53.803  31.396  55.347  0.00  0.00     0.181 C 
ENDBRANCH   6  11
ENDBRANCH   3   5
ENDBRANCH   1   3
BRANCH   1  13
ATOM     13  C   UNL d   1      52.626  33.555  53.099  0.00  0.00     0.065 A 
ATOM     14  C   UNL d   1      51.867  33.822  53.269  0.00  0.00     0.097 A 
ATOM     15  C   UNL d   1      51.761  34.606  53.502  0.00  0.00     0.024 A 
ATOM     16  C   UNL d   1      52.398  35.112  53.564  0.00  0.00     0.002 A 
ATOM     17  C   UNL d   1      53.142  34.855  53.399  0.00  0.00     0.000 A 
ATOM     18  C   UNL d   1      53.278  34.073  53.163  0.00  0.00     0.005 A 
BRANCH  14  19
ATOM     19  O   UNL d   1      51.188  33.301  53.207  0.00  0.00    -0.328 OA
ATOM     20  C   UNL d   1      50.412  33.567  53.314  0.00  0.00     0.181 C 
ENDBRANCH  14  19
ENDBRANCH   1  13
TORSDOF 5
ENDMDL
MODEL 9
REMARK VINA RESULT:      -6.7      1.553      2.811
REMARK  5 active torsions:
REMARK  status: ('A' for Active; 'I' for Inactive)
REMARK    1  A    between atoms: C_2  and  C_1 
REMARK    2  A    between atoms: C_3  and  C_1 
REMARK    3  A    between atoms: C_4  and  C_2 
REMARK    4  A    between atoms: O_9  and  C_6 
REMARK    5  A    between atoms: O_10  and  C_7 
ROOT
ATOM      1  C   UNL d   1      52.443  33.900  53.562  0.00  0.00     0.236 C 
ATOM      2  O   UNL d   1      52.238  34.244  54.275  0.00  0.00    -0.283 OA
ENDROOT
BRANCH   1   3
ATOM      3  C   UNL d   1      53.099  33.404  53.489  0.00  0.00     0.236 C 
ATOM      4  O   UNL d   1      53.236  32.989  52.802  0.00  0.00    -0.283 OA
BRANCH   3   5
ATOM      5  C   UNL d   1      53.632  33.328  54.132  0.00  0.00     0.065 A 
ATOM      6  C   UNL d   1      53.834  32.611  54.431  0.00  0.00     0.097 A 
ATOM      7  C   UNL d   1      54.363  32.549  55.069  0.00  0.00     0.024 A 
ATOM      8  C   UNL d   1      54.677  33.238  55.389  0.00  0.00     0.002 A 
ATOM      9  C   UNL d   1      54.476  33.961  55.091  0.00  0.00     0.000 A 
ATOM     10  C   UNL d   1      53.946  34.017  54.452  0.00  0.00     0.005 A 
BRANCH   6  11
ATOM     11  O   UNL d   1      53.513  31.913  54.103  0.00  0.00    -0.328 OA
ATOM     12  C   UNL d   1      53.705  31.245  54.344  0.00  0.00     0.181 C 
ENDBRANCH   6  11
ENDBRANCH   3   5
ENDBRANCH   1   3
BRANCH   1  13
ATOM     13  C   UNL d   1      51.981  34.051  52.891  0.00  0.00     0.065 A 
ATOM     14  C   UNL d   1      51.179  33.868  52.899  0.00  0.00     0.097 A 
ATOM     15  C   UNL d   1      50.727  34.022  52.226  0.00  0.00     0.024 A 
ATOM     16  C   UNL d   1      51.068  34.350  51.561  0.00  0.00     0.002 A 
ATOM     17  C   UNL d   1      51.852  34.530  51.550  0.00  0.00     0.000 A 
ATOM     18  C   UNL d   1      52.330  34.386  52.210  0.00  0.00     0.005 A 
BRANCH  14  19
ATOM     19  O   UNL d   1      50.808  33.523  53.591  0.00  0.00    -0.328 OA
ATOM     20  C   UNL d   1      49.998  33.362  53.628  0.00  0.00     0.181 C 
ENDBRANCH  14  19
ENDBRANCH   1  13
TORSDOF 5
ENDMDL
