MODEL 1
REMARK VINA RESULT:      58.2      0.000      0.000
REMARK  5 active torsions:
REMARK  status: ('A' for Active; 'I' for Inactive)
REMARK    1  A    between atoms: N_2  and  C_14 
REMARK    2  A    between atoms: C_17  and  N_4 
REMARK    3  A    between atoms: C_15  and  C_9 
REMARK    4  A    between atoms: C_14  and  O_16 
REMARK    5  A    between atoms: O_16  and  C_15 
ROOT
ATOM      1  C   UNL d   1      14.636  16.134  -2.979  0.00  0.00     0.114 A 
ATOM      2  C   UNL d   1      15.050  16.846  -3.023  0.00  0.00     0.044 A 
ATOM      3  N   UNL d   1      14.377  15.949  -3.736  0.00  0.00    -0.224 N 
ATOM      4  N   UNL d   1      14.626  16.538  -4.246  0.00  0.00    -0.165 NA
ATOM      5  S   UNL d   1      14.643  15.890  -2.207  0.00  0.00    -0.062 SA
ATOM      6  C   UNL d   1      15.058  16.440  -1.759  0.00  0.00     0.094 A 
ATOM      7  C   UNL d   1      15.309  17.035  -2.278  0.00  0.00     0.015 A 
ATOM      8  C   UNL d   1      15.041  17.094  -3.816  0.00  0.00     0.103 A 
ATOM      9  C   UNL d   1      15.389  17.777  -4.106  0.00  0.00     0.022 C 
ENDROOT
BRANCH   6  10
ATOM     10  C   UNL d   1      15.197  16.407  -0.950  0.00  0.00     0.307 C 
ATOM     11  O   UNL d   1      15.092  17.083  -0.485  0.00  0.00    -0.258 OA
BRANCH  10  12
ATOM     12  O   UNL d   1      15.442  15.699  -0.599  0.00  0.00    -0.252 OA
BRANCH  12  13
ATOM     13  C   UNL d   1      14.953  15.320  -0.048  0.00  0.00     0.216 C 
BRANCH  13  14
ATOM     14  N   UNL d   1      14.901  14.495  -0.042  0.00  0.00    -0.218 N 
ATOM     15  C   UNL d   1      15.534  13.974  -0.047  0.00  0.00     0.269 A 
ATOM     16  C   UNL d   1      15.234  13.202  -0.038  0.00  0.00     0.061 A 
ATOM     17  O   UNL d   1      16.337  14.178  -0.060  0.00  0.00    -0.267 OA
ATOM     18  C   UNL d   1      15.598  12.464  -0.038  0.00  0.00     0.005 A 
ATOM     19  C   UNL d   1      14.409  13.254  -0.027  0.00  0.00     0.061 A 
ATOM     20  C   UNL d   1      15.145  11.781  -0.027  0.00  0.00     0.000 A 
ATOM     21  C   UNL d   1      14.319  11.833  -0.017  0.00  0.00     0.000 A 
ATOM     22  C   UNL d   1      13.947  12.568  -0.016  0.00  0.00     0.005 A 
ATOM     23  C   UNL d   1      14.196  14.058  -0.030  0.00  0.00     0.269 A 
ATOM     24  O   UNL d   1      13.433  14.362  -0.021  0.00  0.00    -0.267 OA
ENDBRANCH  13  14
ENDBRANCH  12  13
ENDBRANCH  10  12
ENDBRANCH   6  10
BRANCH   3  25
ATOM     25  C   UNL d   1      13.940  15.281  -3.946  0.00  0.00     0.083 A 
ATOM     26  C   UNL d   1      13.206  15.374  -4.302  0.00  0.00     0.019 A 
ATOM     27  C   UNL d   1      12.769  14.707  -4.512  0.00  0.00     0.002 A 
ATOM     28  C   UNL d   1      13.066  13.947  -4.366  0.00  0.00     0.000 A 
ATOM     29  C   UNL d   1      13.810  13.861  -4.005  0.00  0.00     0.002 A 
ATOM     30  C   UNL d   1      14.248  14.523  -3.795  0.00  0.00     0.019 A 
ENDBRANCH   3  25
TORSDOF 5
ENDMDL
MODEL 2
REMARK VINA RESULT:      58.2      2.643      5.779
REMARK  5 active torsions:
REMARK  status: ('A' for Active; 'I' for Inactive)
REMARK    1  A    between atoms: N_2  and  C_14 
REMARK    2  A    between atoms: C_17  and  N_4 
REMARK    3  A    between atoms: C_15  and  C_9 
REMARK    4  A    between atoms: C_14  and  O_16 
REMARK    5  A    between atoms: O_16  and  C_15 
ROOT
ATOM      1  C   UNL d   1      13.560  13.150  -3.565  0.00  0.00     0.114 A 
ATOM      2  C   UNL d   1      13.256  13.002  -4.317  0.00  0.00     0.044 A 
ATOM      3  N   UNL d   1      13.645  12.429  -3.183  0.00  0.00    -0.224 N 
ATOM      4  N   UNL d   1      13.397  11.837  -3.690  0.00  0.00    -0.165 NA
ATOM      5  S   UNL d   1      13.659  13.951  -3.490  0.00  0.00    -0.062 SA
ATOM      6  C   UNL d   1      13.420  14.314  -4.188  0.00  0.00     0.094 A 
ATOM      7  C   UNL d   1      13.169  13.713  -4.699  0.00  0.00     0.015 A 
ATOM      8  C   UNL d   1      13.155  12.181  -4.390  0.00  0.00     0.103 A 
ATOM      9  C   UNL d   1      12.865  11.793  -5.051  0.00  0.00     0.022 C 
ENDROOT
BRANCH   6  10
ATOM     10  C   UNL d   1      13.428  15.119  -4.348  0.00  0.00     0.307 C 
ATOM     11  O   UNL d   1      12.786  15.591  -4.123  0.00  0.00    -0.258 OA
BRANCH  10  12
ATOM     12  O   UNL d   1      14.076  15.460  -4.733  0.00  0.00    -0.252 OA
BRANCH  12  13
ATOM     13  C   UNL d   1      13.980  15.795  -5.484  0.00  0.00     0.216 C 
BRANCH  13  14
ATOM     14  N   UNL d   1      14.055  16.613  -5.584  0.00  0.00    -0.218 N 
ATOM     15  C   UNL d   1      13.534  17.097  -5.990  0.00  0.00     0.269 A 
ATOM     16  C   UNL d   1      13.818  17.873  -5.954  0.00  0.00     0.061 A 
ATOM     17  O   UNL d   1      12.839  16.856  -6.373  0.00  0.00    -0.267 OA
ATOM     18  C   UNL d   1      13.535  18.585  -6.254  0.00  0.00     0.005 A 
ATOM     19  C   UNL d   1      14.522  17.861  -5.520  0.00  0.00     0.061 A 
ATOM     20  C   UNL d   1      13.948  19.281  -6.125  0.00  0.00     0.000 A 
ATOM     21  C   UNL d   1      14.651  19.269  -5.691  0.00  0.00     0.000 A 
ATOM     22  C   UNL d   1      14.943  18.561  -5.387  0.00  0.00     0.005 A 
ATOM     23  C   UNL d   1      14.674  17.078  -5.287  0.00  0.00     0.269 A 
ATOM     24  O   UNL d   1      15.316  16.814  -4.846  0.00  0.00    -0.267 OA
ENDBRANCH  13  14
ENDBRANCH  12  13
ENDBRANCH  10  12
ENDBRANCH   6  10
BRANCH   3  25
ATOM     25  C   UNL d   1      13.933  12.319  -2.417  0.00  0.00     0.083 A 
ATOM     26  C   UNL d   1      13.408  12.147  -1.809  0.00  0.00     0.019 A 
ATOM     27  C   UNL d   1      13.696  12.037  -1.044  0.00  0.00     0.002 A 
ATOM     28  C   UNL d   1      14.506  12.100  -0.887  0.00  0.00     0.000 A 
ATOM     29  C   UNL d   1      15.031  12.275  -1.507  0.00  0.00     0.002 A 
ATOM     30  C   UNL d   1      14.749  12.385  -2.271  0.00  0.00     0.019 A 
ENDBRANCH   3  25
TORSDOF 5
ENDMDL
MODEL 3
REMARK VINA RESULT:      58.7      2.044      4.211
REMARK  5 active torsions:
REMARK  status: ('A' for Active; 'I' for Inactive)
REMARK    1  A    between atoms: N_2  and  C_14 
REMARK    2  A    between atoms: C_17  and  N_4 
REMARK    3  A    between atoms: C_15  and  C_9 
REMARK    4  A    between atoms: C_14  and  O_16 
REMARK    5  A    between atoms: O_16  and  C_15 
ROOT
ATOM      1  C   UNL d   1      13.380  13.083  -3.548  0.00  0.00     0.114 A 
ATOM      2  C   UNL d   1      13.115  13.008  -4.326  0.00  0.00     0.044 A 
ATOM      3  N   UNL d   1      13.500  12.328  -3.251  0.00  0.00    -0.224 N 
ATOM      4  N   UNL d   1      13.312  11.787  -3.835  0.00  0.00    -0.165 NA
ATOM      5  S   UNL d   1      13.421  13.874  -3.376  0.00  0.00    -0.062 SA
ATOM      6  C   UNL d   1      13.184  14.302  -4.036  0.00  0.00     0.094 A 
ATOM      7  C   UNL d   1      12.995  13.752  -4.626  0.00  0.00     0.015 A 
ATOM      8  C   UNL d   1      13.074  12.197  -4.500  0.00  0.00     0.103 A 
ATOM      9  C   UNL d   1      12.837  11.874  -5.214  0.00  0.00     0.022 C 
ENDROOT
BRANCH   6  10
ATOM     10  C   UNL d   1      13.143  15.120  -4.100  0.00  0.00     0.307 C 
ATOM     11  O   UNL d   1      12.820  15.466  -4.779  0.00  0.00    -0.258 OA
BRANCH  10  12
ATOM     12  O   UNL d   1      13.425  15.599  -3.487  0.00  0.00    -0.252 OA
BRANCH  12  13
ATOM     13  C   UNL d   1      14.192  15.909  -3.525  0.00  0.00     0.216 C 
BRANCH  13  14
ATOM     14  N   UNL d   1      14.560  16.183  -2.836  0.00  0.00    -0.218 N 
ATOM     15  C   UNL d   1      15.066  16.826  -2.786  0.00  0.00     0.269 A 
ATOM     16  C   UNL d   1      15.307  16.905  -1.998  0.00  0.00     0.061 A 
ATOM     17  O   UNL d   1      15.300  17.316  -3.413  0.00  0.00    -0.267 OA
ATOM     18  C   UNL d   1      15.804  17.439  -1.619  0.00  0.00     0.005 A 
ATOM     19  C   UNL d   1      14.942  16.303  -1.564  0.00  0.00     0.061 A 
ATOM     20  C   UNL d   1      15.940  17.377  -0.813  0.00  0.00     0.000 A 
ATOM     21  C   UNL d   1      15.576  16.775  -0.379  0.00  0.00     0.000 A 
ATOM     22  C   UNL d   1      15.076  16.235  -0.750  0.00  0.00     0.005 A 
ATOM     23  C   UNL d   1      14.475  15.850  -2.082  0.00  0.00     0.269 A 
ATOM     24  O   UNL d   1      14.018  15.197  -1.884  0.00  0.00    -0.267 OA
ENDBRANCH  13  14
ENDBRANCH  12  13
ENDBRANCH  10  12
ENDBRANCH   6  10
BRANCH   3  25
ATOM     25  C   UNL d   1      13.765  12.145  -2.491  0.00  0.00     0.083 A 
ATOM     26  C   UNL d   1      14.572  12.113  -2.341  0.00  0.00     0.019 A 
ATOM     27  C   UNL d   1      14.837  11.930  -1.581  0.00  0.00     0.002 A 
ATOM     28  C   UNL d   1      14.296  11.780  -0.973  0.00  0.00     0.000 A 
ATOM     29  C   UNL d   1      13.480  11.815  -1.132  0.00  0.00     0.002 A 
ATOM     30  C   UNL d   1      13.213  11.997  -1.887  0.00  0.00     0.019 A 
ENDBRANCH   3  25
TORSDOF 5
ENDMDL
