MODEL 1
REMARK VINA RESULT:      -2.9      0.000      0.000
REMARK  3 active torsions:
REMARK  status: ('A' for Active; 'I' for Inactive)
REMARK       I    between atoms: C_2  and  N_1 
REMARK    1  A    between atoms: C_3  and  C_2 
REMARK    2  A    between atoms: S_5  and  C_3 
REMARK    3  A    between atoms: C_7  and  S_5 
ROOT
ATOM      1  C   UNL d   1      32.885  20.668 -21.713  0.00  0.00     0.125 C 
ENDROOT
BRANCH   1   2
ATOM      2  C   UNL d   1      32.946  21.024 -20.971  0.00  0.00     0.259 C 
ATOM      3  N   UNL d   1      32.711  21.816 -20.867  0.00  0.00    -0.268 N 
ATOM      4  C   UNL d   1      32.768  22.179 -20.130  0.00  0.00     0.110 A 
ATOM      5  C   UNL d   1      32.419  22.237 -21.514  0.00  0.00     0.110 A 
ATOM      6  C   UNL d   1      32.532  22.965 -20.038  0.00  0.00     0.142 A 
ATOM      7  O   UNL d   1      32.241  23.386 -20.684  0.00  0.00    -0.300 OA
ATOM      8  C   UNL d   1      32.184  23.023 -21.422  0.00  0.00     0.142 A 
ATOM      9  O   UNL d   1      33.239  20.598 -20.323  0.00  0.00    -0.267 OA
ENDBRANCH   1   2
BRANCH   1  10
ATOM     10  S   UNL d   1      33.233  19.937 -21.834  0.00  0.00    -0.095 SA
BRANCH  10  11
ATOM     11  C   UNL d   1      33.086  19.524 -22.533  0.00  0.00     0.029 A 
ATOM     12  C   UNL d   1      33.239  19.880 -23.261  0.00  0.00     0.006 A 
ATOM     13  C   UNL d   1      33.093  19.466 -23.960  0.00  0.00     0.001 A 
ATOM     14  C   UNL d   1      32.793  18.698 -23.929  0.00  0.00     0.000 A 
ATOM     15  C   UNL d   1      32.641  18.343 -23.201  0.00  0.00     0.001 A 
ATOM     16  C   UNL d   1      32.651  18.296 -24.636  0.00  0.00     0.000 C 
ATOM     17  C   UNL d   1      32.787  18.756 -22.502  0.00  0.00     0.006 A 
ENDBRANCH  10  11
ENDBRANCH   1  10
TORSDOF 3
ENDMDL
MODEL 2
REMARK VINA RESULT:      -2.8      4.194      5.582
REMARK  3 active torsions:
REMARK  status: ('A' for Active; 'I' for Inactive)
REMARK       I    between atoms: C_2  and  N_1 
REMARK    1  A    between atoms: C_3  and  C_2 
REMARK    2  A    between atoms: S_5  and  C_3 
REMARK    3  A    between atoms: C_7  and  S_5 
ROOT
ATOM      1  C   UNL d   1      30.909  16.921 -24.136  0.00  0.00     0.125 C 
ENDROOT
BRANCH   1   2
ATOM      2  C   UNL d   1      30.536  16.217 -23.922  0.00  0.00     0.259 C 
ATOM      3  N   UNL d   1      29.707  16.185 -23.861  0.00  0.00    -0.268 N 
ATOM      4  C   UNL d   1      29.326  15.486 -23.648  0.00  0.00     0.110 A 
ATOM      5  C   UNL d   1      29.265  16.865 -24.016  0.00  0.00     0.110 A 
ATOM      6  C   UNL d   1      28.502  15.466 -23.589  0.00  0.00     0.142 A 
ATOM      7  O   UNL d   1      28.062  16.146 -23.745  0.00  0.00    -0.300 OA
ATOM      8  C   UNL d   1      28.443  16.845 -23.958  0.00  0.00     0.142 A 
ATOM      9  O   UNL d   1      30.982  15.535 -23.767  0.00  0.00    -0.267 OA
ENDBRANCH   1   2
BRANCH   1  10
ATOM     10  S   UNL d   1      31.726  16.957 -24.130  0.00  0.00    -0.095 SA
BRANCH  10  11
ATOM     11  C   UNL d   1      32.106  17.682 -24.236  0.00  0.00     0.029 A 
ATOM     12  C   UNL d   1      32.148  18.018 -24.988  0.00  0.00     0.006 A 
ATOM     13  C   UNL d   1      32.527  18.743 -25.095  0.00  0.00     0.001 A 
ATOM     14  C   UNL d   1      32.864  19.130 -24.448  0.00  0.00     0.000 A 
ATOM     15  C   UNL d   1      32.822  18.794 -23.697  0.00  0.00     0.001 A 
ATOM     16  C   UNL d   1      33.241  19.855 -24.568  0.00  0.00     0.000 C 
ATOM     17  C   UNL d   1      32.443  18.069 -23.591  0.00  0.00     0.006 A 
ENDBRANCH  10  11
ENDBRANCH   1  10
TORSDOF 3
ENDMDL
MODEL 3
REMARK VINA RESULT:      -2.7      1.625      2.357
REMARK  3 active torsions:
REMARK  status: ('A' for Active; 'I' for Inactive)
REMARK       I    between atoms: C_2  and  N_1 
REMARK    1  A    between atoms: C_3  and  C_2 
REMARK    2  A    between atoms: S_5  and  C_3 
REMARK    3  A    between atoms: C_7  and  S_5 
ROOT
ATOM      1  C   UNL d   1      32.951  19.199 -22.905  0.00  0.00     0.125 C 
ENDROOT
BRANCH   1   2
ATOM      2  C   UNL d   1      33.095  20.009 -22.964  0.00  0.00     0.259 C 
ATOM      3  N   UNL d   1      33.097  20.484 -22.281  0.00  0.00    -0.268 N 
ATOM      4  C   UNL d   1      33.239  21.294 -22.330  0.00  0.00     0.110 A 
ATOM      5  C   UNL d   1      32.954  20.134 -21.547  0.00  0.00     0.110 A 
ATOM      6  C   UNL d   1      33.239  21.756 -21.646  0.00  0.00     0.142 A 
ATOM      7  O   UNL d   1      33.096  21.406 -20.913  0.00  0.00    -0.300 OA
ATOM      8  C   UNL d   1      32.954  20.596 -20.863  0.00  0.00     0.142 A 
ATOM      9  O   UNL d   1      33.238  20.358 -23.702  0.00  0.00    -0.267 OA
ENDBRANCH   1   2
BRANCH   1  10
ATOM     10  S   UNL d   1      32.966  18.741 -23.583  0.00  0.00    -0.095 SA
BRANCH  10  11
ATOM     11  C   UNL d   1      32.715  17.956 -23.553  0.00  0.00     0.029 A 
ATOM     12  C   UNL d   1      31.942  17.762 -23.767  0.00  0.00     0.006 A 
ATOM     13  C   UNL d   1      31.690  16.977 -23.738  0.00  0.00     0.001 A 
ATOM     14  C   UNL d   1      32.212  16.386 -23.493  0.00  0.00     0.000 A 
ATOM     15  C   UNL d   1      32.984  16.580 -23.279  0.00  0.00     0.001 A 
ATOM     16  C   UNL d   1      31.948  15.605 -23.468  0.00  0.00     0.000 C 
ATOM     17  C   UNL d   1      33.236  17.365 -23.309  0.00  0.00     0.006 A 
ENDBRANCH  10  11
ENDBRANCH   1  10
TORSDOF 3
ENDMDL
MODEL 4
REMARK VINA RESULT:      -2.2      1.986      5.139
REMARK  3 active torsions:
REMARK  status: ('A' for Active; 'I' for Inactive)
REMARK       I    between atoms: C_2  and  N_1 
REMARK    1  A    between atoms: C_3  and  C_2 
REMARK    2  A    between atoms: S_5  and  C_3 
REMARK    3  A    between atoms: C_7  and  S_5 
ROOT
ATOM      1  C   UNL d   1      32.915  22.555 -19.968  0.00  0.00     0.125 C 
ENDROOT
BRANCH   1   2
ATOM      2  C   UNL d   1      32.923  22.522 -20.793  0.00  0.00     0.259 C 
ATOM      3  N   UNL d   1      33.005  21.790 -21.180  0.00  0.00    -0.268 N 
ATOM      4  C   UNL d   1      33.014  21.747 -22.003  0.00  0.00     0.110 A 
ATOM      5  C   UNL d   1      33.077  21.102 -20.730  0.00  0.00     0.110 A 
ATOM      6  C   UNL d   1      33.096  21.016 -22.377  0.00  0.00     0.142 A 
ATOM      7  O   UNL d   1      33.168  20.328 -21.927  0.00  0.00    -0.300 OA
ATOM      8  C   UNL d   1      33.159  20.371 -21.104  0.00  0.00     0.142 A 
ATOM      9  O   UNL d   1      32.850  23.214 -21.242  0.00  0.00    -0.267 OA
ENDBRANCH   1   2
BRANCH   1  10
ATOM     10  S   UNL d   1      32.819  23.280 -19.600  0.00  0.00    -0.095 SA
BRANCH  10  11
ATOM     11  C   UNL d   1      32.687  23.312 -18.786  0.00  0.00     0.029 A 
ATOM     12  C   UNL d   1      32.001  23.664 -18.494  0.00  0.00     0.006 A 
ATOM     13  C   UNL d   1      31.868  23.696 -17.680  0.00  0.00     0.001 A 
ATOM     14  C   UNL d   1      32.423  23.376 -17.159  0.00  0.00     0.000 A 
ATOM     15  C   UNL d   1      33.109  23.024 -17.452  0.00  0.00     0.001 A 
ATOM     16  C   UNL d   1      32.279  23.414 -16.348  0.00  0.00     0.000 C 
ATOM     17  C   UNL d   1      33.241  22.992 -18.266  0.00  0.00     0.006 A 
ENDBRANCH  10  11
ENDBRANCH   1  10
TORSDOF 3
ENDMDL
MODEL 5
REMARK VINA RESULT:      -2.1      4.326      5.670
REMARK  3 active torsions:
REMARK  status: ('A' for Active; 'I' for Inactive)
REMARK       I    between atoms: C_2  and  N_1 
REMARK    1  A    between atoms: C_3  and  C_2 
REMARK    2  A    between atoms: S_5  and  C_3 
REMARK    3  A    between atoms: C_7  and  S_5 
ROOT
ATOM      1  C   UNL d   1      31.019  16.585 -24.102  0.00  0.00     0.125 C 
ENDROOT
BRANCH   1   2
ATOM      2  C   UNL d   1      31.831  16.673 -24.219  0.00  0.00     0.259 C 
ATOM      3  N   UNL d   1      32.138  17.400 -24.484  0.00  0.00    -0.268 N 
ATOM      4  C   UNL d   1      32.947  17.498 -24.604  0.00  0.00     0.110 A 
ATOM      5  C   UNL d   1      31.620  18.028 -24.627  0.00  0.00     0.110 A 
ATOM      6  C   UNL d   1      33.241  18.223 -24.866  0.00  0.00     0.142 A 
ATOM      7  O   UNL d   1      32.724  18.850 -25.009  0.00  0.00    -0.300 OA
ATOM      8  C   UNL d   1      31.914  18.752 -24.890  0.00  0.00     0.142 A 
ATOM      9  O   UNL d   1      32.348  16.042 -24.075  0.00  0.00    -0.267 OA
ENDBRANCH   1   2
BRANCH   1  10
ATOM     10  S   UNL d   1      30.713  15.836 -23.978  0.00  0.00    -0.095 SA
BRANCH  10  11
ATOM     11  C   UNL d   1      29.905  15.739 -23.844  0.00  0.00     0.029 A 
ATOM     12  C   UNL d   1      29.601  15.822 -23.081  0.00  0.00     0.006 A 
ATOM     13  C   UNL d   1      28.793  15.725 -22.947  0.00  0.00     0.001 A 
ATOM     14  C   UNL d   1      28.289  15.546 -23.576  0.00  0.00     0.000 A 
ATOM     15  C   UNL d   1      28.593  15.464 -24.338  0.00  0.00     0.001 A 
ATOM     16  C   UNL d   1      27.483  15.453 -23.428  0.00  0.00     0.000 C 
ATOM     17  C   UNL d   1      29.402  15.561 -24.472  0.00  0.00     0.006 A 
ENDBRANCH  10  11
ENDBRANCH   1  10
TORSDOF 3
ENDMDL
MODEL 6
REMARK VINA RESULT:      -1.9      1.493      4.518
REMARK  3 active torsions:
REMARK  status: ('A' for Active; 'I' for Inactive)
REMARK       I    between atoms: C_2  and  N_1 
REMARK    1  A    between atoms: C_3  and  C_2 
REMARK    2  A    between atoms: S_5  and  C_3 
REMARK    3  A    between atoms: C_7  and  S_5 
ROOT
ATOM      1  C   UNL d   1      33.012  21.569 -21.504  0.00  0.00     0.125 C 
ENDROOT
BRANCH   1   2
ATOM      2  C   UNL d   1      33.069  21.326 -22.290  0.00  0.00     0.259 C 
ATOM      3  N   UNL d   1      33.120  20.515 -22.473  0.00  0.00    -0.268 N 
ATOM      4  C   UNL d   1      33.177  20.263 -23.256  0.00  0.00     0.110 A 
ATOM      5  C   UNL d   1      33.113  19.962 -21.860  0.00  0.00     0.110 A 
ATOM      6  C   UNL d   1      33.227  19.457 -23.427  0.00  0.00     0.142 A 
ATOM      7  O   UNL d   1      33.221  18.905 -22.814  0.00  0.00    -0.300 OA
ATOM      8  C   UNL d   1      33.164  19.157 -22.032  0.00  0.00     0.142 A 
ATOM      9  O   UNL d   1      33.075  21.883 -22.904  0.00  0.00    -0.267 OA
ENDBRANCH   1   2
BRANCH   1  10
ATOM     10  S   UNL d   1      32.835  22.351 -21.341  0.00  0.00    -0.095 SA
BRANCH  10  11
ATOM     11  C   UNL d   1      32.859  22.624 -20.563  0.00  0.00     0.029 A 
ATOM     12  C   UNL d   1      33.168  22.143 -19.967  0.00  0.00     0.006 A 
ATOM     13  C   UNL d   1      33.192  22.416 -19.189  0.00  0.00     0.001 A 
ATOM     14  C   UNL d   1      32.907  23.169 -19.007  0.00  0.00     0.000 A 
ATOM     15  C   UNL d   1      32.599  23.648 -19.602  0.00  0.00     0.001 A 
ATOM     16  C   UNL d   1      32.937  23.429 -18.225  0.00  0.00     0.000 C 
ATOM     17  C   UNL d   1      32.574  23.376 -20.380  0.00  0.00     0.006 A 
ENDBRANCH  10  11
ENDBRANCH   1  10
TORSDOF 3
ENDMDL
MODEL 7
REMARK VINA RESULT:       0.1      5.081      6.406
REMARK  3 active torsions:
REMARK  status: ('A' for Active; 'I' for Inactive)
REMARK       I    between atoms: C_2  and  N_1 
REMARK    1  A    between atoms: C_3  and  C_2 
REMARK    2  A    between atoms: S_5  and  C_3 
REMARK    3  A    between atoms: C_7  and  S_5 
ROOT
ATOM      1  C   UNL d   1      29.609  16.416 -24.216  0.00  0.00     0.125 C 
ENDROOT
BRANCH   1   2
ATOM      2  C   UNL d   1      28.972  15.935 -24.423  0.00  0.00     0.259 C 
ATOM      3  N   UNL d   1      28.283  15.930 -23.955  0.00  0.00    -0.268 N 
ATOM      4  C   UNL d   1      27.642  15.453 -24.154  0.00  0.00     0.110 A 
ATOM      5  C   UNL d   1      28.249  16.410 -23.284  0.00  0.00     0.110 A 
ATOM      6  C   UNL d   1      26.964  15.455 -23.683  0.00  0.00     0.142 A 
ATOM      7  O   UNL d   1      26.929  15.934 -23.013  0.00  0.00    -0.300 OA
ATOM      8  C   UNL d   1      27.571  16.411 -22.814  0.00  0.00     0.142 A 
ATOM      9  O   UNL d   1      29.009  15.454 -25.097  0.00  0.00    -0.267 OA
ENDBRANCH   1   2
BRANCH   1  10
ATOM     10  S   UNL d   1      30.367  16.184 -24.420  0.00  0.00    -0.095 SA
BRANCH  10  11
ATOM     11  C   UNL d   1      30.962  16.749 -24.499  0.00  0.00     0.029 A 
ATOM     12  C   UNL d   1      30.767  17.549 -24.546  0.00  0.00     0.006 A 
ATOM     13  C   UNL d   1      31.363  18.115 -24.624  0.00  0.00     0.001 A 
ATOM     14  C   UNL d   1      32.153  17.879 -24.655  0.00  0.00     0.000 A 
ATOM     15  C   UNL d   1      32.348  17.079 -24.608  0.00  0.00     0.001 A 
ATOM     16  C   UNL d   1      32.739  18.455 -24.734  0.00  0.00     0.000 C 
ATOM     17  C   UNL d   1      31.752  16.514 -24.530  0.00  0.00     0.006 A 
ENDBRANCH  10  11
ENDBRANCH   1  10
TORSDOF 3
ENDMDL
