MODEL 1
REMARK VINA RESULT:       7.7      0.000      0.000
REMARK  5 active torsions:
REMARK  status: ('A' for Active; 'I' for Inactive)
REMARK    1  A    between atoms: C_10  and  C_4 
REMARK       I    between atoms: C_6  and  N_8 
REMARK    2  A    between atoms: C_9  and  C_6 
REMARK    3  A    between atoms: N_8  and  C_13 
REMARK    4  A    between atoms: C_11  and  C_9 
REMARK    5  A    between atoms: C_13  and  C_10 
ROOT
ATOM      1  C   UNL d   1      46.074 -17.378  44.540  0.00  0.00     0.279 C 
ATOM      2  O   UNL d   1      46.262 -18.067  44.955  0.00  0.00    -0.265 OA
ATOM      3  N   UNL d   1      45.924 -16.685  44.947  0.00  0.00    -0.206 NA
ENDROOT
BRANCH   1   4
ATOM      4  C   UNL d   1      46.041 -17.396  43.717  0.00  0.00     0.062 C 
BRANCH   4   5
ATOM      5  C   UNL d   1      46.195 -18.102  43.305  0.00  0.00     0.005 A 
ATOM      6  C   UNL d   1      46.130 -18.805  43.704  0.00  0.00     0.001 A 
ATOM      7  C   UNL d   1      46.282 -19.508  43.301  0.00  0.00     0.011 A 
ATOM      8  C   UNL d   1      46.496 -19.501  42.508  0.00  0.00     0.058 A 
ATOM      9  C   UNL d   1      46.561 -18.785  42.106  0.00  0.00     0.011 A 
ATOM     10 CL   UNL d   1      46.647 -20.216  42.111  0.00  0.00    -0.082 Cl
ATOM     11  C   UNL d   1      46.409 -18.082  42.509  0.00  0.00     0.001 A 
ENDBRANCH   4   5
ENDBRANCH   1   4
BRANCH   3  12
ATOM     12  C   UNL d   1      45.733 -15.985  44.520  0.00  0.00     0.104 C 
BRANCH  12  13
ATOM     13  C   UNL d   1      45.297 -15.392  44.894  0.00  0.00     0.040 C 
BRANCH  13  14
ATOM     14  C   UNL d   1      45.326 -14.617  44.591  0.00  0.00     0.090 A 
ATOM     15  N   UNL d   1      45.817 -14.056  44.946  0.00  0.00    -0.238 NA
ATOM     16  C   UNL d   1      45.732 -13.347  44.533  0.00  0.00     0.111 A 
ATOM     17  S   UNL d   1      45.195 -13.467  43.930  0.00  0.00    -0.066 SA
ATOM     18  C   UNL d   1      46.120 -12.631  44.694  0.00  0.00     0.028 C 
ATOM     19  C   UNL d   1      44.937 -14.249  43.956  0.00  0.00     0.056 A 
ENDBRANCH  13  14
ENDBRANCH  12  13
ENDBRANCH   3  12
TORSDOF 5
ENDMDL
