MODEL 1
REMARK VINA RESULT:      25.1      0.000      0.000
REMARK  5 active torsions:
REMARK  status: ('A' for Active; 'I' for Inactive)
REMARK    1  A    between atoms: S_2  and  C_1 
REMARK    2  A    between atoms: C_9  and  S_2 
REMARK    3  A    between atoms: C_8  and  N_3 
REMARK    4  A    between atoms: C_7  and  C_8 
REMARK       I    between atoms: N_12  and  C_7 
REMARK    5  A    between atoms: C_14  and  C_9 
ROOT
ATOM      1  C   UNL d   1      46.065 -17.785  43.937  0.00  0.00     0.107 A 
ATOM      2  N   UNL d   1      46.373 -18.475  42.839  0.00  0.00    -0.299 N 
ATOM      3  C   UNL d   1      46.167 -17.726  43.116  0.00  0.00     0.092 A 
ATOM      4  C   UNL d   1      46.209 -18.567  44.158  0.00  0.00     0.028 A 
ATOM      5  C   UNL d   1      46.400 -18.993  43.475  0.00  0.00     0.065 A 
ATOM      6  C   UNL d   1      46.190 -18.943  44.890  0.00  0.00     0.002 A 
ATOM      7  C   UNL d   1      46.572 -19.798  43.534  0.00  0.00     0.018 A 
ATOM      8  C   UNL d   1      46.363 -19.752  44.950  0.00  0.00     0.000 A 
ATOM      9  C   UNL d   1      46.553 -20.175  44.265  0.00  0.00     0.002 A 
ENDROOT
BRANCH   1  10
ATOM     10  S   UNL d   1      45.855 -17.164  44.445  0.00  0.00     0.212 S 
ATOM     11  O   UNL d   1      45.216 -17.053  43.936  0.00  0.00    -0.217 OA
ATOM     12  O   UNL d   1      46.498 -17.279  44.954  0.00  0.00    -0.217 OA
BRANCH  10  13
ATOM     13  C   UNL d   1      45.648 -16.548  44.951  0.00  0.00     0.099 C 
BRANCH  13  14
ATOM     14  C   UNL d   1      45.591 -15.781  44.661  0.00  0.00     0.011 A 
ATOM     15  C   UNL d   1      44.905 -15.344  44.794  0.00  0.00     0.001 A 
ATOM     16  C   UNL d   1      44.851 -14.566  44.498  0.00  0.00     0.000 A 
ATOM     17  C   UNL d   1      45.485 -14.238  44.075  0.00  0.00     0.000 A 
ATOM     18  C   UNL d   1      46.165 -14.689  43.950  0.00  0.00     0.000 A 
ATOM     19  C   UNL d   1      46.216 -15.453  44.242  0.00  0.00     0.001 A 
ENDBRANCH  13  14
ENDBRANCH  10  13
ENDBRANCH   1  10
BRANCH   2  20
ATOM     20  C   UNL d   1      46.527 -18.669  42.052  0.00  0.00     0.142 C 
BRANCH  20  21
ATOM     21  C   UNL d   1      45.986 -18.470  41.465  0.00  0.00     0.283 C 
ATOM     22  N   UNL d   1      46.045 -18.810  40.716  0.00  0.00    -0.268 N 
ATOM     23  C   UNL d   1      45.502 -18.613  40.119  0.00  0.00     0.102 C 
ATOM     24  C   UNL d   1      46.646 -19.350  40.554  0.00  0.00     0.102 C 
ATOM     25  O   UNL d   1      45.386 -17.931  41.626  0.00  0.00    -0.265 OA
ENDBRANCH  20  21
ENDBRANCH   2  20
TORSDOF 5
ENDMDL
