MODEL 1
REMARK VINA RESULT:      36.3      0.000      0.000
REMARK  3 active torsions:
REMARK  status: ('A' for Active; 'I' for Inactive)
REMARK    1  A    between atoms: C_8  and  C_4 
REMARK    2  A    between atoms: N_5  and  C_7 
REMARK    3  A    between atoms: C_12  and  C_6 
ROOT
ATOM      1  O   UNL d   1     -57.211-100.018 -44.140  0.00  0.00    -0.268 OA
ATOM      2  N   UNL d   1     -56.355 -99.189 -44.743  0.00  0.00    -0.121 NA
ATOM      3  N   UNL d   1     -57.068 -98.786 -44.645  0.00  0.00    -0.121 NA
ATOM      4  C   UNL d   1     -56.439 -99.943 -44.436  0.00  0.00     0.204 A 
ATOM      5  C   UNL d   1     -57.600 -99.294 -44.273  0.00  0.00     0.204 A 
ENDROOT
BRANCH   4   6
ATOM      6  C   UNL d   1     -55.861-100.536 -44.416  0.00  0.00     0.045 A 
ATOM      7  C   UNL d   1     -55.710-100.943 -43.715  0.00  0.00     0.027 A 
ATOM      8  C   UNL d   1     -55.137-101.531 -43.700  0.00  0.00     0.127 A 
ATOM      9  C   UNL d   1     -54.711-101.714 -44.385  0.00  0.00     0.024 A 
ATOM     10  C   UNL d   1     -54.860-101.310 -45.084  0.00  0.00     0.002 A 
ATOM     11  C   UNL d   1     -55.435-100.719 -45.101  0.00  0.00     0.004 A 
BRANCH   8  12
ATOM     12  N   UNL d   1     -54.989-101.939 -42.989  0.00  0.00    -0.114 N 
ATOM     13  O   UNL d   1     -55.112-102.762 -42.952  0.00  0.00    -0.532 OA
ATOM     14  O   UNL d   1     -54.721-101.533 -42.322  0.00  0.00    -0.532 OA
ENDBRANCH   8  12
ENDBRANCH   4   6
BRANCH   5  15
ATOM     15  C   UNL d   1     -58.377 -99.117 -44.069  0.00  0.00     0.043 A 
ATOM     16  C   UNL d   1     -58.571 -98.949 -43.288  0.00  0.00     0.004 A 
ATOM     17  C   UNL d   1     -59.356 -98.770 -43.086  0.00  0.00     0.000 A 
ATOM     18  C   UNL d   1     -59.938 -98.761 -43.668  0.00  0.00     0.000 A 
ATOM     19  C   UNL d   1     -59.735 -98.931 -44.453  0.00  0.00     0.000 A 
ATOM     20  C   UNL d   1     -58.958 -99.109 -44.661  0.00  0.00     0.004 A 
ENDBRANCH   5  15
TORSDOF 3
ENDMDL
