MODEL 1
REMARK VINA RESULT:      -4.3      0.000      0.000
REMARK  3 active torsions:
REMARK  status: ('A' for Active; 'I' for Inactive)
REMARK    1  A    between atoms: C_7  and  C_1 
REMARK    2  A    between atoms: C_6  and  C_2 
REMARK    3  A    between atoms: C_3  and  C_6 
REMARK       I    between atoms: N_4  and  C_3 
ROOT
ATOM      1  C   UNL d   1      58.923  -0.451  29.088  0.00  0.00     0.038 A 
ATOM      2  C   UNL d   1      58.038  -0.502  30.116  0.00  0.00     0.043 A 
ATOM      3  C   UNL d   1      58.682  -0.932  29.710  0.00  0.00     0.016 A 
ATOM      4  C   UNL d   1      59.463  -0.411  28.455  0.00  0.00    -0.023 A 
ATOM      5  C   UNL d   1      58.477   0.273  29.057  0.00  0.00     0.013 A 
ATOM      6  C   UNL d   1      58.761  -0.013  28.948  0.00  0.00    -0.012 A 
ATOM      7  C   UNL d   1      57.827   0.681  29.483  0.00  0.00     0.023 A 
ATOM      8  C   UNL d   1      57.596   0.197  30.096  0.00  0.00     0.013 A 
ATOM      9  C   UNL d   1      58.531  -0.444  29.522  0.00  0.00    -0.023 A 
ATOM     10  C   UNL d   1      58.346   0.668  28.912  0.00  0.00    -0.027 A 
ENDROOT
BRANCH   2  11
ATOM     11  C   UNL d   1      57.603  -0.742  30.778  0.00  0.00     0.038 C 
BRANCH  11  12
ATOM     12  C   UNL d   1      57.599  -0.278  31.460  0.00  0.00     0.261 C 
ATOM     13  N   UNL d   1      57.069  -0.450  32.071  0.00  0.00    -0.268 N 
ATOM     14  C   UNL d   1      57.065   0.014  32.753  0.00  0.00     0.110 A 
ATOM     15  C   UNL d   1      56.545  -1.089  31.994  0.00  0.00     0.110 A 
ATOM     16  C   UNL d   1      56.539  -0.155  33.363  0.00  0.00     0.142 A 
ATOM     17  O   UNL d   1      56.013  -0.788  33.296  0.00  0.00    -0.300 OA
ATOM     18  C   UNL d   1      56.016  -1.253  32.614  0.00  0.00     0.142 A 
ATOM     19  O   UNL d   1      58.124   0.355  31.529  0.00  0.00    -0.267 OA
ENDBRANCH  11  12
ENDBRANCH   2  11
BRANCH   1  20
ATOM     20  C   UNL d   1      59.289  -1.183  29.215  0.00  0.00    -0.019 A 
ATOM     21  C   UNL d   1      58.896  -1.870  28.994  0.00  0.00    -0.004 A 
ATOM     22  C   UNL d   1      59.253  -2.600  29.117  0.00  0.00    -0.000 A 
ATOM     23  C   UNL d   1      59.994  -2.642  29.458  0.00  0.00    -0.000 A 
ATOM     24  C   UNL d   1      60.391  -1.944  29.682  0.00  0.00    -0.000 A 
ATOM     25  C   UNL d   1      60.362  -3.371  29.586  0.00  0.00    -0.000 C 
ATOM     26  C   UNL d   1      60.027  -1.216  29.555  0.00  0.00    -0.004 A 
ENDBRANCH   1  20
TORSDOF 3
ENDMDL
MODEL 2
REMARK VINA RESULT:      -3.6      1.106      1.712
REMARK  3 active torsions:
REMARK  status: ('A' for Active; 'I' for Inactive)
REMARK    1  A    between atoms: C_7  and  C_1 
REMARK    2  A    between atoms: C_6  and  C_2 
REMARK    3  A    between atoms: C_3  and  C_6 
REMARK       I    between atoms: N_4  and  C_3 
ROOT
ATOM      1  C   UNL d   1      60.252  -0.869  28.892  0.00  0.00     0.038 A 
ATOM      2  C   UNL d   1      59.381  -0.107  29.603  0.00  0.00     0.043 A 
ATOM      3  C   UNL d   1      59.515  -0.899  29.257  0.00  0.00     0.016 A 
ATOM      4  C   UNL d   1      60.791  -1.328  28.455  0.00  0.00    -0.023 A 
ATOM      5  C   UNL d   1      60.615  -0.104  28.976  0.00  0.00     0.013 A 
ATOM      6  C   UNL d   1      60.572  -0.502  28.858  0.00  0.00    -0.012 A 
ATOM      7  C   UNL d   1      60.454   0.682  29.334  0.00  0.00     0.023 A 
ATOM      8  C   UNL d   1      59.723   0.641  29.692  0.00  0.00     0.013 A 
ATOM      9  C   UNL d   1      59.897  -0.516  29.196  0.00  0.00    -0.023 A 
ATOM     10  C   UNL d   1      60.918   0.213  28.933  0.00  0.00    -0.027 A 
ENDROOT
BRANCH   2  11
ATOM     11  C   UNL d   1      58.724   0.158  30.031  0.00  0.00     0.038 C 
BRANCH  11  12
ATOM     12  C   UNL d   1      58.813   0.405  30.813  0.00  0.00     0.261 C 
ATOM     13  N   UNL d   1      58.157   0.418  31.316  0.00  0.00    -0.268 N 
ATOM     14  C   UNL d   1      58.245   0.665  32.098  0.00  0.00     0.110 A 
ATOM     15  C   UNL d   1      57.414   0.181  31.032  0.00  0.00     0.110 A 
ATOM     16  C   UNL d   1      57.595   0.679  32.602  0.00  0.00     0.142 A 
ATOM     17  O   UNL d   1      56.850   0.445  32.328  0.00  0.00    -0.300 OA
ATOM     18  C   UNL d   1      56.762   0.198  31.546  0.00  0.00     0.142 A 
ATOM     19  O   UNL d   1      59.554   0.639  31.089  0.00  0.00    -0.267 OA
ENDBRANCH  11  12
ENDBRANCH   2  11
BRANCH   1  20
ATOM     20  C   UNL d   1      59.806  -1.566  28.874  0.00  0.00    -0.019 A 
ATOM     21  C   UNL d   1      60.089  -2.232  29.265  0.00  0.00    -0.004 A 
ATOM     22  C   UNL d   1      59.652  -2.927  29.252  0.00  0.00    -0.000 A 
ATOM     23  C   UNL d   1      58.940  -2.957  28.852  0.00  0.00    -0.000 A 
ATOM     24  C   UNL d   1      58.655  -2.282  28.457  0.00  0.00    -0.000 A 
ATOM     25  C   UNL d   1      58.492  -3.652  28.833  0.00  0.00    -0.000 C 
ATOM     26  C   UNL d   1      59.099  -1.588  28.474  0.00  0.00    -0.004 A 
ENDBRANCH   1  20
TORSDOF 3
ENDMDL
MODEL 3
REMARK VINA RESULT:      -2.1      1.715      3.772
REMARK  3 active torsions:
REMARK  status: ('A' for Active; 'I' for Inactive)
REMARK    1  A    between atoms: C_7  and  C_1 
REMARK    2  A    between atoms: C_6  and  C_2 
REMARK    3  A    between atoms: C_3  and  C_6 
REMARK       I    between atoms: N_4  and  C_3 
ROOT
ATOM      1  C   UNL d   1      58.045   0.104  29.778  0.00  0.00     0.038 A 
ATOM      2  C   UNL d   1      59.022  -0.821  29.589  0.00  0.00     0.043 A 
ATOM      3  C   UNL d   1      58.378  -0.565  30.123  0.00  0.00     0.016 A 
ATOM      4  C   UNL d   1      57.448   0.674  29.886  0.00  0.00    -0.023 A 
ATOM      5  C   UNL d   1      58.430   0.307  29.047  0.00  0.00     0.013 A 
ATOM      6  C   UNL d   1      58.159   0.334  29.364  0.00  0.00    -0.012 A 
ATOM      7  C   UNL d   1      59.083   0.028  28.530  0.00  0.00     0.023 A 
ATOM      8  C   UNL d   1      59.405  -0.633  28.880  0.00  0.00     0.013 A 
ATOM      9  C   UNL d   1      58.474  -0.280  29.670  0.00  0.00    -0.023 A 
ATOM     10  C   UNL d   1      58.516   0.531  28.678  0.00  0.00    -0.027 A 
ENDROOT
BRANCH   2  11
ATOM     11  C   UNL d   1      59.532  -1.466  29.679  0.00  0.00     0.038 C 
BRANCH  11  12
ATOM     12  C   UNL d   1      59.408  -2.154  29.241  0.00  0.00     0.261 C 
ATOM     13  N   UNL d   1      59.944  -2.781  29.302  0.00  0.00    -0.268 N 
ATOM     14  C   UNL d   1      59.821  -3.469  28.864  0.00  0.00     0.110 A 
ATOM     15  C   UNL d   1      60.602  -2.714  29.803  0.00  0.00     0.110 A 
ATOM     16  C   UNL d   1      60.351  -4.095  28.922  0.00  0.00     0.142 A 
ATOM     17  O   UNL d   1      61.010  -4.039  29.419  0.00  0.00    -0.300 OA
ATOM     18  C   UNL d   1      61.133  -3.351  29.857  0.00  0.00     0.142 A 
ATOM     19  O   UNL d   1      58.752  -2.213  28.744  0.00  0.00    -0.267 OA
ENDBRANCH  11  12
ENDBRANCH   2  11
BRANCH   1  20
ATOM     20  C   UNL d   1      57.749  -0.187  30.495  0.00  0.00    -0.019 A 
ATOM     21  C   UNL d   1      57.972   0.179  31.197  0.00  0.00    -0.004 A 
ATOM     22  C   UNL d   1      57.682  -0.104  31.912  0.00  0.00    -0.000 A 
ATOM     23  C   UNL d   1      57.176  -0.745  31.925  0.00  0.00    -0.000 A 
ATOM     24  C   UNL d   1      56.952  -1.114  31.213  0.00  0.00    -0.000 A 
ATOM     25  C   UNL d   1      56.879  -1.038  32.640  0.00  0.00    -0.000 C 
ATOM     26  C   UNL d   1      57.246  -0.825  30.500  0.00  0.00    -0.004 A 
ENDBRANCH   1  20
TORSDOF 3
ENDMDL
