MODEL 1
REMARK VINA RESULT:      48.0      0.000      0.000
REMARK  3 active torsions:
REMARK  status: ('A' for Active; 'I' for Inactive)
REMARK    1  A    between atoms: C_8  and  N_2 
REMARK    2  A    between atoms: C_14  and  C_8 
REMARK    3  A    between atoms: N_13  and  C_14 
ROOT
ATOM      1  C   UNL d   1      46.218 -17.473  43.125  0.00  0.00     0.166 A 
ATOM      2  N   UNL d   1      46.433 -18.101  42.649  0.00  0.00    -0.288 N 
ATOM      3  C   UNL d   1      46.108 -17.706  43.913  0.00  0.00     0.117 A 
ATOM      4  C   UNL d   1      46.258 -18.489  43.916  0.00  0.00     0.037 A 
ATOM      5  C   UNL d   1      46.463 -18.741  43.122  0.00  0.00     0.067 A 
ATOM      6  N   UNL d   1      46.104 -16.708  42.957  0.00  0.00    -0.225 NA
ATOM      7  N   UNL d   1      45.889 -17.186  44.520  0.00  0.00    -0.241 NA
ATOM      8  C   UNL d   1      45.884 -16.187  43.569  0.00  0.00     0.101 A 
ATOM      9  C   UNL d   1      45.777 -16.430  44.350  0.00  0.00     0.099 A 
ATOM     10  C   UNL d   1      46.643 -19.509  42.954  0.00  0.00     0.018 A 
ATOM     11  C   UNL d   1      46.239 -19.011  44.524  0.00  0.00     0.010 A 
ATOM     12  C   UNL d   1      46.417 -19.776  44.365  0.00  0.00     0.035 A 
ATOM     13  C   UNL d   1      46.622 -20.028  43.571  0.00  0.00     0.008 A 
ATOM     14 BR   UNL d   1      46.407 -20.325  44.953  0.00  0.00    -0.049 Br
ATOM     15  C   UNL d   1      45.557 -15.901  44.954  0.00  0.00     0.021 A 
ATOM     16  C   UNL d   1      45.772 -15.427  43.396  0.00  0.00     0.021 A 
ATOM     17  C   UNL d   1      45.552 -14.907  44.005  0.00  0.00     0.002 A 
ATOM     18  C   UNL d   1      45.445 -15.146  44.783  0.00  0.00     0.002 A 
ENDROOT
BRANCH   2  19
ATOM     19  C   UNL d   1      46.596 -18.102  41.816  0.00  0.00     0.101 C 
BRANCH  19  20
ATOM     20  C   UNL d   1      46.314 -18.758  41.369  0.00  0.00     0.100 C 
BRANCH  20  21
ATOM     21  N   UNL d   1      46.075 -18.427  40.633  0.00  0.00    -0.298 N 
ATOM     22  C   UNL d   1      45.256 -18.281  40.485  0.00  0.00     0.107 A 
ATOM     23  C   UNL d   1      45.018 -17.953  39.756  0.00  0.00     0.142 A 
ATOM     24  O   UNL d   1      45.590 -17.769  39.171  0.00  0.00    -0.300 OA
ATOM     25  C   UNL d   1      46.403 -17.917  39.324  0.00  0.00     0.142 A 
ATOM     26  C   UNL d   1      46.645 -18.247  40.057  0.00  0.00     0.107 A 
ENDBRANCH  20  21
ENDBRANCH  19  20
ENDBRANCH   2  19
TORSDOF 3
ENDMDL
MODEL 2
REMARK VINA RESULT:      51.0      1.878      4.005
REMARK  3 active torsions:
REMARK  status: ('A' for Active; 'I' for Inactive)
REMARK    1  A    between atoms: C_8  and  N_2 
REMARK    2  A    between atoms: C_14  and  C_8 
REMARK    3  A    between atoms: N_13  and  C_14 
ROOT
ATOM      1  C   UNL d   1      46.249 -17.803  42.932  0.00  0.00     0.166 A 
ATOM      2  N   UNL d   1      46.145 -17.095  42.538  0.00  0.00    -0.288 N 
ATOM      3  C   UNL d   1      46.420 -18.424  42.411  0.00  0.00     0.117 A 
ATOM      4  C   UNL d   1      46.421 -18.089  41.688  0.00  0.00     0.037 A 
ATOM      5  C   UNL d   1      46.248 -17.252  41.765  0.00  0.00     0.067 A 
ATOM      6  N   UNL d   1      46.212 -17.980  43.703  0.00  0.00    -0.225 NA
ATOM      7  N   UNL d   1      46.552 -19.206  42.654  0.00  0.00    -0.241 NA
ATOM      8  C   UNL d   1      46.345 -18.767  43.945  0.00  0.00     0.101 A 
ATOM      9  C   UNL d   1      46.515 -19.377  43.417  0.00  0.00     0.099 A 
ATOM     10  C   UNL d   1      46.212 -16.766  41.122  0.00  0.00     0.018 A 
ATOM     11  C   UNL d   1      46.553 -18.420  40.970  0.00  0.00     0.010 A 
ATOM     12  C   UNL d   1      46.518 -17.944  40.327  0.00  0.00     0.035 A 
ATOM     13  C   UNL d   1      46.346 -17.107  40.404  0.00  0.00     0.008 A 
ATOM     14 BR   UNL d   1      46.646 -18.245  39.592  0.00  0.00    -0.049 Br
ATOM     15  C   UNL d   1      46.646 -20.160  43.669  0.00  0.00     0.021 A 
ATOM     16  C   UNL d   1      46.307 -18.937  44.712  0.00  0.00     0.021 A 
ATOM     17  C   UNL d   1      46.440 -19.720  44.955  0.00  0.00     0.002 A 
ATOM     18  C   UNL d   1      46.609 -20.330  44.432  0.00  0.00     0.002 A 
ENDROOT
BRANCH   2  19
ATOM     19  C   UNL d   1      45.964 -16.332  42.862  0.00  0.00     0.101 C 
BRANCH  19  20
ATOM     20  C   UNL d   1      46.100 -16.222  43.686  0.00  0.00     0.100 C 
BRANCH  20  21
ATOM     21  N   UNL d   1      45.811 -15.448  43.848  0.00  0.00    -0.298 N 
ATOM     22  C   UNL d   1      45.228 -15.335  44.450  0.00  0.00     0.107 A 
ATOM     23  C   UNL d   1      44.941 -14.569  44.611  0.00  0.00     0.142 A 
ATOM     24  O   UNL d   1      45.230 -13.911  44.177  0.00  0.00    -0.300 OA
ATOM     25  C   UNL d   1      45.809 -14.031  43.580  0.00  0.00     0.142 A 
ATOM     26  C   UNL d   1      46.099 -14.801  43.416  0.00  0.00     0.107 A 
ENDBRANCH  20  21
ENDBRANCH  19  20
ENDBRANCH   2  19
TORSDOF 3
ENDMDL
