MODEL 1
REMARK VINA RESULT:      -8.8      0.000      0.000
REMARK  4 active torsions:
REMARK  status: ('A' for Active; 'I' for Inactive)
REMARK    1  A    between atoms: N_8  and  C_1 
REMARK    2  A    between atoms: O_11  and  C_2 
REMARK       I    between atoms: C_12  and  N_8 
REMARK    3  A    between atoms: C_16  and  O_11 
REMARK    4  A    between atoms: O_22  and  C_17 
ROOT
ATOM      1  C   UNL d   1     -46.451  12.584  23.283  0.00  0.00     0.272 A 
ATOM      2  C   UNL d   1     -46.906  13.206  23.211  0.00  0.00     0.284 A 
ATOM      3  C   UNL d   1     -45.429  11.348  23.390  0.00  0.00     0.207 A 
ATOM      4  C   UNL d   1     -45.383  12.260  23.074  0.00  0.00     0.220 A 
ATOM      5  O   UNL d   1     -46.954  12.290  23.529  0.00  0.00    -0.325 OA
ATOM      6  C   UNL d   1     -45.931  11.999  23.323  0.00  0.00     0.182 A 
ATOM      7  O   UNL d   1     -44.678  11.136  23.238  0.00  0.00    -0.327 OA
ATOM      8  C   UNL d   1     -44.717  10.510  23.457  0.00  0.00     0.188 A 
ATOM      9  O   UNL d   1     -45.387  10.774  23.568  0.00  0.00    -0.332 OA
ATOM     10  C   UNL d   1     -45.949  11.382  23.533  0.00  0.00     0.177 A 
ATOM     11  O   UNL d   1     -45.023  11.726  23.144  0.00  0.00    -0.290 OA
ATOM     12  C   UNL d   1     -44.015  10.416  23.280  0.00  0.00     0.061 C 
ATOM     13  C   UNL d   1     -44.738   9.818  23.693  0.00  0.00     0.061 C 
ENDROOT
BRANCH   2  14
ATOM     14  O   UNL d   1     -47.659  13.419  23.364  0.00  0.00    -0.303 OA
BRANCH  14  15
ATOM     15  C   UNL d   1     -48.268  13.184  22.842  0.00  0.00     0.097 A 
ATOM     16  C   UNL d   1     -48.787  12.588  23.073  0.00  0.00     0.026 A 
ATOM     17  C   UNL d   1     -49.396  12.349  22.558  0.00  0.00     0.026 A 
ATOM     18  C   UNL d   1     -49.475  12.715  21.815  0.00  0.00     0.094 A 
ATOM     19  C   UNL d   1     -48.947  13.316  21.590  0.00  0.00     0.026 A 
ATOM     20  C   UNL d   1     -48.339  13.553  22.106  0.00  0.00     0.026 A 
BRANCH  18  21
ATOM     21  O   UNL d   1     -50.084  12.476  21.301  0.00  0.00    -0.328 OA
ATOM     22  C   UNL d   1     -50.874  12.611  21.501  0.00  0.00     0.181 C 
ENDBRANCH  18  21
ENDBRANCH  14  15
ENDBRANCH   2  14
BRANCH   1  23
ATOM     23  N   UNL d   1     -46.431  13.203  23.071  0.00  0.00    -0.380 NA
ATOM     24  C   UNL d   1     -46.410  13.820  22.862  0.00  0.00     0.324 C 
ATOM     25  O   UNL d   1     -46.444  13.949  22.222  0.00  0.00    -0.251 OA
ATOM     26  C   UNL d   1     -46.357  14.315  23.291  0.00  0.00     0.082 C 
ENDBRANCH   1  23
TORSDOF 4
ENDMDL
MODEL 2
REMARK VINA RESULT:      -7.4      1.575      2.304
REMARK  4 active torsions:
REMARK  status: ('A' for Active; 'I' for Inactive)
REMARK    1  A    between atoms: N_8  and  C_1 
REMARK    2  A    between atoms: O_11  and  C_2 
REMARK       I    between atoms: C_12  and  N_8 
REMARK    3  A    between atoms: C_16  and  O_11 
REMARK    4  A    between atoms: O_22  and  C_17 
ROOT
ATOM      1  C   UNL d   1     -47.504  12.553  23.067  0.00  0.00     0.272 A 
ATOM      2  C   UNL d   1     -48.171  12.233  23.292  0.00  0.00     0.284 A 
ATOM      3  C   UNL d   1     -46.085  13.123  22.570  0.00  0.00     0.207 A 
ATOM      4  C   UNL d   1     -46.510  12.256  22.605  0.00  0.00     0.220 A 
ATOM      5  O   UNL d   1     -47.746  13.105  23.258  0.00  0.00    -0.325 OA
ATOM      6  C   UNL d   1     -46.804  12.803  22.817  0.00  0.00     0.182 A 
ATOM      7  O   UNL d   1     -45.394  12.898  22.247  0.00  0.00    -0.327 OA
ATOM      8  C   UNL d   1     -45.108  13.499  22.226  0.00  0.00     0.188 A 
ATOM      9  O   UNL d   1     -45.763  13.629  22.519  0.00  0.00    -0.332 OA
ATOM     10  C   UNL d   1     -46.506  13.382  22.788  0.00  0.00     0.177 A 
ATOM     11  O   UNL d   1     -45.961  12.547  22.424  0.00  0.00    -0.290 OA
ATOM     12  C   UNL d   1     -44.515  13.193  21.929  0.00  0.00     0.061 C 
ATOM     13  C   UNL d   1     -44.775  14.149  22.194  0.00  0.00     0.061 C 
ENDROOT
BRANCH   2  14
ATOM     14  O   UNL d   1     -48.865  12.458  23.617  0.00  0.00    -0.303 OA
BRANCH  14  15
ATOM     15  C   UNL d   1     -49.418  12.882  23.157  0.00  0.00     0.097 A 
ATOM     16  C   UNL d   1     -49.770  12.514  22.511  0.00  0.00     0.026 A 
ATOM     17  C   UNL d   1     -50.322  12.932  22.048  0.00  0.00     0.026 A 
ATOM     18  C   UNL d   1     -50.512  13.718  22.244  0.00  0.00     0.094 A 
ATOM     19  C   UNL d   1     -50.152  14.082  22.897  0.00  0.00     0.026 A 
ATOM     20  C   UNL d   1     -49.601  13.663  23.358  0.00  0.00     0.026 A 
BRANCH  18  21
ATOM     21  O   UNL d   1     -51.064  14.135  21.781  0.00  0.00    -0.328 OA
ATOM     22  C   UNL d   1     -51.018  14.958  21.720  0.00  0.00     0.181 C 
ENDBRANCH  18  21
ENDBRANCH  14  15
ENDBRANCH   2  14
BRANCH   1  23
ATOM     23  N   UNL d   1     -47.801  11.971  23.095  0.00  0.00    -0.380 NA
ATOM     24  C   UNL d   1     -48.096  11.391  23.124  0.00  0.00     0.324 C 
ATOM     25  O   UNL d   1     -48.337  11.119  22.581  0.00  0.00    -0.251 OA
ATOM     26  C   UNL d   1     -48.154  11.075  23.698  0.00  0.00     0.082 C 
ENDBRANCH   1  23
TORSDOF 4
ENDMDL
MODEL 3
REMARK VINA RESULT:      -7.3      1.400      1.820
REMARK  4 active torsions:
REMARK  status: ('A' for Active; 'I' for Inactive)
REMARK    1  A    between atoms: N_8  and  C_1 
REMARK    2  A    between atoms: O_11  and  C_2 
REMARK       I    between atoms: C_12  and  N_8 
REMARK    3  A    between atoms: C_16  and  O_11 
REMARK    4  A    between atoms: O_22  and  C_17 
ROOT
ATOM      1  C   UNL d   1     -46.997  13.739  22.797  0.00  0.00     0.272 A 
ATOM      2  C   UNL d   1     -47.677  14.089  22.921  0.00  0.00     0.284 A 
ATOM      3  C   UNL d   1     -45.574  13.074  22.458  0.00  0.00     0.207 A 
ATOM      4  C   UNL d   1     -46.124  13.769  22.073  0.00  0.00     0.220 A 
ATOM      5  O   UNL d   1     -47.126  13.390  23.309  0.00  0.00    -0.325 OA
ATOM      6  C   UNL d   1     -46.300  13.433  22.608  0.00  0.00     0.182 A 
ATOM      7  O   UNL d   1     -44.970  13.108  21.942  0.00  0.00    -0.327 OA
ATOM      8  C   UNL d   1     -44.596  12.629  22.213  0.00  0.00     0.188 A 
ATOM      9  O   UNL d   1     -45.184  12.655  22.644  0.00  0.00    -0.332 OA
ATOM     10  C   UNL d   1     -45.921  12.967  22.858  0.00  0.00     0.177 A 
ATOM     11  O   UNL d   1     -45.560  13.462  21.991  0.00  0.00    -0.290 OA
ATOM     12  C   UNL d   1     -44.098  12.738  21.691  0.00  0.00     0.061 C 
ATOM     13  C   UNL d   1     -44.170  12.105  22.494  0.00  0.00     0.061 C 
ENDROOT
BRANCH   2  14
ATOM     14  O   UNL d   1     -48.283  14.056  23.438  0.00  0.00    -0.303 OA
BRANCH  14  15
ATOM     15  C   UNL d   1     -48.880  13.480  23.337  0.00  0.00     0.097 A 
ATOM     16  C   UNL d   1     -48.795  12.745  23.697  0.00  0.00     0.026 A 
ATOM     17  C   UNL d   1     -49.386  12.167  23.601  0.00  0.00     0.026 A 
ATOM     18  C   UNL d   1     -50.058  12.338  23.142  0.00  0.00     0.094 A 
ATOM     19  C   UNL d   1     -50.137  13.082  22.782  0.00  0.00     0.026 A 
ATOM     20  C   UNL d   1     -49.545  13.658  22.880  0.00  0.00     0.026 A 
BRANCH  18  21
ATOM     21  O   UNL d   1     -50.649  11.759  23.046  0.00  0.00    -0.328 OA
ATOM     22  C   UNL d   1     -50.901  11.311  23.693  0.00  0.00     0.181 C 
ENDBRANCH  18  21
ENDBRANCH  14  15
ENDBRANCH   2  14
BRANCH   1  23
ATOM     23  N   UNL d   1     -47.378  14.208  22.544  0.00  0.00    -0.380 NA
ATOM     24  C   UNL d   1     -47.756  14.676  22.294  0.00  0.00     0.324 C 
ATOM     25  O   UNL d   1     -48.071  14.574  21.731  0.00  0.00    -0.251 OA
ATOM     26  C   UNL d   1     -47.823  15.251  22.604  0.00  0.00     0.082 C 
ENDBRANCH   1  23
TORSDOF 4
ENDMDL
MODEL 4
REMARK VINA RESULT:      -7.2      1.438      4.069
REMARK  4 active torsions:
REMARK  status: ('A' for Active; 'I' for Inactive)
REMARK    1  A    between atoms: N_8  and  C_1 
REMARK    2  A    between atoms: O_11  and  C_2 
REMARK       I    between atoms: C_12  and  N_8 
REMARK    3  A    between atoms: C_16  and  O_11 
REMARK    4  A    between atoms: O_22  and  C_17 
ROOT
ATOM      1  C   UNL d   1     -48.193  13.650  23.077  0.00  0.00     0.272 A 
ATOM      2  C   UNL d   1     -47.594  14.128  22.971  0.00  0.00     0.284 A 
ATOM      3  C   UNL d   1     -49.493  12.715  23.228  0.00  0.00     0.207 A 
ATOM      4  C   UNL d   1     -49.265  13.511  22.728  0.00  0.00     0.220 A 
ATOM      5  O   UNL d   1     -47.820  13.329  23.475  0.00  0.00    -0.325 OA
ATOM      6  C   UNL d   1     -48.842  13.212  23.131  0.00  0.00     0.182 A 
ATOM      7  O   UNL d   1     -50.242  12.632  22.974  0.00  0.00    -0.327 OA
ATOM      8  C   UNL d   1     -50.391  12.085  23.321  0.00  0.00     0.188 A 
ATOM      9  O   UNL d   1     -49.700  12.225  23.508  0.00  0.00    -0.332 OA
ATOM     10  C   UNL d   1     -49.007  12.676  23.463  0.00  0.00     0.177 A 
ATOM     11  O   UNL d   1     -49.752  13.097  22.833  0.00  0.00    -0.290 OA
ATOM     12  C   UNL d   1     -51.060  12.097  23.030  0.00  0.00     0.061 C 
ATOM     13  C   UNL d   1     -50.577  11.483  23.694  0.00  0.00     0.061 C 
ENDROOT
BRANCH   2  14
ATOM     14  O   UNL d   1     -46.842  14.212  23.226  0.00  0.00    -0.303 OA
BRANCH  14  15
ATOM     15  C   UNL d   1     -46.241  13.729  22.904  0.00  0.00     0.097 A 
ATOM     16  C   UNL d   1     -46.072  13.007  23.261  0.00  0.00     0.026 A 
ATOM     17  C   UNL d   1     -45.474  12.521  22.946  0.00  0.00     0.026 A 
ATOM     18  C   UNL d   1     -45.053  12.770  22.273  0.00  0.00     0.094 A 
ATOM     19  C   UNL d   1     -45.230  13.500  21.919  0.00  0.00     0.026 A 
ATOM     20  C   UNL d   1     -45.828  13.984  22.236  0.00  0.00     0.026 A 
BRANCH  18  21
ATOM     21  O   UNL d   1     -44.455  12.284  21.958  0.00  0.00    -0.328 OA
ATOM     22  C   UNL d   1     -43.764  12.619  21.653  0.00  0.00     0.181 C 
ENDBRANCH  18  21
ENDBRANCH  14  15
ENDBRANCH   2  14
BRANCH   1  23
ATOM     23  N   UNL d   1     -48.029  14.188  22.743  0.00  0.00    -0.380 NA
ATOM     24  C   UNL d   1     -47.865  14.725  22.411  0.00  0.00     0.324 C 
ATOM     25  O   UNL d   1     -47.774  14.694  21.765  0.00  0.00    -0.251 OA
ATOM     26  C   UNL d   1     -47.790  15.298  22.723  0.00  0.00     0.082 C 
ENDBRANCH   1  23
TORSDOF 4
ENDMDL
MODEL 5
REMARK VINA RESULT:      -6.3      7.161      8.975
REMARK  4 active torsions:
REMARK  status: ('A' for Active; 'I' for Inactive)
REMARK    1  A    between atoms: N_8  and  C_1 
REMARK    2  A    between atoms: O_11  and  C_2 
REMARK       I    between atoms: C_12  and  N_8 
REMARK    3  A    between atoms: C_16  and  O_11 
REMARK    4  A    between atoms: O_22  and  C_17 
ROOT
ATOM      1  C   UNL d   1     -40.074  15.368  19.808  0.00  0.00     0.272 A 
ATOM      2  C   UNL d   1     -40.208  15.421  20.569  0.00  0.00     0.284 A 
ATOM      3  C   UNL d   1     -39.899  15.247  18.215  0.00  0.00     0.207 A 
ATOM      4  C   UNL d   1     -40.642  15.240  18.833  0.00  0.00     0.220 A 
ATOM      5  O   UNL d   1     -39.460  15.428  19.949  0.00  0.00    -0.325 OA
ATOM      6  C   UNL d   1     -40.019  15.306  19.028  0.00  0.00     0.182 A 
ATOM      7  O   UNL d   1     -40.311  15.157  17.541  0.00  0.00    -0.327 OA
ATOM      8  C   UNL d   1     -39.795  15.163  17.121  0.00  0.00     0.188 A 
ATOM      9  O   UNL d   1     -39.486  15.243  17.777  0.00  0.00    -0.332 OA
ATOM     10  C   UNL d   1     -39.526  15.309  18.602  0.00  0.00     0.177 A 
ATOM     11  O   UNL d   1     -40.504  15.198  18.202  0.00  0.00    -0.290 OA
ATOM     12  C   UNL d   1     -40.261  15.079  16.565  0.00  0.00     0.061 C 
ATOM     13  C   UNL d   1     -39.242  15.166  16.642  0.00  0.00     0.061 C 
ENDROOT
BRANCH   2  14
ATOM     14  O   UNL d   1     -39.795  15.511  21.245  0.00  0.00    -0.303 OA
BRANCH  14  15
ATOM     15  C   UNL d   1     -39.381  14.860  21.566  0.00  0.00     0.097 A 
ATOM     16  C   UNL d   1     -38.558  14.872  21.573  0.00  0.00     0.026 A 
ATOM     17  C   UNL d   1     -38.139  14.226  21.891  0.00  0.00     0.026 A 
ATOM     18  C   UNL d   1     -38.556  13.575  22.198  0.00  0.00     0.094 A 
ATOM     19  C   UNL d   1     -39.387  13.572  22.187  0.00  0.00     0.026 A 
ATOM     20  C   UNL d   1     -39.803  14.218  21.869  0.00  0.00     0.026 A 
BRANCH  18  21
ATOM     21  O   UNL d   1     -38.137  12.930  22.516  0.00  0.00    -0.328 OA
ATOM     22  C   UNL d   1     -37.940  12.917  23.318  0.00  0.00     0.181 C 
ENDBRANCH  18  21
ENDBRANCH  14  15
ENDBRANCH   2  14
BRANCH   1  23
ATOM     23  N   UNL d   1     -40.570  15.364  20.235  0.00  0.00    -0.380 NA
ATOM     24  C   UNL d   1     -41.063  15.363  20.661  0.00  0.00     0.324 C 
ATOM     25  O   UNL d   1     -41.369  14.803  20.804  0.00  0.00    -0.251 OA
ATOM     26  C   UNL d   1     -41.257  15.921  20.949  0.00  0.00     0.082 C 
ENDBRANCH   1  23
TORSDOF 4
ENDMDL
MODEL 6
REMARK VINA RESULT:      -5.9      7.652      8.992
REMARK  4 active torsions:
REMARK  status: ('A' for Active; 'I' for Inactive)
REMARK    1  A    between atoms: N_8  and  C_1 
REMARK    2  A    between atoms: O_11  and  C_2 
REMARK       I    between atoms: C_12  and  N_8 
REMARK    3  A    between atoms: C_16  and  O_11 
REMARK    4  A    between atoms: O_22  and  C_17 
ROOT
ATOM      1  C   UNL d   1     -39.753  14.600  18.011  0.00  0.00     0.272 A 
ATOM      2  C   UNL d   1     -40.147  15.264  18.056  0.00  0.00     0.284 A 
ATOM      3  C   UNL d   1     -38.993  13.194  17.837  0.00  0.00     0.207 A 
ATOM      4  C   UNL d   1     -39.709  13.657  17.381  0.00  0.00     0.220 A 
ATOM      5  O   UNL d   1     -39.427  14.802  18.515  0.00  0.00    -0.325 OA
ATOM      6  C   UNL d   1     -39.400  13.908  17.902  0.00  0.00     0.182 A 
ATOM      7  O   UNL d   1     -38.975  12.540  17.386  0.00  0.00    -0.327 OA
ATOM      8  C   UNL d   1     -38.481  12.227  17.704  0.00  0.00     0.188 A 
ATOM      9  O   UNL d   1     -38.556  12.853  18.071  0.00  0.00    -0.332 OA
ATOM     10  C   UNL d   1     -38.918  13.587  18.201  0.00  0.00     0.177 A 
ATOM     11  O   UNL d   1     -39.365  13.108  17.365  0.00  0.00    -0.290 OA
ATOM     12  C   UNL d   1     -38.545  11.672  17.234  0.00  0.00     0.061 C 
ATOM     13  C   UNL d   1     -37.940  11.867  18.039  0.00  0.00     0.061 C 
ENDROOT
BRANCH   2  14
ATOM     14  O   UNL d   1     -40.165  15.922  18.508  0.00  0.00    -0.303 OA
BRANCH  14  15
ATOM     15  C   UNL d   1     -40.200  15.850  19.340  0.00  0.00     0.097 A 
ATOM     16  C   UNL d   1     -40.926  15.708  19.701  0.00  0.00     0.026 A 
ATOM     17  C   UNL d   1     -40.969  15.636  20.529  0.00  0.00     0.026 A 
ATOM     18  C   UNL d   1     -40.276  15.707  20.984  0.00  0.00     0.094 A 
ATOM     19  C   UNL d   1     -39.547  15.850  20.612  0.00  0.00     0.026 A 
ATOM     20  C   UNL d   1     -39.508  15.922  19.784  0.00  0.00     0.026 A 
BRANCH  18  21
ATOM     21  O   UNL d   1     -40.318  15.634  21.813  0.00  0.00    -0.328 OA
ATOM     22  C   UNL d   1     -39.634  15.485  22.252  0.00  0.00     0.181 C 
ENDBRANCH  18  21
ENDBRANCH  14  15
ENDBRANCH   2  14
BRANCH   1  23
ATOM     23  N   UNL d   1     -40.237  14.921  17.711  0.00  0.00    -0.380 NA
ATOM     24  C   UNL d   1     -40.718  15.243  17.410  0.00  0.00     0.324 C 
ATOM     25  O   UNL d   1     -41.339  15.068  17.511  0.00  0.00    -0.251 OA
ATOM     26  C   UNL d   1     -40.582  15.742  17.006  0.00  0.00     0.082 C 
ENDBRANCH   1  23
TORSDOF 4
ENDMDL
