MODEL 1
REMARK VINA RESULT:      -8.1      0.000      0.000
REMARK  4 active torsions:
REMARK  status: ('A' for Active; 'I' for Inactive)
REMARK    1  A    between atoms: C_8  and  N_1 
REMARK    2  A    between atoms: C_7  and  C_2 
REMARK    3  A    between atoms: C_9  and  C_7 
REMARK    4  A    between atoms: C_17  and  C_8 
ROOT
ATOM      1  N   UNL d   1     -49.619  12.268  22.671  0.00  0.00    -0.224 N 
ATOM      2  C   UNL d   1     -48.206  12.084  22.710  0.00  0.00     0.117 A 
ATOM      3  C   UNL d   1     -48.873  12.430  22.362  0.00  0.00     0.273 A 
ATOM      4  C   UNL d   1     -49.701  11.775  23.311  0.00  0.00     0.359 A 
ATOM      5  N   UNL d   1     -49.038  11.438  23.649  0.00  0.00    -0.153 NA
ATOM      6  C   UNL d   1     -48.288  11.590  23.350  0.00  0.00     0.288 A 
ATOM      7  O   UNL d   1     -50.440  11.612  23.622  0.00  0.00    -0.244 OA
ATOM      8  O   UNL d   1     -48.791  12.925  21.720  0.00  0.00    -0.266 OA
ATOM      9  O   UNL d   1     -47.632  11.245  23.698  0.00  0.00    -0.265 OA
ENDROOT
BRANCH   1  10
ATOM     10  C   UNL d   1     -50.283  12.614  22.324  0.00  0.00     0.087 C 
BRANCH  10  11
ATOM     11  C   UNL d   1     -50.517  13.370  22.562  0.00  0.00     0.018 A 
ATOM     12  C   UNL d   1     -50.442  14.001  22.056  0.00  0.00     0.002 A 
ATOM     13  C   UNL d   1     -50.677  14.757  22.292  0.00  0.00     0.000 A 
ATOM     14  C   UNL d   1     -50.989  14.865  23.051  0.00  0.00     0.000 A 
ATOM     15  C   UNL d   1     -51.064  14.234  23.557  0.00  0.00     0.000 A 
ATOM     16  C   UNL d   1     -50.829  13.478  23.319  0.00  0.00     0.002 A 
ENDBRANCH  10  11
ENDBRANCH   1  10
BRANCH   2  17
ATOM     17  C   UNL d   1     -47.447  12.243  22.401  0.00  0.00     0.034 C 
BRANCH  17  18
ATOM     18  C   UNL d   1     -47.023  12.884  22.673  0.00  0.00     0.100 A 
ATOM     19  O   UNL d   1     -47.008  13.277  23.398  0.00  0.00    -0.305 OA
ATOM     20  C   UNL d   1     -46.474  13.877  23.344  0.00  0.00     0.123 A 
ATOM     21  C   UNL d   1     -46.145  13.882  22.605  0.00  0.00     0.029 A 
ATOM     22  C   UNL d   1     -46.482  13.266  22.181  0.00  0.00     0.027 A 
ENDBRANCH  17  18
ENDBRANCH   2  17
TORSDOF 4
ENDMDL
MODEL 2
REMARK VINA RESULT:      -8.0      0.867      3.364
REMARK  4 active torsions:
REMARK  status: ('A' for Active; 'I' for Inactive)
REMARK    1  A    between atoms: C_8  and  N_1 
REMARK    2  A    between atoms: C_7  and  C_2 
REMARK    3  A    between atoms: C_9  and  C_7 
REMARK    4  A    between atoms: C_17  and  C_8 
ROOT
ATOM      1  N   UNL d   1     -48.731  12.286  22.328  0.00  0.00    -0.224 N 
ATOM      2  C   UNL d   1     -50.055  12.800  22.444  0.00  0.00     0.117 A 
ATOM      3  C   UNL d   1     -49.285  12.867  22.147  0.00  0.00     0.273 A 
ATOM      4  C   UNL d   1     -48.937  11.653  22.794  0.00  0.00     0.359 A 
ATOM      5  N   UNL d   1     -49.698  11.595  23.084  0.00  0.00    -0.153 NA
ATOM      6  C   UNL d   1     -50.260  12.168  22.910  0.00  0.00     0.288 A 
ATOM      7  O   UNL d   1     -48.389  11.074  22.978  0.00  0.00    -0.244 OA
ATOM      8  O   UNL d   1     -49.079  13.502  21.679  0.00  0.00    -0.266 OA
ATOM      9  O   UNL d   1     -51.021  12.097  23.207  0.00  0.00    -0.265 OA
ENDROOT
BRANCH   1  10
ATOM     10  C   UNL d   1     -47.964  12.353  22.032  0.00  0.00     0.087 C 
BRANCH  10  11
ATOM     11  C   UNL d   1     -47.400  12.779  22.460  0.00  0.00     0.018 A 
ATOM     12  C   UNL d   1     -47.128  12.498  23.172  0.00  0.00     0.002 A 
ATOM     13  C   UNL d   1     -46.564  12.923  23.601  0.00  0.00     0.000 A 
ATOM     14  C   UNL d   1     -46.279  13.638  23.298  0.00  0.00     0.000 A 
ATOM     15  C   UNL d   1     -46.551  13.919  22.587  0.00  0.00     0.000 A 
ATOM     16  C   UNL d   1     -47.115  13.493  22.158  0.00  0.00     0.002 A 
ENDBRANCH  10  11
ENDBRANCH   1  10
BRANCH   2  17
ATOM     17  C   UNL d   1     -50.622  13.387  22.263  0.00  0.00     0.034 C 
BRANCH  17  18
ATOM     18  C   UNL d   1     -50.696  14.043  22.741  0.00  0.00     0.100 A 
ATOM     19  O   UNL d   1     -50.476  14.193  23.521  0.00  0.00    -0.305 OA
ATOM     20  C   UNL d   1     -50.692  14.948  23.698  0.00  0.00     0.123 A 
ATOM     21  C   UNL d   1     -51.045  15.288  23.055  0.00  0.00     0.029 A 
ATOM     22  C   UNL d   1     -51.051  14.730  22.454  0.00  0.00     0.027 A 
ENDBRANCH  17  18
ENDBRANCH   2  17
TORSDOF 4
ENDMDL
MODEL 3
REMARK VINA RESULT:      -7.6      1.188      3.570
REMARK  4 active torsions:
REMARK  status: ('A' for Active; 'I' for Inactive)
REMARK    1  A    between atoms: C_8  and  N_1 
REMARK    2  A    between atoms: C_7  and  C_2 
REMARK    3  A    between atoms: C_9  and  C_7 
REMARK    4  A    between atoms: C_17  and  C_8 
ROOT
ATOM      1  N   UNL d   1     -48.844  12.640  22.233  0.00  0.00    -0.224 N 
ATOM      2  C   UNL d   1     -50.001  13.462  22.359  0.00  0.00     0.117 A 
ATOM      3  C   UNL d   1     -49.367  13.061  22.709  0.00  0.00     0.273 A 
ATOM      4  C   UNL d   1     -48.948  12.616  21.428  0.00  0.00     0.359 A 
ATOM      5  N   UNL d   1     -49.577  13.014  21.091  0.00  0.00    -0.153 NA
ATOM      6  C   UNL d   1     -50.106  13.438  21.554  0.00  0.00     0.288 A 
ATOM      7  O   UNL d   1     -48.431  12.199  20.952  0.00  0.00    -0.244 OA
ATOM      8  O   UNL d   1     -49.262  13.085  23.517  0.00  0.00    -0.266 OA
ATOM      9  O   UNL d   1     -50.732  13.832  21.203  0.00  0.00    -0.265 OA
ENDROOT
BRANCH   1  10
ATOM     10  C   UNL d   1     -48.212  12.241  22.583  0.00  0.00     0.087 C 
BRANCH  10  11
ATOM     11  C   UNL d   1     -47.503  12.645  22.720  0.00  0.00     0.018 A 
ATOM     12  C   UNL d   1     -47.097  12.979  22.102  0.00  0.00     0.002 A 
ATOM     13  C   UNL d   1     -46.388  13.383  22.237  0.00  0.00     0.000 A 
ATOM     14  C   UNL d   1     -46.098  13.444  23.009  0.00  0.00     0.000 A 
ATOM     15  C   UNL d   1     -46.505  13.110  23.628  0.00  0.00     0.000 A 
ATOM     16  C   UNL d   1     -47.214  12.706  23.491  0.00  0.00     0.002 A 
ENDBRANCH  10  11
ENDBRANCH   1  10
BRANCH   2  17
ATOM     17  C   UNL d   1     -50.535  13.891  22.837  0.00  0.00     0.034 C 
BRANCH  17  18
ATOM     18  C   UNL d   1     -50.382  14.671  23.018  0.00  0.00     0.100 A 
ATOM     19  O   UNL d   1     -49.885  15.236  22.682  0.00  0.00    -0.305 OA
ATOM     20  C   UNL d   1     -49.966  15.918  23.101  0.00  0.00     0.123 A 
ATOM     21  C   UNL d   1     -50.500  15.809  23.698  0.00  0.00     0.029 A 
ATOM     22  C   UNL d   1     -50.765  15.034  23.653  0.00  0.00     0.027 A 
ENDBRANCH  17  18
ENDBRANCH   2  17
TORSDOF 4
ENDMDL
MODEL 4
REMARK VINA RESULT:      -7.5      1.367      2.240
REMARK  4 active torsions:
REMARK  status: ('A' for Active; 'I' for Inactive)
REMARK    1  A    between atoms: C_8  and  N_1 
REMARK    2  A    between atoms: C_7  and  C_2 
REMARK    3  A    between atoms: C_9  and  C_7 
REMARK    4  A    between atoms: C_17  and  C_8 
ROOT
ATOM      1  N   UNL d   1     -48.607  13.272  22.292  0.00  0.00    -0.224 N 
ATOM      2  C   UNL d   1     -47.332  13.568  22.858  0.00  0.00     0.117 A 
ATOM      3  C   UNL d   1     -47.905  13.013  22.636  0.00  0.00     0.273 A 
ATOM      4  C   UNL d   1     -48.737  14.065  22.173  0.00  0.00     0.359 A 
ATOM      5  N   UNL d   1     -48.167  14.606  22.395  0.00  0.00    -0.153 NA
ATOM      6  C   UNL d   1     -47.463  14.360  22.738  0.00  0.00     0.288 A 
ATOM      7  O   UNL d   1     -49.433  14.327  21.832  0.00  0.00    -0.244 OA
ATOM      8  O   UNL d   1     -47.773  12.217  22.756  0.00  0.00    -0.266 OA
ATOM      9  O   UNL d   1     -46.900  14.914  22.956  0.00  0.00    -0.265 OA
ENDROOT
BRANCH   1  10
ATOM     10  C   UNL d   1     -49.176  12.718  22.071  0.00  0.00     0.087 C 
BRANCH  10  11
ATOM     11  C   UNL d   1     -49.771  12.512  22.608  0.00  0.00     0.018 A 
ATOM     12  C   UNL d   1     -50.469  12.927  22.624  0.00  0.00     0.002 A 
ATOM     13  C   UNL d   1     -51.064  12.722  23.160  0.00  0.00     0.000 A 
ATOM     14  C   UNL d   1     -50.942  12.090  23.679  0.00  0.00     0.000 A 
ATOM     15  C   UNL d   1     -50.244  11.675  23.662  0.00  0.00     0.000 A 
ATOM     16  C   UNL d   1     -49.649  11.880  23.126  0.00  0.00     0.002 A 
ENDBRANCH  10  11
ENDBRANCH   1  10
BRANCH   2  17
ATOM     17  C   UNL d   1     -46.618  13.311  23.206  0.00  0.00     0.034 C 
BRANCH  17  18
ATOM     18  C   UNL d   1     -45.977  13.133  22.736  0.00  0.00     0.100 A 
ATOM     19  O   UNL d   1     -45.651  13.499  22.073  0.00  0.00    -0.305 OA
ATOM     20  C   UNL d   1     -45.012  13.068  21.840  0.00  0.00     0.123 A 
ATOM     21  C   UNL d   1     -44.918  12.435  22.334  0.00  0.00     0.029 A 
ATOM     22  C   UNL d   1     -45.515  12.468  22.895  0.00  0.00     0.027 A 
ENDBRANCH  17  18
ENDBRANCH   2  17
TORSDOF 4
ENDMDL
MODEL 5
REMARK VINA RESULT:      -7.1      1.671      4.135
REMARK  4 active torsions:
REMARK  status: ('A' for Active; 'I' for Inactive)
REMARK    1  A    between atoms: C_8  and  N_1 
REMARK    2  A    between atoms: C_7  and  C_2 
REMARK    3  A    between atoms: C_9  and  C_7 
REMARK    4  A    between atoms: C_17  and  C_8 
ROOT
ATOM      1  N   UNL d   1     -47.597  14.483  23.045  0.00  0.00    -0.224 N 
ATOM      2  C   UNL d   1     -48.989  14.418  22.746  0.00  0.00     0.117 A 
ATOM      3  C   UNL d   1     -48.326  14.109  23.133  0.00  0.00     0.273 A 
ATOM      4  C   UNL d   1     -47.529  15.148  22.584  0.00  0.00     0.359 A 
ATOM      5  N   UNL d   1     -48.189  15.446  22.206  0.00  0.00    -0.153 NA
ATOM      6  C   UNL d   1     -48.921  15.083  22.285  0.00  0.00     0.288 A 
ATOM      7  O   UNL d   1     -46.807  15.522  22.495  0.00  0.00    -0.244 OA
ATOM      8  O   UNL d   1     -48.394  13.442  23.595  0.00  0.00    -0.266 OA
ATOM      9  O   UNL d   1     -49.574  15.394  21.899  0.00  0.00    -0.265 OA
ENDROOT
BRANCH   1  10
ATOM     10  C   UNL d   1     -46.937  14.174  23.432  0.00  0.00     0.087 C 
BRANCH  10  11
ATOM     11  C   UNL d   1     -46.483  13.594  23.056  0.00  0.00     0.018 A 
ATOM     12  C   UNL d   1     -46.003  13.791  22.432  0.00  0.00     0.002 A 
ATOM     13  C   UNL d   1     -45.548  13.212  22.056  0.00  0.00     0.000 A 
ATOM     14  C   UNL d   1     -45.586  12.430  22.323  0.00  0.00     0.000 A 
ATOM     15  C   UNL d   1     -46.066  12.233  22.948  0.00  0.00     0.000 A 
ATOM     16  C   UNL d   1     -46.521  12.813  23.323  0.00  0.00     0.002 A 
ENDBRANCH  10  11
ENDBRANCH   1  10
BRANCH   2  17
ATOM     17  C   UNL d   1     -49.731  14.044  22.830  0.00  0.00     0.034 C 
BRANCH  17  18
ATOM     18  C   UNL d   1     -49.940  13.436  22.329  0.00  0.00     0.100 A 
ATOM     19  O   UNL d   1     -49.695  13.229  21.569  0.00  0.00    -0.305 OA
ATOM     20  C   UNL d   1     -50.097  12.567  21.351  0.00  0.00     0.123 A 
ATOM     21  C   UNL d   1     -50.594  12.341  21.948  0.00  0.00     0.029 A 
ATOM     22  C   UNL d   1     -50.501  12.878  22.561  0.00  0.00     0.027 A 
ENDBRANCH  17  18
ENDBRANCH   2  17
TORSDOF 4
ENDMDL
MODEL 6
REMARK VINA RESULT:      -7.1      1.055      1.423
REMARK  4 active torsions:
REMARK  status: ('A' for Active; 'I' for Inactive)
REMARK    1  A    between atoms: C_8  and  N_1 
REMARK    2  A    between atoms: C_7  and  C_2 
REMARK    3  A    between atoms: C_9  and  C_7 
REMARK    4  A    between atoms: C_17  and  C_8 
ROOT
ATOM      1  N   UNL d   1     -49.837  12.934  22.363  0.00  0.00    -0.224 N 
ATOM      2  C   UNL d   1     -48.458  12.578  22.311  0.00  0.00     0.117 A 
ATOM      3  C   UNL d   1     -49.119  12.813  22.749  0.00  0.00     0.273 A 
ATOM      4  C   UNL d   1     -49.896  12.824  21.561  0.00  0.00     0.359 A 
ATOM      5  N   UNL d   1     -49.238  12.591  21.136  0.00  0.00    -0.153 NA
ATOM      6  C   UNL d   1     -48.517  12.467  21.508  0.00  0.00     0.288 A 
ATOM      7  O   UNL d   1     -50.606  12.942  21.174  0.00  0.00    -0.244 OA
ATOM      8  O   UNL d   1     -49.060  12.924  23.554  0.00  0.00    -0.266 OA
ATOM      9  O   UNL d   1     -47.865  12.235  21.069  0.00  0.00    -0.265 OA
ENDROOT
BRANCH   1  10
ATOM     10  C   UNL d   1     -50.495  13.169  22.802  0.00  0.00     0.087 C 
BRANCH  10  11
ATOM     11  C   UNL d   1     -50.665  13.974  22.879  0.00  0.00     0.018 A 
ATOM     12  C   UNL d   1     -50.892  14.409  22.231  0.00  0.00     0.002 A 
ATOM     13  C   UNL d   1     -51.061  15.214  22.307  0.00  0.00     0.000 A 
ATOM     14  C   UNL d   1     -50.998  15.573  23.050  0.00  0.00     0.000 A 
ATOM     15  C   UNL d   1     -50.771  15.138  23.697  0.00  0.00     0.000 A 
ATOM     16  C   UNL d   1     -50.601  14.333  23.620  0.00  0.00     0.002 A 
ENDBRANCH  10  11
ENDBRANCH   1  10
BRANCH   2  17
ATOM     17  C   UNL d   1     -47.727  12.454  22.696  0.00  0.00     0.034 C 
BRANCH  17  18
ATOM     18  C   UNL d   1     -47.211  13.076  22.800  0.00  0.00     0.100 A 
ATOM     19  O   UNL d   1     -47.186  13.840  22.490  0.00  0.00    -0.305 OA
ATOM     20  C   UNL d   1     -46.541  14.211  22.797  0.00  0.00     0.123 A 
ATOM     21  C   UNL d   1     -46.150  13.709  23.295  0.00  0.00     0.029 A 
ATOM     22  C   UNL d   1     -46.561  12.999  23.303  0.00  0.00     0.027 A 
ENDBRANCH  17  18
ENDBRANCH   2  17
TORSDOF 4
ENDMDL
MODEL 7
REMARK VINA RESULT:      -6.2      9.114     10.651
REMARK  4 active torsions:
REMARK  status: ('A' for Active; 'I' for Inactive)
REMARK    1  A    between atoms: C_8  and  N_1 
REMARK    2  A    between atoms: C_7  and  C_2 
REMARK    3  A    between atoms: C_9  and  C_7 
REMARK    4  A    between atoms: C_17  and  C_8 
ROOT
ATOM      1  N   UNL d   1     -39.751  14.648  19.872  0.00  0.00    -0.224 N 
ATOM      2  C   UNL d   1     -39.732  14.333  18.482  0.00  0.00     0.117 A 
ATOM      3  C   UNL d   1     -39.337  14.593  19.162  0.00  0.00     0.273 A 
ATOM      4  C   UNL d   1     -40.537  14.450  19.907  0.00  0.00     0.359 A 
ATOM      5  N   UNL d   1     -40.919  14.194  19.231  0.00  0.00    -0.153 NA
ATOM      6  C   UNL d   1     -40.519  14.134  18.517  0.00  0.00     0.288 A 
ATOM      7  O   UNL d   1     -40.951  14.503  20.610  0.00  0.00    -0.244 OA
ATOM      8  O   UNL d   1     -38.548  14.793  19.127  0.00  0.00    -0.266 OA
ATOM      9  O   UNL d   1     -40.914  13.876  17.847  0.00  0.00    -0.265 OA
ENDROOT
BRANCH   1  10
ATOM     10  C   UNL d   1     -39.356  14.908  20.548  0.00  0.00     0.087 C 
BRANCH  10  11
ATOM     11  C   UNL d   1     -39.026  14.352  21.064  0.00  0.00     0.018 A 
ATOM     12  C   UNL d   1     -38.272  14.077  20.941  0.00  0.00     0.002 A 
ATOM     13  C   UNL d   1     -37.941  13.521  21.456  0.00  0.00     0.000 A 
ATOM     14  C   UNL d   1     -38.386  13.247  22.097  0.00  0.00     0.000 A 
ATOM     15  C   UNL d   1     -39.141  13.522  22.219  0.00  0.00     0.000 A 
ATOM     16  C   UNL d   1     -39.471  14.078  21.704  0.00  0.00     0.002 A 
ENDBRANCH  10  11
ENDBRANCH   1  10
BRANCH   2  17
ATOM     17  C   UNL d   1     -39.319  14.275  17.759  0.00  0.00     0.034 C 
BRANCH  17  18
ATOM     18  C   UNL d   1     -38.922  13.589  17.571  0.00  0.00     0.100 A 
ATOM     19  O   UNL d   1     -39.028  12.802  17.794  0.00  0.00    -0.305 OA
ATOM     20  C   UNL d   1     -38.462  12.362  17.430  0.00  0.00     0.123 A 
ATOM     21  C   UNL d   1     -37.993  12.842  16.979  0.00  0.00     0.029 A 
ATOM     22  C   UNL d   1     -38.273  13.608  17.061  0.00  0.00     0.027 A 
ENDBRANCH  17  18
ENDBRANCH   2  17
TORSDOF 4
ENDMDL
MODEL 8
REMARK VINA RESULT:      -5.6      9.196     10.596
REMARK  4 active torsions:
REMARK  status: ('A' for Active; 'I' for Inactive)
REMARK    1  A    between atoms: C_8  and  N_1 
REMARK    2  A    between atoms: C_7  and  C_2 
REMARK    3  A    between atoms: C_9  and  C_7 
REMARK    4  A    between atoms: C_17  and  C_8 
ROOT
ATOM      1  N   UNL d   1     -39.781  15.731  18.876  0.00  0.00    -0.224 N 
ATOM      2  C   UNL d   1     -39.936  15.781  20.292  0.00  0.00     0.117 A 
ATOM      3  C   UNL d   1     -39.446  15.716  19.628  0.00  0.00     0.273 A 
ATOM      4  C   UNL d   1     -40.585  15.807  18.785  0.00  0.00     0.359 A 
ATOM      5  N   UNL d   1     -41.062  15.870  19.446  0.00  0.00    -0.153 NA
ATOM      6  C   UNL d   1     -40.740  15.857  20.201  0.00  0.00     0.288 A 
ATOM      7  O   UNL d   1     -40.922  15.822  18.040  0.00  0.00    -0.244 OA
ATOM      8  O   UNL d   1     -38.640  15.640  19.719  0.00  0.00    -0.266 OA
ATOM      9  O   UNL d   1     -41.230  15.921  20.855  0.00  0.00    -0.265 OA
ENDROOT
BRANCH   1  10
ATOM     10  C   UNL d   1     -39.292  15.667  18.215  0.00  0.00     0.087 C 
BRANCH  10  11
ATOM     11  C   UNL d   1     -39.088  14.917  17.933  0.00  0.00     0.018 A 
ATOM     12  C   UNL d   1     -39.659  14.421  17.637  0.00  0.00     0.002 A 
ATOM     13  C   UNL d   1     -39.457  13.671  17.355  0.00  0.00     0.000 A 
ATOM     14  C   UNL d   1     -38.665  13.431  17.376  0.00  0.00     0.000 A 
ATOM     15  C   UNL d   1     -38.094  13.927  17.671  0.00  0.00     0.000 A 
ATOM     16  C   UNL d   1     -38.298  14.677  17.954  0.00  0.00     0.002 A 
ENDBRANCH  10  11
ENDBRANCH   1  10
BRANCH   2  17
ATOM     17  C   UNL d   1     -39.602  15.767  21.057  0.00  0.00     0.034 C 
BRANCH  17  18
ATOM     18  C   UNL d   1     -39.502  15.057  21.444  0.00  0.00     0.100 A 
ATOM     19  O   UNL d   1     -39.777  14.294  21.294  0.00  0.00    -0.305 OA
ATOM     20  C   UNL d   1     -39.495  13.810  21.872  0.00  0.00     0.123 A 
ATOM     21  C   UNL d   1     -39.047  14.239  22.391  0.00  0.00     0.029 A 
ATOM     22  C   UNL d   1     -39.046  15.017  22.131  0.00  0.00     0.027 A 
ENDBRANCH  17  18
ENDBRANCH   2  17
TORSDOF 4
ENDMDL
