MODEL 1
REMARK VINA RESULT:      -2.4      0.000      0.000
REMARK  4 active torsions:
REMARK  status: ('A' for Active; 'I' for Inactive)
REMARK    1  A    between atoms: C_12  and  C_2 
REMARK    2  A    between atoms: C_13  and  C_3 
REMARK    3  A    between atoms: N_8  and  C_6 
REMARK       I    between atoms: C_7  and  N_9 
REMARK    4  A    between atoms: N_9  and  N_8 
ROOT
ATOM      1  C   UNL d   1      31.622  16.408 -24.040  0.00  0.00     0.196 A 
ATOM      2  C   UNL d   1      32.437  16.476 -23.841  0.00  0.00     0.041 A 
ATOM      3  C   UNL d   1      31.157  17.054 -24.115  0.00  0.00     0.041 A 
ATOM      4  C   UNL d   1      32.770  17.236 -23.717  0.00  0.00     0.024 A 
ATOM      5  C   UNL d   1      31.472  17.809 -23.995  0.00  0.00     0.024 A 
ATOM      6  C   UNL d   1      32.266  17.898 -23.799  0.00  0.00     0.103 A 
ATOM      7  O   UNL d   1      31.253  15.644 -24.173  0.00  0.00    -0.287 OA
ENDROOT
BRANCH   6   8
ATOM      8  N   UNL d   1      32.598  18.673 -23.675  0.00  0.00    -0.144 NA
BRANCH   8   9
ATOM      9  N   UNL d   1      32.765  18.975 -22.915  0.00  0.00    -0.087 NA
ATOM     10  C   UNL d   1      33.083  19.736 -22.794  0.00  0.00     0.404 C 
ATOM     11  O   UNL d   1      33.241  20.217 -23.456  0.00  0.00    -0.239 OA
ATOM     12  N   UNL d   1      33.241  20.011 -22.023  0.00  0.00    -0.083 N 
ENDBRANCH   8   9
ENDBRANCH   6   8
BRANCH   3  13
ATOM     13  C   UNL d   1      30.361  16.950 -24.312  0.00  0.00     0.003 C 
ATOM     14  C   UNL d   1      29.847  16.635 -23.778  0.00  0.00     0.000 C 
ATOM     15  C   UNL d   1      30.097  17.173 -25.062  0.00  0.00     0.000 C 
ENDBRANCH   3  13
BRANCH   2  16
ATOM     16  C   UNL d   1      32.896  15.817 -23.769  0.00  0.00     0.003 C 
ATOM     17  C   UNL d   1      33.042  15.523 -23.030  0.00  0.00     0.000 C 
ATOM     18  C   UNL d   1      33.202  15.460 -24.413  0.00  0.00     0.000 C 
ENDBRANCH   2  16
TORSDOF 4
ENDMDL
MODEL 2
REMARK VINA RESULT:      -2.3      2.035      3.160
REMARK  4 active torsions:
REMARK  status: ('A' for Active; 'I' for Inactive)
REMARK    1  A    between atoms: C_12  and  C_2 
REMARK    2  A    between atoms: C_13  and  C_3 
REMARK    3  A    between atoms: N_8  and  C_6 
REMARK       I    between atoms: C_7  and  N_9 
REMARK    4  A    between atoms: N_9  and  N_8 
ROOT
ATOM      1  C   UNL d   1      32.405  17.238 -23.938  0.00  0.00     0.196 A 
ATOM      2  C   UNL d   1      31.946  16.542 -24.054  0.00  0.00     0.041 A 
ATOM      3  C   UNL d   1      32.080  17.966 -24.005  0.00  0.00     0.041 A 
ATOM      4  C   UNL d   1      31.131  16.610 -24.243  0.00  0.00     0.024 A 
ATOM      5  C   UNL d   1      31.279  18.048 -24.191  0.00  0.00     0.024 A 
ATOM      6  C   UNL d   1      30.812  17.380 -24.308  0.00  0.00     0.103 A 
ATOM      7  O   UNL d   1      33.240  17.200 -23.743  0.00  0.00    -0.287 OA
ENDROOT
BRANCH   6   8
ATOM      8  N   UNL d   1      29.985  17.457 -24.500  0.00  0.00    -0.144 NA
BRANCH   8   9
ATOM      9  N   UNL d   1      29.381  17.120 -24.034  0.00  0.00    -0.087 NA
ATOM     10  C   UNL d   1      28.585  17.362 -24.087  0.00  0.00     0.404 C 
ATOM     11  O   UNL d   1      28.382  17.965 -24.626  0.00  0.00    -0.239 OA
ATOM     12  N   UNL d   1      28.002  17.008 -23.608  0.00  0.00    -0.083 N 
ENDBRANCH   8   9
ENDBRANCH   6   8
BRANCH   3  13
ATOM     13  C   UNL d   1      32.560  18.628 -23.884  0.00  0.00     0.003 C 
ATOM     14  C   UNL d   1      32.910  18.996 -24.509  0.00  0.00     0.000 C 
ATOM     15  C   UNL d   1      32.677  18.909 -23.117  0.00  0.00     0.000 C 
ENDBRANCH   3  13
BRANCH   2  16
ATOM     16  C   UNL d   1      32.285  15.813 -23.983  0.00  0.00     0.003 C 
ATOM     17  C   UNL d   1      32.574  15.453 -24.646  0.00  0.00     0.000 C 
ATOM     18  C   UNL d   1      32.334  15.453 -23.273  0.00  0.00     0.000 C 
ENDBRANCH   2  16
TORSDOF 4
ENDMDL
MODEL 3
REMARK VINA RESULT:      -0.8      2.998      6.004
REMARK  4 active torsions:
REMARK  status: ('A' for Active; 'I' for Inactive)
REMARK    1  A    between atoms: C_12  and  C_2 
REMARK    2  A    between atoms: C_13  and  C_3 
REMARK    3  A    between atoms: N_8  and  C_6 
REMARK       I    between atoms: C_7  and  N_9 
REMARK    4  A    between atoms: N_9  and  N_8 
ROOT
ATOM      1  C   UNL d   1      32.628  22.824 -21.413  0.00  0.00     0.196 A 
ATOM      2  C   UNL d   1      32.742  22.650 -22.228  0.00  0.00     0.041 A 
ATOM      3  C   UNL d   1      32.712  22.260 -20.852  0.00  0.00     0.041 A 
ATOM      4  C   UNL d   1      32.948  21.871 -22.461  0.00  0.00     0.024 A 
ATOM      5  C   UNL d   1      32.915  21.488 -21.067  0.00  0.00     0.024 A 
ATOM      6  C   UNL d   1      33.032  21.296 -21.859  0.00  0.00     0.103 A 
ATOM      7  O   UNL d   1      32.416  23.612 -21.145  0.00  0.00    -0.287 OA
ENDROOT
BRANCH   6   8
ATOM      8  N   UNL d   1      33.241  20.503 -22.087  0.00  0.00    -0.144 NA
BRANCH   8   9
ATOM      9  N   UNL d   1      33.013  20.169 -22.817  0.00  0.00    -0.087 NA
ATOM     10  C   UNL d   1      32.948  19.346 -22.933  0.00  0.00     0.404 C 
ATOM     11  O   UNL d   1      33.118  18.834 -22.298  0.00  0.00    -0.239 OA
ATOM     12  N   UNL d   1      32.718  19.040 -23.674  0.00  0.00    -0.083 N 
ENDBRANCH   8   9
ENDBRANCH   6   8
BRANCH   3  13
ATOM     13  C   UNL d   1      32.593  22.465 -20.061  0.00  0.00     0.003 C 
ATOM     14  C   UNL d   1      31.858  22.420 -19.734  0.00  0.00     0.000 C 
ATOM     15  C   UNL d   1      33.234  22.718 -19.606  0.00  0.00     0.000 C 
ENDBRANCH   3  13
BRANCH   2  16
ATOM     16  C   UNL d   1      32.654  23.228 -22.785  0.00  0.00     0.003 C 
ATOM     17  C   UNL d   1      33.241  23.337 -23.329  0.00  0.00     0.000 C 
ATOM     18  C   UNL d   1      31.999  23.684 -22.800  0.00  0.00     0.000 C 
ENDBRANCH   2  16
TORSDOF 4
ENDMDL
MODEL 4
REMARK VINA RESULT:      -0.8      2.354      5.245
REMARK  4 active torsions:
REMARK  status: ('A' for Active; 'I' for Inactive)
REMARK    1  A    between atoms: C_12  and  C_2 
REMARK    2  A    between atoms: C_13  and  C_3 
REMARK    3  A    between atoms: N_8  and  C_6 
REMARK       I    between atoms: C_7  and  N_9 
REMARK    4  A    between atoms: N_9  and  N_8 
ROOT
ATOM      1  C   UNL d   1      32.896  22.060 -22.101  0.00  0.00     0.196 A 
ATOM      2  C   UNL d   1      32.794  21.509 -21.474  0.00  0.00     0.041 A 
ATOM      3  C   UNL d   1      33.102  21.820 -22.836  0.00  0.00     0.041 A 
ATOM      4  C   UNL d   1      32.908  20.691 -21.618  0.00  0.00     0.024 A 
ATOM      5  C   UNL d   1      33.218  21.016 -22.993  0.00  0.00     0.024 A 
ATOM      6  C   UNL d   1      33.123  20.461 -22.393  0.00  0.00     0.103 A 
ATOM      7  O   UNL d   1      32.786  22.904 -21.984  0.00  0.00    -0.287 OA
ENDROOT
BRANCH   6   8
ATOM      8  N   UNL d   1      33.241  19.631 -22.547  0.00  0.00    -0.144 NA
BRANCH   8   9
ATOM      9  N   UNL d   1      32.751  19.194 -23.061  0.00  0.00    -0.087 NA
ATOM     10  C   UNL d   1      32.690  18.364 -23.025  0.00  0.00     0.404 C 
ATOM     11  O   UNL d   1      33.135  17.950 -22.455  0.00  0.00    -0.239 OA
ATOM     12  N   UNL d   1      32.191  17.952 -23.553  0.00  0.00    -0.083 N 
ENDBRANCH   8   9
ENDBRANCH   6   8
BRANCH   3  13
ATOM     13  C   UNL d   1      33.195  22.387 -23.429  0.00  0.00     0.003 C 
ATOM     14  C   UNL d   1      33.240  23.169 -23.241  0.00  0.00     0.000 C 
ATOM     15  C   UNL d   1      33.241  22.146 -24.218  0.00  0.00     0.000 C 
ENDBRANCH   3  13
BRANCH   2  16
ATOM     16  C   UNL d   1      32.586  21.764 -20.737  0.00  0.00     0.003 C 
ATOM     17  C   UNL d   1      31.802  21.841 -20.558  0.00  0.00     0.000 C 
ATOM     18  C   UNL d   1      33.143  21.938 -20.193  0.00  0.00     0.000 C 
ENDBRANCH   2  16
TORSDOF 4
ENDMDL
MODEL 5
REMARK VINA RESULT:      -0.0      1.120      1.347
REMARK  4 active torsions:
REMARK  status: ('A' for Active; 'I' for Inactive)
REMARK    1  A    between atoms: C_12  and  C_2 
REMARK    2  A    between atoms: C_13  and  C_3 
REMARK    3  A    between atoms: N_8  and  C_6 
REMARK       I    between atoms: C_7  and  N_9 
REMARK    4  A    between atoms: N_9  and  N_8 
ROOT
ATOM      1  C   UNL d   1      30.652  16.911 -24.435  0.00  0.00     0.196 A 
ATOM      2  C   UNL d   1      31.452  16.724 -24.257  0.00  0.00     0.041 A 
ATOM      3  C   UNL d   1      30.444  17.636 -24.704  0.00  0.00     0.041 A 
ATOM      4  C   UNL d   1      32.047  17.307 -24.360  0.00  0.00     0.024 A 
ATOM      5  C   UNL d   1      31.020  18.220 -24.810  0.00  0.00     0.024 A 
ATOM      6  C   UNL d   1      31.809  18.058 -24.641  0.00  0.00     0.103 A 
ATOM      7  O   UNL d   1      30.021  16.336 -24.339  0.00  0.00    -0.287 OA
ENDROOT
BRANCH   6   8
ATOM      8  N   UNL d   1      32.407  18.654 -24.749  0.00  0.00    -0.144 NA
BRANCH   8   9
ATOM      9  N   UNL d   1      32.631  19.182 -24.143  0.00  0.00    -0.087 NA
ATOM     10  C   UNL d   1      33.029  19.899 -24.296  0.00  0.00     0.404 C 
ATOM     11  O   UNL d   1      33.211  20.099 -25.084  0.00  0.00    -0.239 OA
ATOM     12  N   UNL d   1      33.241  20.407 -23.670  0.00  0.00    -0.083 N 
ENDBRANCH   8   9
ENDBRANCH   6   8
BRANCH   3  13
ATOM     13  C   UNL d   1      29.649  17.786 -24.869  0.00  0.00     0.003 C 
ATOM     14  C   UNL d   1      29.392  18.541 -24.986  0.00  0.00     0.000 C 
ATOM     15  C   UNL d   1      29.118  17.155 -24.914  0.00  0.00     0.000 C 
ENDBRANCH   3  13
BRANCH   2  16
ATOM     16  C   UNL d   1      31.649  15.989 -23.987  0.00  0.00     0.003 C 
ATOM     17  C   UNL d   1      31.501  15.806 -23.214  0.00  0.00     0.000 C 
ATOM     18  C   UNL d   1      31.984  15.453 -24.473  0.00  0.00     0.000 C 
ENDBRANCH   2  16
TORSDOF 4
ENDMDL
MODEL 6
REMARK VINA RESULT:       0.1      2.417      3.642
REMARK  4 active torsions:
REMARK  status: ('A' for Active; 'I' for Inactive)
REMARK    1  A    between atoms: C_12  and  C_2 
REMARK    2  A    between atoms: C_13  and  C_3 
REMARK    3  A    between atoms: N_8  and  C_6 
REMARK       I    between atoms: C_7  and  N_9 
REMARK    4  A    between atoms: N_9  and  N_8 
ROOT
ATOM      1  C   UNL d   1      28.951  16.689 -24.002  0.00  0.00     0.196 A 
ATOM      2  C   UNL d   1      29.553  17.056 -24.461  0.00  0.00     0.041 A 
ATOM      3  C   UNL d   1      29.046  15.954 -23.701  0.00  0.00     0.041 A 
ATOM      4  C   UNL d   1      30.269  16.644 -24.608  0.00  0.00     0.024 A 
ATOM      5  C   UNL d   1      29.746  15.537 -23.839  0.00  0.00     0.024 A 
ATOM      6  C   UNL d   1      30.348  15.876 -24.285  0.00  0.00     0.103 A 
ATOM      7  O   UNL d   1      28.207  17.086 -23.834  0.00  0.00    -0.287 OA
ENDROOT
BRANCH   6   8
ATOM      8  N   UNL d   1      31.073  15.453 -24.431  0.00  0.00    -0.144 NA
BRANCH   8   9
ATOM      9  N   UNL d   1      31.748  15.534 -23.947  0.00  0.00    -0.087 NA
ATOM     10  C   UNL d   1      32.520  15.579 -24.258  0.00  0.00     0.404 C 
ATOM     11  O   UNL d   1      32.625  15.541 -25.084  0.00  0.00    -0.239 OA
ATOM     12  N   UNL d   1      33.177  15.661 -23.751  0.00  0.00    -0.083 N 
ENDBRANCH   8   9
ENDBRANCH   6   8
BRANCH   3  13
ATOM     13  C   UNL d   1      28.434  15.624 -23.255  0.00  0.00     0.003 C 
ATOM     14  C   UNL d   1      27.726  15.453 -23.599  0.00  0.00     0.000 C 
ATOM     15  C   UNL d   1      28.554  15.472 -22.452  0.00  0.00     0.000 C 
ENDBRANCH   3  13
BRANCH   2  16
ATOM     16  C   UNL d   1      29.445  17.798 -24.758  0.00  0.00     0.003 C 
ATOM     17  C   UNL d   1      30.068  18.313 -24.755  0.00  0.00     0.000 C 
ATOM     18  C   UNL d   1      28.738  18.021 -25.051  0.00  0.00     0.000 C 
ENDBRANCH   2  16
TORSDOF 4
ENDMDL
