MODEL 1
REMARK VINA RESULT:      -4.7      0.000      0.000
REMARK  2 active torsions:
REMARK  status: ('A' for Active; 'I' for Inactive)
REMARK    1  A    between atoms: N_2  and  S_1 
REMARK    2  A    between atoms: C_3  and  S_1 
ROOT
ATOM      1  N   UNL d   1      56.612  -0.529  32.208  0.00  0.00    -0.231 N 
ATOM      2  C   UNL d   1      56.080  -0.218  32.764  0.00  0.00     0.075 A 
ATOM      3  C   UNL d   1      56.498  -1.366  32.224  0.00  0.00     0.092 A 
ATOM      4  C   UNL d   1      55.655  -0.866  33.106  0.00  0.00     0.018 A 
ATOM      5  C   UNL d   1      55.935  -1.556  32.753  0.00  0.00     0.021 A 
ATOM      6  C   UNL d   1      55.913   0.538  33.014  0.00  0.00     0.018 A 
ATOM      7  C   UNL d   1      55.090  -0.730  33.674  0.00  0.00     0.002 A 
ATOM      8  C   UNL d   1      55.340   0.682  33.591  0.00  0.00     0.002 A 
ATOM      9  C   UNL d   1      54.928   0.041  33.921  0.00  0.00     0.000 A 
ENDROOT
BRANCH   1  10
ATOM     10  S   UNL d   1      57.162  -0.190  31.708  0.00  0.00     0.277 S 
ATOM     11  O   UNL d   1      56.680  -0.365  31.040  0.00  0.00    -0.199 OA
ATOM     12  O   UNL d   1      57.664  -0.004  32.365  0.00  0.00    -0.199 OA
BRANCH  10  13
ATOM     13  C   UNL d   1      57.706   0.148  31.196  0.00  0.00     0.133 A 
ATOM     14  S   UNL d   1      58.502   0.367  31.361  0.00  0.00    -0.074 SA
ATOM     15  C   UNL d   1      58.833   0.682  30.685  0.00  0.00     0.036 A 
ATOM     16  C   UNL d   1      58.285   0.680  30.072  0.00  0.00     0.008 A 
ATOM     17  C   UNL d   1      57.588   0.350  30.385  0.00  0.00     0.020 A 
ENDBRANCH  10  13
ENDBRANCH   1  10
TORSDOF 2
ENDMDL
MODEL 2
REMARK VINA RESULT:      -4.5      1.011      1.631
REMARK  2 active torsions:
REMARK  status: ('A' for Active; 'I' for Inactive)
REMARK    1  A    between atoms: N_2  and  S_1 
REMARK    2  A    between atoms: C_3  and  S_1 
ROOT
ATOM      1  N   UNL d   1      57.303   0.052  31.834  0.00  0.00    -0.231 N 
ATOM      2  C   UNL d   1      56.773  -0.440  32.242  0.00  0.00     0.075 A 
ATOM      3  C   UNL d   1      57.487   0.682  32.365  0.00  0.00     0.092 A 
ATOM      4  C   UNL d   1      56.646  -0.103  33.008  0.00  0.00     0.018 A 
ATOM      5  C   UNL d   1      57.098   0.584  33.052  0.00  0.00     0.021 A 
ATOM      6  C   UNL d   1      56.390  -1.131  32.047  0.00  0.00     0.018 A 
ATOM      7  C   UNL d   1      56.147  -0.468  33.537  0.00  0.00     0.002 A 
ATOM      8  C   UNL d   1      55.883  -1.505  32.580  0.00  0.00     0.002 A 
ATOM      9  C   UNL d   1      55.763  -1.168  33.329  0.00  0.00     0.000 A 
ENDROOT
BRANCH   1  10
ATOM     10  S   UNL d   1      57.633   0.023  31.087  0.00  0.00     0.277 S 
ATOM     11  O   UNL d   1      58.273  -0.443  31.376  0.00  0.00    -0.199 OA
ATOM     12  O   UNL d   1      56.998   0.490  30.774  0.00  0.00    -0.199 OA
BRANCH  10  13
ATOM     13  C   UNL d   1      57.974  -0.014  30.342  0.00  0.00     0.133 A 
ATOM     14  S   UNL d   1      58.027   0.600  29.769  0.00  0.00    -0.074 SA
ATOM     15  C   UNL d   1      58.413   0.311  29.111  0.00  0.00     0.036 A 
ATOM     16  C   UNL d   1      58.620  -0.477  29.224  0.00  0.00     0.008 A 
ATOM     17  C   UNL d   1      58.350  -0.680  29.985  0.00  0.00     0.020 A 
ENDBRANCH  10  13
ENDBRANCH   1  10
TORSDOF 2
ENDMDL
MODEL 3
REMARK VINA RESULT:      -3.9      1.319      3.733
REMARK  2 active torsions:
REMARK  status: ('A' for Active; 'I' for Inactive)
REMARK    1  A    between atoms: N_2  and  S_1 
REMARK    2  A    between atoms: C_3  and  S_1 
ROOT
ATOM      1  N   UNL d   1      57.736  -0.076  30.677  0.00  0.00    -0.231 N 
ATOM      2  C   UNL d   1      58.129  -0.611  30.179  0.00  0.00     0.075 A 
ATOM      3  C   UNL d   1      57.821   0.681  30.314  0.00  0.00     0.092 A 
ATOM      4  C   UNL d   1      58.443  -0.173  29.526  0.00  0.00     0.018 A 
ATOM      5  C   UNL d   1      58.236   0.616  29.639  0.00  0.00     0.021 A 
ATOM      6  C   UNL d   1      58.252  -1.415  30.210  0.00  0.00     0.018 A 
ATOM      7  C   UNL d   1      58.860  -0.554  28.941  0.00  0.00     0.002 A 
ATOM      8  C   UNL d   1      58.675  -1.806  29.619  0.00  0.00     0.002 A 
ATOM      9  C   UNL d   1      58.979  -1.370  28.982  0.00  0.00     0.000 A 
ENDROOT
BRANCH   1  10
ATOM     10  S   UNL d   1      57.330  -0.160  31.381  0.00  0.00     0.277 S 
ATOM     11  O   UNL d   1      56.680  -0.513  30.977  0.00  0.00    -0.199 OA
ATOM     12  O   UNL d   1      57.971   0.192  31.809  0.00  0.00    -0.199 OA
BRANCH  10  13
ATOM     13  C   UNL d   1      56.911  -0.251  32.081  0.00  0.00     0.133 A 
ATOM     14  S   UNL d   1      56.973   0.211  32.782  0.00  0.00    -0.074 SA
ATOM     15  C   UNL d   1      56.451  -0.081  33.335  0.00  0.00     0.036 A 
ATOM     16  C   UNL d   1      56.040  -0.724  33.028  0.00  0.00     0.008 A 
ATOM     17  C   UNL d   1      56.323  -0.831  32.253  0.00  0.00     0.020 A 
ENDBRANCH  10  13
ENDBRANCH   1  10
TORSDOF 2
ENDMDL
MODEL 4
REMARK VINA RESULT:      -3.2      2.668      3.714
REMARK  2 active torsions:
REMARK  status: ('A' for Active; 'I' for Inactive)
REMARK    1  A    between atoms: N_2  and  S_1 
REMARK    2  A    between atoms: C_3  and  S_1 
ROOT
ATOM      1  N   UNL d   1      58.595  -0.648  29.557  0.00  0.00    -0.231 N 
ATOM      2  C   UNL d   1      58.090  -0.480  30.194  0.00  0.00     0.075 A 
ATOM      3  C   UNL d   1      58.731   0.089  29.169  0.00  0.00     0.092 A 
ATOM      4  C   UNL d   1      57.929   0.352  30.182  0.00  0.00     0.018 A 
ATOM      5  C   UNL d   1      58.337   0.671  29.542  0.00  0.00     0.021 A 
ATOM      6  C   UNL d   1      57.754  -0.938  30.776  0.00  0.00     0.018 A 
ATOM      7  C   UNL d   1      57.446   0.682  30.746  0.00  0.00     0.002 A 
ATOM      8  C   UNL d   1      57.262  -0.608  31.350  0.00  0.00     0.002 A 
ATOM      9  C   UNL d   1      57.109   0.209  31.332  0.00  0.00     0.000 A 
ENDROOT
BRANCH   1  10
ATOM     10  S   UNL d   1      58.939  -1.337  29.282  0.00  0.00     0.277 S 
ATOM     11  O   UNL d   1      58.244  -1.522  28.842  0.00  0.00    -0.199 OA
ATOM     12  O   UNL d   1      59.648  -1.172  29.716  0.00  0.00    -0.199 OA
BRANCH  10  13
ATOM     13  C   UNL d   1      59.272  -2.031  28.999  0.00  0.00     0.133 A 
ATOM     14  S   UNL d   1      60.078  -2.171  28.799  0.00  0.00    -0.074 SA
ATOM     15  C   UNL d   1      60.154  -2.941  28.541  0.00  0.00     0.036 A 
ATOM     16  C   UNL d   1      59.425  -3.322  28.562  0.00  0.00     0.008 A 
ATOM     17  C   UNL d   1      58.879  -2.762  28.844  0.00  0.00     0.020 A 
ENDBRANCH  10  13
ENDBRANCH   1  10
TORSDOF 2
ENDMDL
MODEL 5
REMARK VINA RESULT:      -2.8      3.622      5.135
REMARK  2 active torsions:
REMARK  status: ('A' for Active; 'I' for Inactive)
REMARK    1  A    between atoms: N_2  and  S_1 
REMARK    2  A    between atoms: C_3  and  S_1 
ROOT
ATOM      1  N   UNL d   1      59.088  -2.259  28.943  0.00  0.00    -0.231 N 
ATOM      2  C   UNL d   1      59.784  -2.709  28.981  0.00  0.00     0.075 A 
ATOM      3  C   UNL d   1      58.499  -2.772  28.623  0.00  0.00     0.092 A 
ATOM      4  C   UNL d   1      59.607  -3.483  28.685  0.00  0.00     0.018 A 
ATOM      5  C   UNL d   1      58.811  -3.488  28.474  0.00  0.00     0.021 A 
ATOM      6  C   UNL d   1      60.541  -2.547  29.232  0.00  0.00     0.018 A 
ATOM      7  C   UNL d   1      60.188  -4.051  28.655  0.00  0.00     0.002 A 
ATOM      8  C   UNL d   1      61.133  -3.120  29.204  0.00  0.00     0.002 A 
ATOM      9  C   UNL d   1      60.952  -3.877  28.912  0.00  0.00     0.000 A 
ENDROOT
BRANCH   1  10
ATOM     10  S   UNL d   1      58.908  -1.487  29.144  0.00  0.00     0.277 S 
ATOM     11  O   UNL d   1      58.501  -1.750  29.834  0.00  0.00    -0.199 OA
ATOM     12  O   UNL d   1      59.312  -1.200  28.456  0.00  0.00    -0.199 OA
BRANCH  10  13
ATOM     13  C   UNL d   1      58.721  -0.718  29.357  0.00  0.00     0.133 A 
ATOM     14  S   UNL d   1      59.009  -0.004  29.015  0.00  0.00    -0.074 SA
ATOM     15  C   UNL d   1      58.672   0.628  29.405  0.00  0.00     0.036 A 
ATOM     16  C   UNL d   1      58.167   0.361  29.997  0.00  0.00     0.008 A 
ATOM     17  C   UNL d   1      58.196  -0.470  29.970  0.00  0.00     0.020 A 
ENDBRANCH  10  13
ENDBRANCH   1  10
TORSDOF 2
ENDMDL
