MODEL 1
REMARK VINA RESULT:      81.8      0.000      0.000
REMARK  5 active torsions:
REMARK  status: ('A' for Active; 'I' for Inactive)
REMARK    1  A    between atoms: C_2  and  S_1 
REMARK    2  A    between atoms: N_3  and  S_1 
REMARK    3  A    between atoms: C_21  and  N_8 
REMARK    4  A    between atoms: O_26  and  C_16 
REMARK    5  A    between atoms: C_19  and  C_21 
ROOT
ATOM      1  N   UNL d   1     -48.938  28.266  34.488  0.00  0.00    -0.226 N 
ATOM      2  N   UNL d   1     -48.161  29.643  34.964  0.00  0.00    -0.300 N 
ATOM      3  C   UNL d   1     -49.332  29.000  34.465  0.00  0.00     0.111 A 
ATOM      4  C   UNL d   1     -48.158  28.233  34.749  0.00  0.00     0.111 A 
ATOM      5  C   UNL d   1     -48.935  29.682  34.705  0.00  0.00     0.100 A 
ATOM      6  C   UNL d   1     -47.768  28.909  34.986  0.00  0.00     0.100 A 
ENDROOT
BRANCH   1   7
ATOM      7  S   UNL d   1     -49.332  27.588  34.249  0.00  0.00     0.271 S 
ATOM      8  O   UNL d   1     -49.581  27.965  33.559  0.00  0.00    -0.200 OA
ATOM      9  O   UNL d   1     -49.083  27.208  34.943  0.00  0.00    -0.200 OA
BRANCH   7  10
ATOM     10  C   UNL d   1     -49.725  26.908  34.014  0.00  0.00     0.104 A 
ATOM     11  C   UNL d   1     -50.516  26.941  33.779  0.00  0.00     0.014 A 
ATOM     12  C   UNL d   1     -50.910  26.254  33.542  0.00  0.00     0.023 A 
ATOM     13  C   UNL d   1     -50.913  27.665  33.781  0.00  0.00     0.001 A 
ATOM     14  C   UNL d   1     -51.687  26.286  33.311  0.00  0.00     0.002 A 
ATOM     15  C   UNL d   1     -50.512  25.529  33.540  0.00  0.00     0.094 A 
ATOM     16  C   UNL d   1     -52.093  27.005  33.309  0.00  0.00     0.000 A 
ATOM     17  C   UNL d   1     -51.702  27.696  33.546  0.00  0.00     0.000 A 
ATOM     18  C   UNL d   1     -49.723  25.494  33.774  0.00  0.00     0.025 A 
ATOM     19  C   UNL d   1     -49.325  26.178  34.012  0.00  0.00     0.015 A 
BRANCH  15  20
ATOM     20  O   UNL d   1     -50.901  24.850  33.306  0.00  0.00    -0.328 OA
ATOM     21  C   UNL d   1     -50.519  24.127  33.345  0.00  0.00     0.181 C 
ENDBRANCH  15  20
ENDBRANCH   7  10
ENDBRANCH   1   7
BRANCH   2  22
ATOM     22  C   UNL d   1     -47.764  30.325  35.204  0.00  0.00     0.080 C 
BRANCH  22  23
ATOM     23  C   UNL d   1     -47.861  31.036  34.798  0.00  0.00     0.020 A 
ATOM     24  C   UNL d   1     -47.219  31.418  34.473  0.00  0.00     0.028 A 
ATOM     25  C   UNL d   1     -47.317  32.128  34.069  0.00  0.00     0.119 A 
ATOM     26  O   UNL d   1     -46.783  32.629  33.690  0.00  0.00    -0.300 OA
ATOM     27  C   UNL d   1     -48.079  32.456  33.992  0.00  0.00     0.119 A 
ATOM     28  C   UNL d   1     -47.208  33.264  33.380  0.00  0.00     0.304 A 
ATOM     29  O   UNL d   1     -48.003  33.155  33.567  0.00  0.00    -0.300 OA
ATOM     30  C   UNL d   1     -48.723  32.067  34.321  0.00  0.00     0.026 A 
ATOM     31  C   UNL d   1     -48.623  31.365  34.721  0.00  0.00     0.004 A 
ENDBRANCH  22  23
ENDBRANCH   2  22
TORSDOF 5
ENDMDL
