MODEL 1
REMARK VINA RESULT:      48.2      0.000      0.000
REMARK  4 active torsions:
REMARK  status: ('A' for Active; 'I' for Inactive)
REMARK    1  A    between atoms: C_6  and  N_1 
REMARK    2  A    between atoms: C_11  and  C_6 
REMARK    3  A    between atoms: O_14  and  C_8 
REMARK    4  A    between atoms: O_15  and  C_9 
ROOT
ATOM      1  C   UNL d   1      58.330  49.707  49.978  0.00  0.00     0.084 C 
ENDROOT
BRANCH   1   2
ATOM      2  N   UNL d   1      57.721  49.169  50.125  0.00  0.00    -0.268 N 
ATOM      3  C   UNL d   1      57.526  48.518  49.653  0.00  0.00     0.296 A 
ATOM      4  S   UNL d   1      56.881  48.133  50.009  0.00  0.00    -0.025 SA
ATOM      5  O   UNL d   1      57.904  48.292  48.955  0.00  0.00    -0.259 OA
ATOM      6  C   UNL d   1      56.685  48.549  50.695  0.00  0.00     0.050 A 
ATOM      7  C   UNL d   1      57.201  49.188  50.769  0.00  0.00     0.073 A 
ATOM      8  C   UNL d   1      56.098  48.435  51.274  0.00  0.00     0.008 A 
ATOM      9  C   UNL d   1      57.139  49.708  51.406  0.00  0.00     0.018 A 
ATOM     10  C   UNL d   1      56.556  49.590  51.977  0.00  0.00     0.002 A 
ATOM     11  C   UNL d   1      56.033  48.950  51.910  0.00  0.00     0.001 A 
ENDBRANCH   1   2
BRANCH   1  12
ATOM     12  C   UNL d   1      59.034  49.665  50.415  0.00  0.00     0.020 A 
ATOM     13  C   UNL d   1      59.745  49.583  50.023  0.00  0.00     0.028 A 
ATOM     14  C   UNL d   1      60.443  49.541  50.452  0.00  0.00     0.116 A 
ATOM     15  C   UNL d   1      60.427  49.582  51.286  0.00  0.00     0.116 A 
ATOM     16  C   UNL d   1      59.701  49.665  51.672  0.00  0.00     0.026 A 
ATOM     17  C   UNL d   1      59.000  49.706  51.232  0.00  0.00     0.004 A 
BRANCH  14  18
ATOM     18  O   UNL d   1      61.164  49.459  50.063  0.00  0.00    -0.326 OA
ATOM     19  C   UNL d   1      61.213  49.576  49.240  0.00  0.00     0.181 C 
ENDBRANCH  14  18
BRANCH  15  20
ATOM     20  O   UNL d   1      61.144  49.537  51.688  0.00  0.00    -0.326 OA
ATOM     21  C   UNL d   1      61.160  49.558  52.507  0.00  0.00     0.181 C 
ENDBRANCH  15  20
ENDBRANCH   1  12
TORSDOF 4
ENDMDL
