MODEL 1
REMARK VINA RESULT:      44.1      0.000      0.000
REMARK  5 active torsions:
REMARK  status: ('A' for Active; 'I' for Inactive)
REMARK    1  A    between atoms: C_8  and  N_1 
REMARK    2  A    between atoms: C_6  and  C_2 
REMARK    3  A    between atoms: C_9  and  C_6 
REMARK    4  A    between atoms: C_7  and  C_9 
REMARK    5  A    between atoms: C_14  and  C_8 
ROOT
ATOM      1  N   UNL d   1      14.250  13.549  -1.788  0.00  0.00    -0.289 N 
ATOM      2  C   UNL d   1      14.169  13.104  -2.473  0.00  0.00     0.148 A 
ATOM      3  N   UNL d   1      14.533  12.350  -2.330  0.00  0.00    -0.227 NA
ATOM      4  C   UNL d   1      14.654  13.109  -1.206  0.00  0.00     0.083 A 
ATOM      5  C   UNL d   1      14.820  12.355  -1.576  0.00  0.00     0.099 A 
ATOM      6  C   UNL d   1      14.883  13.276  -0.432  0.00  0.00     0.019 A 
ATOM      7  C   UNL d   1      15.235  11.780  -1.108  0.00  0.00     0.021 A 
ATOM      8  C   UNL d   1      15.272  12.716  -0.014  0.00  0.00     0.002 A 
ATOM      9  C   UNL d   1      15.446  11.980  -0.347  0.00  0.00     0.002 A 
ENDROOT
BRANCH   1  10
ATOM     10  C   UNL d   1      13.922  14.282  -1.861  0.00  0.00     0.082 C 
BRANCH  10  11
ATOM     11  C   UNL d   1      14.378  14.937  -1.685  0.00  0.00     0.018 A 
ATOM     12  C   UNL d   1      14.721  15.380  -2.289  0.00  0.00     0.002 A 
ATOM     13  C   UNL d   1      15.192  16.059  -2.086  0.00  0.00     0.000 A 
ATOM     14  C   UNL d   1      15.308  16.275  -1.299  0.00  0.00     0.000 A 
ATOM     15  C   UNL d   1      14.965  15.831  -0.695  0.00  0.00     0.000 A 
ATOM     16  C   UNL d   1      15.758  16.920  -1.133  0.00  0.00     0.000 C 
ATOM     17  C   UNL d   1      14.506  15.171  -0.877  0.00  0.00     0.002 A 
ENDBRANCH  10  11
ENDBRANCH   1  10
BRANCH   2  18
ATOM     18  C   UNL d   1      13.864  13.130  -3.239  0.00  0.00     0.039 C 
BRANCH  18  19
ATOM     19  C   UNL d   1      13.809  12.442  -3.677  0.00  0.00     0.028 C 
BRANCH  19  20
ATOM     20  C   UNL d   1      13.413  12.447  -4.403  0.00  0.00     0.100 A 
ATOM     21  O   UNL d   1      13.226  11.791  -4.869  0.00  0.00    -0.305 OA
ATOM     22  C   UNL d   1      12.832  12.064  -5.542  0.00  0.00     0.123 A 
ATOM     23  C   UNL d   1      12.771  12.886  -5.504  0.00  0.00     0.029 A 
ATOM     24  C   UNL d   1      13.138  13.116  -4.786  0.00  0.00     0.027 A 
ENDBRANCH  19  20
ENDBRANCH  18  19
ENDBRANCH   2  18
TORSDOF 5
ENDMDL
