MODEL 1
REMARK VINA RESULT:      54.9      0.000      0.000
REMARK  3 active torsions:
REMARK  status: ('A' for Active; 'I' for Inactive)
REMARK    1  A    between atoms: C_2  and  C_1 
REMARK    2  A    between atoms: C_3  and  C_2 
REMARK    3  A    between atoms: C_8  and  C_2 
ROOT
ATOM      1  C   UNL d   1      13.780  13.044  -3.058  0.00  0.00     0.018 C 
ENDROOT
BRANCH   1   2
ATOM      2  C   UNL d   1      13.916  13.852  -3.195  0.00  0.00     0.078 A 
ATOM      3  C   UNL d   1      14.607  14.260  -2.780  0.00  0.00     0.195 A 
ATOM      4  C   UNL d   1      14.673  15.038  -2.963  0.00  0.00     0.019 A 
ATOM      5  O   UNL d   1      15.066  14.003  -2.345  0.00  0.00    -0.287 OA
ATOM      6  C   UNL d   1      14.178  15.453  -3.473  0.00  0.00     0.043 A 
ATOM      7  C   UNL d   1      13.551  15.072  -3.846  0.00  0.00     0.019 A 
ATOM      8  C   UNL d   1      13.972  16.167  -3.847  0.00  0.00     0.009 C 
ATOM      9  C   UNL d   1      14.734  16.009  -3.207  0.00  0.00     0.009 C 
ATOM     10  C   UNL d   1      13.420  14.272  -3.707  0.00  0.00     0.195 A 
ATOM     11  O   UNL d   1      12.786  13.890  -4.086  0.00  0.00    -0.287 OA
ENDBRANCH   1   2
BRANCH   1  12
ATOM     12  C   UNL d   1      13.926  12.721  -2.308  0.00  0.00     0.078 A 
ATOM     13  C   UNL d   1      14.680  12.507  -2.088  0.00  0.00     0.195 A 
ATOM     14  C   UNL d   1      14.827  12.188  -1.347  0.00  0.00     0.019 A 
ATOM     15  O   UNL d   1      15.309  12.618  -2.627  0.00  0.00    -0.287 OA
ATOM     16  C   UNL d   1      14.212  12.079  -0.817  0.00  0.00     0.043 A 
ATOM     17  C   UNL d   1      13.438  12.292  -1.028  0.00  0.00     0.019 A 
ATOM     18  C   UNL d   1      14.140  11.784  -0.047  0.00  0.00     0.009 C 
ATOM     19  C   UNL d   1      14.837  11.791  -0.357  0.00  0.00     0.009 C 
ATOM     20  C   UNL d   1      13.293  12.615  -1.779  0.00  0.00     0.195 A 
ATOM     21  O   UNL d   1      12.815  12.734  -1.876  0.00  0.00    -0.287 OA
ENDBRANCH   1  12
BRANCH   1  22
ATOM     22  C   UNL d   1      13.504  12.566  -3.658  0.00  0.00     0.030 A 
ATOM     23  S   UNL d   1      12.775  12.195  -3.784  0.00  0.00    -0.086 SA
ATOM     24  C   UNL d   1      12.817  11.780  -4.490  0.00  0.00     0.035 A 
ATOM     25  C   UNL d   1      13.560  11.885  -4.810  0.00  0.00     0.007 A 
ATOM     26  C   UNL d   1      13.983  12.369  -4.297  0.00  0.00     0.007 A 
ENDBRANCH   1  22
TORSDOF 3
ENDMDL
