MODEL 1
REMARK VINA RESULT:      86.2      0.000      0.000
REMARK  3 active torsions:
REMARK  status: ('A' for Active; 'I' for Inactive)
REMARK    1  A    between atoms: N_9  and  C_2 
REMARK    2  A    between atoms: C_15  and  C_7 
REMARK    3  A    between atoms: C_11  and  C_14 
ROOT
ATOM      1  C   UNL d   1     -50.696  25.742  33.429  0.00  0.00     0.152 A 
ATOM      2  C   UNL d   1     -51.476  26.027  33.454  0.00  0.00     0.174 A 
ATOM      3  C   UNL d   1     -50.060  26.274  33.383  0.00  0.00     0.111 A 
ATOM      4  N   UNL d   1     -51.611  26.852  33.432  0.00  0.00    -0.207 NA
ATOM      5  N   UNL d   1     -50.193  27.086  33.361  0.00  0.00    -0.225 NA
ATOM      6  O   UNL d   1     -50.560  24.922  33.452  0.00  0.00    -0.302 OA
ATOM      7  C   UNL d   1     -50.967  27.381  33.385  0.00  0.00     0.164 A 
ATOM      8  C   UNL d   1     -49.147  25.161  33.380  0.00  0.00     0.043 A 
ATOM      9  C   UNL d   1     -49.784  24.629  33.427  0.00  0.00     0.102 A 
ATOM     10  C   UNL d   1     -48.376  24.869  33.356  0.00  0.00     0.004 A 
ATOM     11  C   UNL d   1     -49.653  23.822  33.449  0.00  0.00     0.025 A 
ATOM     12  C   UNL d   1     -48.243  24.058  33.378  0.00  0.00     0.000 A 
ATOM     13  C   UNL d   1     -48.885  23.532  33.425  0.00  0.00     0.002 A 
ENDROOT
BRANCH   2  14
ATOM     14  N   UNL d   1     -52.111  25.506  33.501  0.00  0.00    -0.287 N 
ATOM     15  C   UNL d   1     -51.995  24.713  33.342  0.00  0.00     0.082 A 
ATOM     16  C   UNL d   1     -52.632  24.196  33.389  0.00  0.00     0.025 A 
ATOM     17  C   UNL d   1     -53.379  24.477  33.595  0.00  0.00     0.067 A 
ATOM     18  C   UNL d   1     -53.487  25.272  33.753  0.00  0.00     0.025 A 
ATOM     19  C   UNL d   1     -52.853  25.792  33.707  0.00  0.00     0.082 A 
BRANCH  17  20
ATOM     20  C   UNL d   1     -54.034  23.940  33.643  0.00  0.00     0.211 C 
ATOM     21  O   UNL d   1     -54.782  24.152  33.309  0.00  0.00    -0.644 OA
ATOM     22  O   UNL d   1     -53.937  23.192  34.025  0.00  0.00    -0.644 OA
ENDBRANCH  17  20
ENDBRANCH   2  14
BRANCH   7  23
ATOM     23  C   UNL d   1     -51.097  28.188  33.363  0.00  0.00     0.036 A 
ATOM     24  C   UNL d   1     -50.468  28.704  33.356  0.00  0.00     0.003 A 
ATOM     25  C   UNL d   1     -50.597  29.523  33.333  0.00  0.00     0.000 A 
ATOM     26  C   UNL d   1     -51.366  29.812  33.319  0.00  0.00     0.000 A 
ATOM     27  C   UNL d   1     -52.008  29.284  33.326  0.00  0.00     0.000 A 
ATOM     28  C   UNL d   1     -51.871  28.483  33.348  0.00  0.00     0.003 A 
ENDBRANCH   7  23
TORSDOF 3
ENDMDL
