MODEL 1
REMARK VINA RESULT:      -1.9      0.000      0.000
REMARK  5 active torsions:
REMARK  status: ('A' for Active; 'I' for Inactive)
REMARK    1  A    between atoms: C_9  and  S_1 
REMARK    2  A    between atoms: C_2  and  C_10 
REMARK       I    between atoms: C_8  and  N_15 
REMARK    3  A    between atoms: C_10  and  C_8 
REMARK    4  A    between atoms: N_15  and  C_22 
REMARK    5  A    between atoms: O_26  and  C_21 
ROOT
ATOM      1  C   UNL d   1      58.270  -0.607  29.648  0.00  0.00     0.063 C 
ENDROOT
BRANCH   1   2
ATOM      2  C   UNL d   1      59.089  -0.625  29.578  0.00  0.00     0.012 A 
ATOM      3  C   UNL d   1      59.463  -1.304  29.296  0.00  0.00     0.023 A 
ATOM      4  C   UNL d   1      60.286  -1.318  29.227  0.00  0.00     0.105 A 
ATOM      5  C   UNL d   1      59.017  -1.960  29.086  0.00  0.00     0.004 A 
ATOM      6  C   UNL d   1      60.668  -1.997  28.944  0.00  0.00     0.049 A 
ATOM      7  O   UNL d   1      60.740  -0.661  29.435  0.00  0.00    -0.273 OA
ATOM      8  C   UNL d   1      60.214  -2.653  28.735  0.00  0.00     0.096 A 
ATOM      9  C   UNL d   1      59.391  -2.635  28.806  0.00  0.00     0.024 A 
ATOM     10  C   UNL d   1      60.358   0.026  29.721  0.00  0.00     0.300 A 
ATOM     11  C   UNL d   1      59.535   0.044  29.792  0.00  0.00     0.069 A 
ATOM     12  O   UNL d   1      60.799   0.682  29.931  0.00  0.00    -0.259 OA
BRANCH   8  13
ATOM     13  O   UNL d   1      60.583  -3.329  28.455  0.00  0.00    -0.328 OA
ATOM     14  C   UNL d   1      60.317  -4.070  28.694  0.00  0.00     0.181 C 
ENDBRANCH   8  13
ENDBRANCH   1   2
BRANCH   1  15
ATOM     15  C   UNL d   1      57.914  -0.334  30.340  0.00  0.00     0.279 C 
ATOM     16  N   UNL d   1      57.352  -0.790  30.730  0.00  0.00    -0.208 NA
ATOM     17  O   UNL d   1      58.126   0.401  30.639  0.00  0.00    -0.265 OA
BRANCH  16  18
ATOM     18  C   UNL d   1      57.001  -0.512  31.419  0.00  0.00     0.085 A 
ATOM     19  C   UNL d   1      56.701  -1.053  31.966  0.00  0.00     0.020 A 
ATOM     20  C   UNL d   1      56.348  -0.769  32.659  0.00  0.00     0.015 A 
ATOM     21  C   UNL d   1      56.296   0.036  32.804  0.00  0.00     0.107 A 
ATOM     22  C   UNL d   1      56.597   0.573  32.257  0.00  0.00     0.015 A 
ATOM     23  C   UNL d   1      56.950   0.300  31.563  0.00  0.00     0.020 A 
BRANCH  21  24
ATOM     24  S   UNL d   1      55.945   0.313  33.495  0.00  0.00     0.302 S 
ATOM     25  O   UNL d   1      55.783   0.558  34.256  0.00  0.00    -0.197 OA
ATOM     26  O   UNL d   1      56.719   0.164  33.695  0.00  0.00    -0.197 OA
ATOM     27  N   UNL d   1      55.148   0.518  33.488  0.00  0.00    -0.043 N 
ENDBRANCH  21  24
ENDBRANCH  16  18
ENDBRANCH   1  15
TORSDOF 5
ENDMDL
