MODEL 1
REMARK VINA RESULT:      -4.5      0.000      0.000
REMARK  6 active torsions:
REMARK  status: ('A' for Active; 'I' for Inactive)
REMARK       I    between atoms: C_2  and  N_1 
REMARK    1  A    between atoms: C_15  and  C_2 
REMARK    2  A    between atoms: C_3  and  C_4 
REMARK    3  A    between atoms: C_9  and  O_14 
REMARK    4  A    between atoms: O_14  and  C_21 
REMARK    5  A    between atoms: C_22  and  C_15 
REMARK    6  A    between atoms: C_21  and  C_22 
ROOT
ATOM      1  O   UNL d   1      57.780   0.645  31.409  0.00  0.00    -0.305 OA
ENDROOT
BRANCH   1   2
ATOM      2  C   UNL d   1      57.226   0.530  32.004  0.00  0.00     0.100 A 
ATOM      3  C   UNL d   1      57.464   0.261  32.752  0.00  0.00     0.024 A 
ATOM      4  C   UNL d   1      56.921   0.142  33.353  0.00  0.00    -0.002 A 
ATOM      5  C   UNL d   1      56.110   0.294  33.213  0.00  0.00    -0.023 A 
ATOM      6  C   UNL d   1      55.866   0.561  32.476  0.00  0.00    -0.002 A 
ATOM      7  C   UNL d   1      56.415   0.682  31.864  0.00  0.00     0.024 A 
BRANCH   5   8
ATOM      8  C   UNL d   1      55.562   0.176  33.814  0.00  0.00     0.019 C 
ATOM      9  C   UNL d   1      55.022  -0.440  33.769  0.00  0.00     0.004 C 
ATOM     10  C   UNL d   1      55.556   0.682  34.470  0.00  0.00     0.004 C 
ATOM     11  C   UNL d   1      55.407  -0.422  33.264  0.00  0.00     0.004 C 
ENDBRANCH   5   8
ENDBRANCH   1   2
BRANCH   1  12
ATOM     12  C   UNL d   1      57.753   0.171  30.730  0.00  0.00     0.123 C 
BRANCH  12  13
ATOM     13  C   UNL d   1      58.402   0.152  30.221  0.00  0.00     0.032 C 
BRANCH  13  14
ATOM     14  C   UNL d   1      58.513  -0.498  29.729  0.00  0.00     0.063 C 
BRANCH  14  15
ATOM     15  C   UNL d   1      59.259  -0.636  29.401  0.00  0.00     0.265 C 
ATOM     16  N   UNL d   1      59.462  -1.395  29.139  0.00  0.00    -0.268 N 
ATOM     17  C   UNL d   1      60.204  -1.544  28.811  0.00  0.00     0.110 A 
ATOM     18  C   UNL d   1      58.907  -2.017  29.209  0.00  0.00     0.110 A 
ATOM     19  C   UNL d   1      60.398  -2.295  28.555  0.00  0.00     0.142 A 
ATOM     20  O   UNL d   1      59.843  -2.918  28.625  0.00  0.00    -0.300 OA
ATOM     21  C   UNL d   1      59.112  -2.767  28.949  0.00  0.00     0.142 A 
ATOM     22  O   UNL d   1      59.809  -0.019  29.332  0.00  0.00    -0.267 OA
ENDBRANCH  14  15
ENDBRANCH  13  14
ENDBRANCH  12  13
ENDBRANCH   1  12
TORSDOF 6
ENDMDL
MODEL 2
REMARK VINA RESULT:      -3.0      1.815      5.655
REMARK  6 active torsions:
REMARK  status: ('A' for Active; 'I' for Inactive)
REMARK       I    between atoms: C_2  and  N_1 
REMARK    1  A    between atoms: C_15  and  C_2 
REMARK    2  A    between atoms: C_3  and  C_4 
REMARK    3  A    between atoms: C_9  and  O_14 
REMARK    4  A    between atoms: O_14  and  C_21 
REMARK    5  A    between atoms: C_22  and  C_15 
REMARK    6  A    between atoms: C_21  and  C_22 
ROOT
ATOM      1  O   UNL d   1      57.757  -0.092  30.331  0.00  0.00    -0.305 OA
ENDROOT
BRANCH   1   2
ATOM      2  C   UNL d   1      58.477  -0.112  29.936  0.00  0.00     0.100 A 
ATOM      3  C   UNL d   1      59.064   0.449  30.104  0.00  0.00     0.024 A 
ATOM      4  C   UNL d   1      59.785   0.439  29.717  0.00  0.00    -0.002 A 
ATOM      5  C   UNL d   1      59.936  -0.150  29.141  0.00  0.00    -0.023 A 
ATOM      6  C   UNL d   1      59.362  -0.709  28.969  0.00  0.00    -0.002 A 
ATOM      7  C   UNL d   1      58.629  -0.700  29.360  0.00  0.00     0.024 A 
BRANCH   5   8
ATOM      8  C   UNL d   1      60.660  -0.163  28.751  0.00  0.00     0.019 C 
ATOM      9  C   UNL d   1      61.064  -0.869  28.650  0.00  0.00     0.004 C 
ATOM     10  C   UNL d   1      60.983   0.543  28.459  0.00  0.00     0.004 C 
ATOM     11  C   UNL d   1      60.516  -0.950  28.960  0.00  0.00     0.004 C 
ENDBRANCH   5   8
ENDBRANCH   1   2
BRANCH   1  12
ATOM     12  C   UNL d   1      57.701   0.306  31.055  0.00  0.00     0.123 C 
BRANCH  12  13
ATOM     13  C   UNL d   1      56.964   0.396  31.414  0.00  0.00     0.032 C 
BRANCH  13  14
ATOM     14  C   UNL d   1      56.918   0.485  32.231  0.00  0.00     0.063 C 
BRANCH  14  15
ATOM     15  C   UNL d   1      56.180   0.446  32.602  0.00  0.00     0.265 C 
ATOM     16  N   UNL d   1      56.127   0.511  33.426  0.00  0.00    -0.268 N 
ATOM     17  C   UNL d   1      55.397   0.474  33.807  0.00  0.00     0.110 A 
ATOM     18  C   UNL d   1      56.825   0.616  33.877  0.00  0.00     0.110 A 
ATOM     19  C   UNL d   1      55.352   0.539  34.620  0.00  0.00     0.142 A 
ATOM     20  O   UNL d   1      56.049   0.644  35.071  0.00  0.00    -0.300 OA
ATOM     21  C   UNL d   1      56.768   0.680  34.692  0.00  0.00     0.142 A 
ATOM     22  O   UNL d   1      55.489   0.343  32.156  0.00  0.00    -0.267 OA
ENDBRANCH  14  15
ENDBRANCH  13  14
ENDBRANCH  12  13
ENDBRANCH   1  12
TORSDOF 6
ENDMDL
MODEL 3
REMARK VINA RESULT:      -2.7      1.512      5.594
REMARK  6 active torsions:
REMARK  status: ('A' for Active; 'I' for Inactive)
REMARK       I    between atoms: C_2  and  N_1 
REMARK    1  A    between atoms: C_15  and  C_2 
REMARK    2  A    between atoms: C_3  and  C_4 
REMARK    3  A    between atoms: C_9  and  O_14 
REMARK    4  A    between atoms: O_14  and  C_21 
REMARK    5  A    between atoms: C_22  and  C_15 
REMARK    6  A    between atoms: C_21  and  C_22 
ROOT
ATOM      1  O   UNL d   1      58.038  -0.436  29.822  0.00  0.00    -0.305 OA
ENDROOT
BRANCH   1   2
ATOM      2  C   UNL d   1      58.606  -0.959  29.543  0.00  0.00     0.100 A 
ATOM      3  C   UNL d   1      58.462  -1.775  29.545  0.00  0.00     0.024 A 
ATOM      4  C   UNL d   1      59.020  -2.306  29.268  0.00  0.00    -0.002 A 
ATOM      5  C   UNL d   1      59.752  -2.022  28.978  0.00  0.00    -0.023 A 
ATOM      6  C   UNL d   1      59.903  -1.216  28.972  0.00  0.00    -0.002 A 
ATOM      7  C   UNL d   1      59.338  -0.675  29.252  0.00  0.00     0.024 A 
BRANCH   5   8
ATOM      8  C   UNL d   1      60.314  -2.553  28.700  0.00  0.00     0.019 C 
ATOM      9  C   UNL d   1      61.097  -2.322  28.614  0.00  0.00     0.004 C 
ATOM     10  C   UNL d   1      60.089  -3.326  28.505  0.00  0.00     0.004 C 
ATOM     11  C   UNL d   1      60.731  -1.852  28.834  0.00  0.00     0.004 C 
ENDBRANCH   5   8
ENDBRANCH   1   2
BRANCH   1  12
ATOM     12  C   UNL d   1      58.109  -0.130  30.590  0.00  0.00     0.123 C 
BRANCH  12  13
ATOM     13  C   UNL d   1      57.492   0.314  30.909  0.00  0.00     0.032 C 
BRANCH  13  14
ATOM     14  C   UNL d   1      57.387   0.337  31.725  0.00  0.00     0.063 C 
BRANCH  14  15
ATOM     15  C   UNL d   1      56.621   0.373  32.034  0.00  0.00     0.265 C 
ATOM     16  N   UNL d   1      56.508   0.475  32.849  0.00  0.00    -0.268 N 
ATOM     17  C   UNL d   1      55.750   0.512  33.169  0.00  0.00     0.110 A 
ATOM     18  C   UNL d   1      57.174   0.542  33.352  0.00  0.00     0.110 A 
ATOM     19  C   UNL d   1      55.645   0.613  33.973  0.00  0.00     0.142 A 
ATOM     20  O   UNL d   1      56.311   0.680  34.476  0.00  0.00    -0.300 OA
ATOM     21  C   UNL d   1      57.058   0.643  34.157  0.00  0.00     0.142 A 
ATOM     22  O   UNL d   1      55.962   0.306  31.536  0.00  0.00    -0.267 OA
ENDBRANCH  14  15
ENDBRANCH  13  14
ENDBRANCH  12  13
ENDBRANCH   1  12
TORSDOF 6
ENDMDL
MODEL 4
REMARK VINA RESULT:      -2.4      8.676      9.190
REMARK  6 active torsions:
REMARK  status: ('A' for Active; 'I' for Inactive)
REMARK       I    between atoms: C_2  and  N_1 
REMARK    1  A    between atoms: C_15  and  C_2 
REMARK    2  A    between atoms: C_3  and  C_4 
REMARK    3  A    between atoms: C_9  and  O_14 
REMARK    4  A    between atoms: O_14  and  C_21 
REMARK    5  A    between atoms: C_22  and  C_15 
REMARK    6  A    between atoms: C_21  and  C_22 
ROOT
ATOM      1  O   UNL d   1      59.412  -9.656  33.471  0.00  0.00    -0.305 OA
ENDROOT
BRANCH   1   2
ATOM      2  C   UNL d   1      59.558  -9.139  34.092  0.00  0.00     0.100 A 
ATOM      3  C   UNL d   1      60.310  -8.805  34.192  0.00  0.00     0.024 A 
ATOM      4  C   UNL d   1      60.468  -8.289  34.808  0.00  0.00    -0.002 A 
ATOM      5  C   UNL d   1      59.859  -8.092  35.348  0.00  0.00    -0.023 A 
ATOM      6  C   UNL d   1      59.112  -8.418  35.256  0.00  0.00    -0.002 A 
ATOM      7  C   UNL d   1      58.949  -8.942  34.632  0.00  0.00     0.024 A 
BRANCH   5   8
ATOM      8  C   UNL d   1      60.015  -7.575  35.967  0.00  0.00     0.019 C 
ATOM      9  C   UNL d   1      59.431  -7.066  36.239  0.00  0.00     0.004 C 
ATOM     10  C   UNL d   1      60.766  -7.566  36.318  0.00  0.00     0.004 C 
ATOM     11  C   UNL d   1      59.227  -7.430  35.761  0.00  0.00     0.004 C 
ENDBRANCH   5   8
ENDBRANCH   1   2
BRANCH   1  12
ATOM     12  C   UNL d   1      59.088  -9.364  32.766  0.00  0.00     0.123 C 
BRANCH  12  13
ATOM     13  C   UNL d   1      59.132  -9.818  32.079  0.00  0.00     0.032 C 
BRANCH  13  14
ATOM     14  C   UNL d   1      58.528  -9.774  31.522  0.00  0.00     0.063 C 
BRANCH  14  15
ATOM     15  C   UNL d   1      58.719  -9.713  30.720  0.00  0.00     0.265 C 
ATOM     16  N   UNL d   1      58.117  -9.718  30.151  0.00  0.00    -0.268 N 
ATOM     17  C   UNL d   1      58.295  -9.658  29.348  0.00  0.00     0.110 A 
ATOM     18  C   UNL d   1      57.319  -9.783  30.394  0.00  0.00     0.110 A 
ATOM     19  C   UNL d   1      57.698  -9.662  28.791  0.00  0.00     0.142 A 
ATOM     20  O   UNL d   1      56.899  -9.728  29.035  0.00  0.00    -0.300 OA
ATOM     21  C   UNL d   1      56.727  -9.787  29.827  0.00  0.00     0.142 A 
ATOM     22  O   UNL d   1      59.509  -9.648  30.479  0.00  0.00    -0.267 OA
ENDBRANCH  14  15
ENDBRANCH  13  14
ENDBRANCH  12  13
ENDBRANCH   1  12
TORSDOF 6
ENDMDL
