MODEL 1
REMARK VINA RESULT:      -5.2      0.000      0.000
REMARK  1 active torsions:
REMARK  status: ('A' for Active; 'I' for Inactive)
REMARK       I    between atoms: C_3  and  N_1 
REMARK    1  A    between atoms: C_6  and  C_3 
ROOT
ATOM      1  N   UNL d   1      57.132  -0.567  31.395  0.00  0.00    -0.175 N 
ATOM      2  N   UNL d   1      57.138  -1.399  31.504  0.00  0.00    -0.057 NA
ATOM      3  C   UNL d   1      57.568  -0.152  30.808  0.00  0.00     0.282 C 
ATOM      4  N   UNL d   1      56.662  -1.572  32.105  0.00  0.00    -0.129 NA
ATOM      5  C   UNL d   1      56.628  -0.245  31.963  0.00  0.00     0.107 A 
ATOM      6  C   UNL d   1      56.331  -0.879  32.412  0.00  0.00     0.122 A 
ATOM      7  O   UNL d   1      57.506   0.682  30.769  0.00  0.00    -0.265 OA
ATOM      8  C   UNL d   1      56.394   0.542  32.137  0.00  0.00     0.021 A 
ATOM      9  C   UNL d   1      55.794  -0.742  33.044  0.00  0.00     0.022 A 
ATOM     10  C   UNL d   1      55.862   0.679  32.765  0.00  0.00     0.002 A 
ATOM     11  C   UNL d   1      55.565   0.045  33.213  0.00  0.00     0.002 A 
ENDROOT
BRANCH   3  12
ATOM     12  C   UNL d   1      58.053  -0.551  30.275  0.00  0.00     0.058 A 
ATOM     13  C   UNL d   1      58.802  -0.277  30.101  0.00  0.00     0.005 A 
ATOM     14  C   UNL d   1      59.274  -0.668  29.580  0.00  0.00     0.000 A 
ATOM     15  C   UNL d   1      59.048   0.408  30.479  0.00  0.00     0.000 A 
ATOM     16  C   UNL d   1      60.016  -0.378  29.421  0.00  0.00     0.000 A 
ATOM     17  C   UNL d   1      59.003  -1.361  29.209  0.00  0.00     0.000 A 
ATOM     18  C   UNL d   1      60.281   0.282  29.772  0.00  0.00     0.000 A 
ATOM     19  C   UNL d   1      59.800   0.679  30.302  0.00  0.00     0.000 A 
ATOM     20  C   UNL d   1      58.249  -1.647  29.376  0.00  0.00     0.000 A 
ATOM     21  C   UNL d   1      57.770  -1.236  29.915  0.00  0.00     0.005 A 
ENDBRANCH   3  12
TORSDOF 1
ENDMDL
MODEL 2
REMARK VINA RESULT:      -5.1      1.074      1.702
REMARK  1 active torsions:
REMARK  status: ('A' for Active; 'I' for Inactive)
REMARK       I    between atoms: C_3  and  N_1 
REMARK    1  A    between atoms: C_6  and  C_3 
ROOT
ATOM      1  N   UNL d   1      57.605  -0.285  31.089  0.00  0.00    -0.175 N 
ATOM      2  N   UNL d   1      57.941   0.459  31.279  0.00  0.00    -0.057 NA
ATOM      3  C   UNL d   1      57.753  -0.720  30.385  0.00  0.00     0.282 C 
ATOM      4  N   UNL d   1      57.667   0.682  31.981  0.00  0.00    -0.129 NA
ATOM      5  C   UNL d   1      57.111  -0.502  31.714  0.00  0.00     0.107 A 
ATOM      6  C   UNL d   1      57.150   0.108  32.277  0.00  0.00     0.122 A 
ATOM      7  O   UNL d   1      57.374  -1.457  30.274  0.00  0.00    -0.265 OA
ATOM      8  C   UNL d   1      56.627  -1.174  31.851  0.00  0.00     0.021 A 
ATOM      9  C   UNL d   1      56.707   0.062  32.991  0.00  0.00     0.022 A 
ATOM     10  C   UNL d   1      56.187  -1.221  32.559  0.00  0.00     0.002 A 
ATOM     11  C   UNL d   1      56.227  -0.610  33.122  0.00  0.00     0.002 A 
ENDROOT
BRANCH   3  12
ATOM     12  C   UNL d   1      58.263  -0.431  29.806  0.00  0.00     0.058 A 
ATOM     13  C   UNL d   1      58.834  -0.909  29.472  0.00  0.00     0.005 A 
ATOM     14  C   UNL d   1      59.331  -0.625  28.906  0.00  0.00     0.000 A 
ATOM     15  C   UNL d   1      58.876  -1.684  29.736  0.00  0.00     0.000 A 
ATOM     16  C   UNL d   1      59.892  -1.119  28.586  0.00  0.00     0.000 A 
ATOM     17  C   UNL d   1      59.270   0.164  28.653  0.00  0.00     0.000 A 
ATOM     18  C   UNL d   1      59.956  -1.874  28.823  0.00  0.00     0.000 A 
ATOM     19  C   UNL d   1      59.449  -2.160  29.399  0.00  0.00     0.000 A 
ATOM     20  C   UNL d   1      58.698   0.656  28.983  0.00  0.00     0.000 A 
ATOM     21  C   UNL d   1      58.190   0.354  29.566  0.00  0.00     0.005 A 
ENDBRANCH   3  12
TORSDOF 1
ENDMDL
MODEL 3
REMARK VINA RESULT:      -4.6      0.953      3.715
REMARK  1 active torsions:
REMARK  status: ('A' for Active; 'I' for Inactive)
REMARK       I    between atoms: C_3  and  N_1 
REMARK    1  A    between atoms: C_6  and  C_3 
ROOT
ATOM      1  N   UNL d   1      57.452  -0.678  30.965  0.00  0.00    -0.175 N 
ATOM      2  N   UNL d   1      57.371  -1.512  30.992  0.00  0.00    -0.057 NA
ATOM      3  C   UNL d   1      57.105  -0.139  31.509  0.00  0.00     0.282 C 
ATOM      4  N   UNL d   1      57.776  -1.819  30.392  0.00  0.00    -0.129 NA
ATOM      5  C   UNL d   1      57.928  -0.494  30.316  0.00  0.00     0.107 A 
ATOM      6  C   UNL d   1      58.132  -1.215  29.954  0.00  0.00     0.122 A 
ATOM      7  O   UNL d   1      57.236   0.681  31.409  0.00  0.00    -0.265 OA
ATOM      8  C   UNL d   1      58.206   0.231  30.000  0.00  0.00     0.021 A 
ATOM      9  C   UNL d   1      58.619  -1.227  29.268  0.00  0.00     0.022 A 
ATOM     10  C   UNL d   1      58.689   0.221  29.320  0.00  0.00     0.002 A 
ATOM     11  C   UNL d   1      58.894  -0.500  28.958  0.00  0.00     0.002 A 
ENDROOT
BRANCH   3  12
ATOM     12  C   UNL d   1      56.639  -0.405  32.134  0.00  0.00     0.058 A 
ATOM     13  C   UNL d   1      56.762  -0.134  32.894  0.00  0.00     0.005 A 
ATOM     14  C   UNL d   1      56.306  -0.395  33.504  0.00  0.00     0.000 A 
ATOM     15  C   UNL d   1      57.363   0.411  33.006  0.00  0.00     0.000 A 
ATOM     16  C   UNL d   1      56.445  -0.112  34.253  0.00  0.00     0.000 A 
ATOM     17  C   UNL d   1      55.701  -0.949  33.367  0.00  0.00     0.000 A 
ATOM     18  C   UNL d   1      57.020   0.417  34.391  0.00  0.00     0.000 A 
ATOM     19  C   UNL d   1      57.482   0.681  33.769  0.00  0.00     0.000 A 
ATOM     20  C   UNL d   1      55.568  -1.230  32.605  0.00  0.00     0.000 A 
ATOM     21  C   UNL d   1      56.044  -0.954  31.982  0.00  0.00     0.005 A 
ENDBRANCH   3  12
TORSDOF 1
ENDMDL
MODEL 4
REMARK VINA RESULT:      -4.3      1.255      4.006
REMARK  1 active torsions:
REMARK  status: ('A' for Active; 'I' for Inactive)
REMARK       I    between atoms: C_3  and  N_1 
REMARK    1  A    between atoms: C_6  and  C_3 
ROOT
ATOM      1  N   UNL d   1      58.270   0.257  30.995  0.00  0.00    -0.175 N 
ATOM      2  N   UNL d   1      58.946   0.392  31.472  0.00  0.00    -0.057 NA
ATOM      3  C   UNL d   1      57.490   0.130  31.282  0.00  0.00     0.282 C 
ATOM      4  N   UNL d   1      59.567   0.486  31.000  0.00  0.00    -0.129 NA
ATOM      5  C   UNL d   1      58.514   0.274  30.206  0.00  0.00     0.107 A 
ATOM      6  C   UNL d   1      59.333   0.418  30.209  0.00  0.00     0.122 A 
ATOM      7  O   UNL d   1      56.870   0.003  30.735  0.00  0.00    -0.265 OA
ATOM      8  C   UNL d   1      58.104   0.178  29.481  0.00  0.00     0.021 A 
ATOM      9  C   UNL d   1      59.762   0.470  29.487  0.00  0.00     0.022 A 
ATOM     10  C   UNL d   1      58.528   0.229  28.764  0.00  0.00     0.002 A 
ATOM     11  C   UNL d   1      59.347   0.373  28.767  0.00  0.00     0.002 A 
ENDROOT
BRANCH   3  12
ATOM     12  C   UNL d   1      57.329   0.128  32.090  0.00  0.00     0.058 A 
ATOM     13  C   UNL d   1      56.798  -0.402  32.412  0.00  0.00     0.005 A 
ATOM     14  C   UNL d   1      56.642  -0.401  33.201  0.00  0.00     0.000 A 
ATOM     15  C   UNL d   1      56.436  -0.928  31.899  0.00  0.00     0.000 A 
ATOM     16  C   UNL d   1      56.110  -0.938  33.501  0.00  0.00     0.000 A 
ATOM     17  C   UNL d   1      57.021   0.142  33.703  0.00  0.00     0.000 A 
ATOM     18  C   UNL d   1      55.744  -1.459  33.028  0.00  0.00     0.000 A 
ATOM     19  C   UNL d   1      55.904  -1.458  32.225  0.00  0.00     0.000 A 
ATOM     20  C   UNL d   1      57.559   0.682  33.390  0.00  0.00     0.000 A 
ATOM     21  C   UNL d   1      57.713   0.673  32.574  0.00  0.00     0.005 A 
ENDBRANCH   3  12
TORSDOF 1
ENDMDL
MODEL 5
REMARK VINA RESULT:      -3.7      2.251      4.318
REMARK  1 active torsions:
REMARK  status: ('A' for Active; 'I' for Inactive)
REMARK       I    between atoms: C_3  and  N_1 
REMARK    1  A    between atoms: C_6  and  C_3 
ROOT
ATOM      1  N   UNL d   1      59.553  -2.094  29.094  0.00  0.00    -0.175 N 
ATOM      2  N   UNL d   1      60.296  -1.757  29.287  0.00  0.00    -0.057 NA
ATOM      3  C   UNL d   1      58.815  -1.691  29.119  0.00  0.00     0.282 C 
ATOM      4  N   UNL d   1      60.848  -2.308  29.196  0.00  0.00    -0.129 NA
ATOM      5  C   UNL d   1      59.684  -2.881  28.880  0.00  0.00     0.107 A 
ATOM      6  C   UNL d   1      60.502  -3.016  28.944  0.00  0.00     0.122 A 
ATOM      7  O   UNL d   1      58.118  -2.103  28.910  0.00  0.00    -0.265 OA
ATOM      8  C   UNL d   1      59.171  -3.497  28.634  0.00  0.00     0.021 A 
ATOM      9  C   UNL d   1      60.827  -3.770  28.764  0.00  0.00     0.022 A 
ATOM     10  C   UNL d   1      59.492  -4.246  28.455  0.00  0.00     0.002 A 
ATOM     11  C   UNL d   1      60.310  -4.381  28.519  0.00  0.00     0.002 A 
ENDROOT
BRANCH   3  12
ATOM     12  C   UNL d   1      58.769  -0.900  29.345  0.00  0.00     0.058 A 
ATOM     13  C   UNL d   1      58.303  -0.669  29.974  0.00  0.00     0.005 A 
ATOM     14  C   UNL d   1      58.260   0.105  30.193  0.00  0.00     0.000 A 
ATOM     15  C   UNL d   1      57.886  -1.254  30.367  0.00  0.00     0.000 A 
ATOM     16  C   UNL d   1      57.790   0.313  30.823  0.00  0.00     0.000 A 
ATOM     17  C   UNL d   1      58.692   0.682  29.780  0.00  0.00     0.000 A 
ATOM     18  C   UNL d   1      57.375  -0.232  31.222  0.00  0.00     0.000 A 
ATOM     19  C   UNL d   1      57.420  -1.018  30.997  0.00  0.00     0.000 A 
ATOM     20  C   UNL d   1      59.166   0.461  29.144  0.00  0.00     0.000 A 
ATOM     21  C   UNL d   1      59.204  -0.340  28.925  0.00  0.00     0.005 A 
ENDBRANCH   3  12
TORSDOF 1
ENDMDL
MODEL 6
REMARK VINA RESULT:      -3.6      1.146      4.185
REMARK  1 active torsions:
REMARK  status: ('A' for Active; 'I' for Inactive)
REMARK       I    between atoms: C_3  and  N_1 
REMARK    1  A    between atoms: C_6  and  C_3 
ROOT
ATOM      1  N   UNL d   1      57.692  -0.220  31.432  0.00  0.00    -0.175 N 
ATOM      2  N   UNL d   1      58.006   0.557  31.447  0.00  0.00    -0.057 NA
ATOM      3  C   UNL d   1      57.243  -0.574  32.049  0.00  0.00     0.282 C 
ATOM      4  N   UNL d   1      58.389   0.682  30.772  0.00  0.00    -0.129 NA
ATOM      5  C   UNL d   1      57.905  -0.562  30.711  0.00  0.00     0.107 A 
ATOM      6  C   UNL d   1      58.345   0.008  30.294  0.00  0.00     0.122 A 
ATOM      7  O   UNL d   1      56.966  -1.358  31.953  0.00  0.00    -0.265 OA
ATOM      8  C   UNL d   1      57.759  -1.315  30.373  0.00  0.00     0.021 A 
ATOM      9  C   UNL d   1      58.650  -0.163  29.529  0.00  0.00     0.022 A 
ATOM     10  C   UNL d   1      58.061  -1.486  29.614  0.00  0.00     0.002 A 
ATOM     11  C   UNL d   1      58.501  -0.916  29.197  0.00  0.00     0.002 A 
ENDROOT
BRANCH   3  12
ATOM     12  C   UNL d   1      57.072  -0.163  32.742  0.00  0.00     0.058 A 
ATOM     13  C   UNL d   1      56.323  -0.173  33.063  0.00  0.00     0.005 A 
ATOM     14  C   UNL d   1      56.159   0.229  33.741  0.00  0.00     0.000 A 
ATOM     15  C   UNL d   1      55.751  -0.608  32.669  0.00  0.00     0.000 A 
ATOM     16  C   UNL d   1      55.405   0.206  34.044  0.00  0.00     0.000 A 
ATOM     17  C   UNL d   1      56.754   0.664  34.125  0.00  0.00     0.000 A 
ATOM     18  C   UNL d   1      54.831  -0.207  33.683  0.00  0.00     0.000 A 
ATOM     19  C   UNL d   1      55.000  -0.616  32.994  0.00  0.00     0.000 A 
ATOM     20  C   UNL d   1      57.515   0.682  33.810  0.00  0.00     0.000 A 
ATOM     21  C   UNL d   1      57.674   0.263  33.110  0.00  0.00     0.005 A 
ENDBRANCH   3  12
TORSDOF 1
ENDMDL
MODEL 7
REMARK VINA RESULT:      -2.2      9.459      9.616
REMARK  1 active torsions:
REMARK  status: ('A' for Active; 'I' for Inactive)
REMARK       I    between atoms: C_3  and  N_1 
REMARK    1  A    between atoms: C_6  and  C_3 
ROOT
ATOM      1  N   UNL d   1      59.693  -9.169  33.891  0.00  0.00    -0.175 N 
ATOM      2  N   UNL d   1      60.465  -8.864  33.773  0.00  0.00    -0.057 NA
ATOM      3  C   UNL d   1      59.222  -9.540  33.301  0.00  0.00     0.282 C 
ATOM      4  N   UNL d   1      60.719  -8.564  34.453  0.00  0.00    -0.129 NA
ATOM      5  C   UNL d   1      59.491  -9.039  34.681  0.00  0.00     0.107 A 
ATOM      6  C   UNL d   1      60.139  -8.656  35.036  0.00  0.00     0.122 A 
ATOM      7  O   UNL d   1      58.459  -9.817  33.504  0.00  0.00    -0.265 OA
ATOM      8  C   UNL d   1      58.805  -9.215  35.130  0.00  0.00     0.021 A 
ATOM      9  C   UNL d   1      60.116  -8.441  35.849  0.00  0.00     0.022 A 
ATOM     10  C   UNL d   1      58.781  -9.002  35.936  0.00  0.00     0.002 A 
ATOM     11  C   UNL d   1      59.429  -8.619  36.291  0.00  0.00     0.002 A 
ENDROOT
BRANCH   3  12
ATOM     12  C   UNL d   1      59.499  -9.632  32.530  0.00  0.00     0.058 A 
ATOM     13  C   UNL d   1      58.983  -9.654  31.898  0.00  0.00     0.005 A 
ATOM     14  C   UNL d   1      59.256  -9.744  31.146  0.00  0.00     0.000 A 
ATOM     15  C   UNL d   1      58.184  -9.580  32.063  0.00  0.00     0.000 A 
ATOM     16  C   UNL d   1      58.725  -9.764  30.531  0.00  0.00     0.000 A 
ATOM     17  C   UNL d   1      60.071  -9.817  31.003  0.00  0.00     0.000 A 
ATOM     18  C   UNL d   1      57.945  -9.695  30.661  0.00  0.00     0.000 A 
ATOM     19  C   UNL d   1      57.670  -9.603  31.426  0.00  0.00     0.000 A 
ATOM     20  C   UNL d   1      60.601  -9.797  31.633  0.00  0.00     0.000 A 
ATOM     21  C   UNL d   1      60.310  -9.703  32.405  0.00  0.00     0.005 A 
ENDBRANCH   3  12
TORSDOF 1
ENDMDL
