MODEL 1
REMARK VINA RESULT:      26.0      0.000      0.000
REMARK  9 active torsions:
REMARK  status: ('A' for Active; 'I' for Inactive)
REMARK    1  A    between atoms: N_2  and  C_1 
REMARK       I    between atoms: C_4  and  N_2 
REMARK    2  A    between atoms: C_7  and  C_4 
REMARK    3  A    between atoms: C_8  and  C_5 
REMARK    4  A    between atoms: C_10  and  C_8 
REMARK       I    between atoms: N_12  and  C_10 
REMARK    5  A    between atoms: C_11  and  C_19 
REMARK    6  A    between atoms: C_19  and  N_12 
REMARK    7  A    between atoms: O_23  and  C_17 
REMARK    8  A    between atoms: O_24  and  C_18 
REMARK    9  A    between atoms: O_22  and  C_20 
ROOT
ATOM      1  C   UNL d   1      46.099 -15.801  44.164  0.00  0.00     0.197 A 
ATOM      2  N   UNL d   1      46.583 -15.188  44.455  0.00  0.00    -0.220 NA
ATOM      3  C   UNL d   1      46.103 -14.551  44.647  0.00  0.00     0.095 A 
ATOM      4  S   UNL d   1      45.322 -15.526  44.184  0.00  0.00    -0.046 SA
ATOM      5  C   UNL d   1      45.323 -14.759  44.480  0.00  0.00     0.058 A 
ENDROOT
BRANCH   1   6
ATOM      6  N   UNL d   1      46.360 -16.536  43.910  0.00  0.00    -0.183 NA
ATOM      7  C   UNL d   1      45.848 -17.063  43.552  0.00  0.00     0.281 C 
ATOM      8  O   UNL d   1      45.050 -16.863  43.439  0.00  0.00    -0.265 OA
BRANCH   7   9
ATOM      9  C   UNL d   1      46.108 -17.805  43.295  0.00  0.00     0.062 A 
ATOM     10  C   UNL d   1      46.232 -18.409  43.823  0.00  0.00     0.029 A 
ATOM     11  C   UNL d   1      46.491 -19.143  43.560  0.00  0.00     0.096 A 
ATOM     12  C   UNL d   1      46.626 -19.267  42.753  0.00  0.00     0.048 A 
ATOM     13  C   UNL d   1      46.498 -18.652  42.229  0.00  0.00     0.096 A 
ATOM     14  C   UNL d   1      46.241 -17.918  42.483  0.00  0.00     0.029 A 
BRANCH  11  15
ATOM     15  O   UNL d   1      46.616 -19.754  44.094  0.00  0.00    -0.328 OA
ATOM     16  C   UNL d   1      45.974 -20.206  44.369  0.00  0.00     0.181 C 
ENDBRANCH  11  15
BRANCH  13  17
ATOM     17  O   UNL d   1      46.631 -18.764  41.416  0.00  0.00    -0.328 OA
ATOM     18  C   UNL d   1      46.203 -19.335  41.002  0.00  0.00     0.181 C 
ENDBRANCH  13  17
ENDBRANCH   7   9
ENDBRANCH   1   6
BRANCH   3  19
ATOM     19  C   UNL d   1      46.355 -13.827  44.954  0.00  0.00     0.082 C 
BRANCH  19  20
ATOM     20  C   UNL d   1      46.083 -13.119  44.622  0.00  0.00     0.281 C 
ATOM     21  N   UNL d   1      45.547 -13.143  44.000  0.00  0.00    -0.206 NA
ATOM     22  O   UNL d   1      46.353 -12.403  44.920  0.00  0.00    -0.265 OA
BRANCH  21  23
ATOM     23  C   UNL d   1      45.277 -12.443  43.672  0.00  0.00     0.104 C 
BRANCH  23  24
ATOM     24  C   UNL d   1      45.199 -12.373  42.852  0.00  0.00     0.042 A 
ATOM     25  C   UNL d   1      44.454 -12.459  42.502  0.00  0.00     0.096 A 
ATOM     26  C   UNL d   1      44.363 -12.392  41.690  0.00  0.00     0.024 A 
ATOM     27  C   UNL d   1      45.018 -12.238  41.216  0.00  0.00     0.002 A 
ATOM     28  C   UNL d   1      45.763 -12.151  41.558  0.00  0.00     0.000 A 
ATOM     29  C   UNL d   1      45.856 -12.219  42.375  0.00  0.00     0.004 A 
BRANCH  25  30
ATOM     30  O   UNL d   1      43.785 -12.615  42.974  0.00  0.00    -0.328 OA
ATOM     31  C   UNL d   1      43.132 -12.108  42.961  0.00  0.00     0.181 C 
ENDBRANCH  25  30
ENDBRANCH  23  24
ENDBRANCH  21  23
ENDBRANCH  19  20
ENDBRANCH   3  19
TORSDOF 9
ENDMDL
