MODEL 1
REMARK VINA RESULT:      -3.1      0.000      0.000
REMARK  6 active torsions:
REMARK  status: ('A' for Active; 'I' for Inactive)
REMARK    1  A    between atoms: C_11  and  N_4 
REMARK    2  A    between atoms: C_19  and  C_7 
REMARK    3  A    between atoms: C_17  and  C_11 
REMARK    4  A    between atoms: O_21  and  C_16 
REMARK    5  A    between atoms: C_20  and  C_17 
REMARK    6  A    between atoms: C_25  and  C_19 
ROOT
ATOM      1  C   UNL d   1      33.217  19.846 -22.812  0.00  0.00     0.137 A 
ATOM      2  C   UNL d   1      33.217  20.064 -23.609  0.00  0.00     0.192 A 
ATOM      3  C   UNL d   1      33.224  20.423 -22.223  0.00  0.00     0.272 A 
ATOM      4  N   UNL d   1      33.233  21.219 -22.430  0.00  0.00    -0.258 N 
ATOM      5  N   UNL d   1      33.225  20.856 -23.818  0.00  0.00    -0.204 NA
ATOM      6  C   UNL d   1      33.209  19.046 -22.605  0.00  0.00     0.205 A 
ATOM      7  C   UNL d   1      33.233  21.441 -23.227  0.00  0.00     0.152 A 
ATOM      8  C   UNL d   1      33.201  18.475 -23.185  0.00  0.00     0.062 A 
ATOM      9  O   UNL d   1      33.209  19.485 -24.190  0.00  0.00    -0.289 OA
ATOM     10  C   UNL d   1      33.201  18.688 -23.979  0.00  0.00     0.107 A 
ATOM     11  C   UNL d   1      33.193  18.103 -24.571  0.00  0.00     0.049 A 
ATOM     12  C   UNL d   1      33.193  17.674 -22.973  0.00  0.00     0.007 A 
ATOM     13  O   UNL d   1      33.224  20.201 -21.430  0.00  0.00    -0.266 OA
ATOM     14  O   UNL d   1      33.208  18.832 -21.811  0.00  0.00    -0.286 OA
ATOM     15  C   UNL d   1      33.185  17.310 -24.357  0.00  0.00     0.096 A 
ATOM     16  C   UNL d   1      33.185  17.097 -23.563  0.00  0.00     0.024 A 
ENDROOT
BRANCH   4  17
ATOM     17  C   UNL d   1      33.240  21.795 -21.841  0.00  0.00     0.084 C 
BRANCH  17  18
ATOM     18  C   UNL d   1      32.750  21.718 -21.169  0.00  0.00     0.019 C 
BRANCH  18  19
ATOM     19  C   UNL d   1      32.662  22.355 -20.649  0.00  0.00     0.002 A 
ATOM     20  C   UNL d   1      32.018  22.871 -20.745  0.00  0.00     0.000 A 
ATOM     21  C   UNL d   1      31.924  23.515 -20.223  0.00  0.00     0.000 A 
ATOM     22  C   UNL d   1      32.470  23.638 -19.611  0.00  0.00     0.000 A 
ATOM     23  C   UNL d   1      33.115  23.115 -19.521  0.00  0.00     0.000 A 
ATOM     24  C   UNL d   1      33.204  22.478 -20.041  0.00  0.00     0.000 A 
ENDBRANCH  18  19
ENDBRANCH  17  18
ENDBRANCH   4  17
BRANCH   7  25
ATOM     25  C   UNL d   1      33.241  22.238 -23.439  0.00  0.00     0.038 C 
BRANCH  25  26
ATOM     26  C   UNL d   1      33.240  22.459 -24.230  0.00  0.00     0.003 C 
ATOM     27  C   UNL d   1      32.994  23.209 -24.442  0.00  0.00     0.000 C 
ENDBRANCH  25  26
ENDBRANCH   7  25
BRANCH  15  28
ATOM     28  O   UNL d   1      33.177  16.729 -24.931  0.00  0.00    -0.328 OA
ATOM     29  C   UNL d   1      32.702  16.065 -24.830  0.00  0.00     0.181 C 
ENDBRANCH  15  28
TORSDOF 6
ENDMDL
MODEL 2
REMARK VINA RESULT:      -2.1      1.230      5.078
REMARK  6 active torsions:
REMARK  status: ('A' for Active; 'I' for Inactive)
REMARK    1  A    between atoms: C_11  and  N_4 
REMARK    2  A    between atoms: C_19  and  C_7 
REMARK    3  A    between atoms: C_17  and  C_11 
REMARK    4  A    between atoms: O_21  and  C_16 
REMARK    5  A    between atoms: C_20  and  C_17 
REMARK    6  A    between atoms: C_25  and  C_19 
ROOT
ATOM      1  C   UNL d   1      33.209  21.190 -21.378  0.00  0.00     0.137 A 
ATOM      2  C   UNL d   1      33.203  21.952 -21.700  0.00  0.00     0.192 A 
ATOM      3  C   UNL d   1      33.218  20.530 -21.872  0.00  0.00     0.272 A 
ATOM      4  N   UNL d   1      33.222  20.630 -22.689  0.00  0.00    -0.258 N 
ATOM      5  N   UNL d   1      33.207  22.054 -22.513  0.00  0.00    -0.204 NA
ATOM      6  C   UNL d   1      33.205  21.091 -20.558  0.00  0.00     0.205 A 
ATOM      7  C   UNL d   1      33.216  21.391 -23.014  0.00  0.00     0.152 A 
ATOM      8  C   UNL d   1      33.196  21.741 -20.068  0.00  0.00     0.062 A 
ATOM      9  O   UNL d   1      33.194  22.604 -21.203  0.00  0.00    -0.289 OA
ATOM     10  C   UNL d   1      33.191  22.500 -20.385  0.00  0.00     0.107 A 
ATOM     11  C   UNL d   1      33.181  23.164 -19.884  0.00  0.00     0.049 A 
ATOM     12  C   UNL d   1      33.193  21.637 -19.247  0.00  0.00     0.007 A 
ATOM     13  O   UNL d   1      33.224  19.773 -21.548  0.00  0.00    -0.266 OA
ATOM     14  O   UNL d   1      33.211  20.332 -20.241  0.00  0.00    -0.286 OA
ATOM     15  C   UNL d   1      33.178  23.057 -19.069  0.00  0.00     0.096 A 
ATOM     16  C   UNL d   1      33.183  22.299 -18.753  0.00  0.00     0.024 A 
ENDROOT
BRANCH   4  17
ATOM     17  C   UNL d   1      33.231  19.970 -23.182  0.00  0.00     0.084 C 
BRANCH  17  18
ATOM     18  C   UNL d   1      32.695  19.342 -23.057  0.00  0.00     0.019 C 
BRANCH  18  19
ATOM     19  C   UNL d   1      32.704  18.686 -23.559  0.00  0.00     0.002 A 
ATOM     20  C   UNL d   1      32.203  18.043 -23.397  0.00  0.00     0.000 A 
ATOM     21  C   UNL d   1      32.209  17.378 -23.902  0.00  0.00     0.000 A 
ATOM     22  C   UNL d   1      32.712  17.360 -24.561  0.00  0.00     0.000 A 
ATOM     23  C   UNL d   1      33.213  18.010 -24.716  0.00  0.00     0.000 A 
ATOM     24  C   UNL d   1      33.204  18.667 -24.214  0.00  0.00     0.000 A 
ENDBRANCH  18  19
ENDBRANCH  17  18
ENDBRANCH   4  17
BRANCH   7  25
ATOM     25  C   UNL d   1      33.220  21.495 -23.832  0.00  0.00     0.038 C 
BRANCH  25  26
ATOM     26  C   UNL d   1      33.111  22.242 -24.158  0.00  0.00     0.003 C 
ATOM     27  C   UNL d   1      33.042  22.325 -24.968  0.00  0.00     0.000 C 
ENDBRANCH  25  26
ENDBRANCH   7  25
BRANCH  15  28
ATOM     28  O   UNL d   1      33.169  23.702 -18.569  0.00  0.00    -0.328 OA
ATOM     29  C   UNL d   1      33.196  23.586 -17.755  0.00  0.00     0.181 C 
ENDBRANCH  15  28
TORSDOF 6
ENDMDL
