MODEL 1
REMARK VINA RESULT:      -7.5      0.000      0.000
REMARK  4 active torsions:
REMARK  status: ('A' for Active; 'I' for Inactive)
REMARK    1  A    between atoms: N_2  and  S_1 
REMARK    2  A    between atoms: C_3  and  S_1 
REMARK    3  A    between atoms: C_14  and  C_4 
REMARK    4  A    between atoms: O_17  and  C_11 
ROOT
ATOM      1  S   UNL d   1      52.896  33.258  53.505  0.00  0.00     0.274 S 
ATOM      2  O   UNL d   1      53.452  33.097  52.925  0.00  0.00    -0.199 OA
ATOM      3  O   UNL d   1      52.628  32.657  54.002  0.00  0.00    -0.199 OA
ENDROOT
BRANCH   1   4
ATOM      4  N   UNL d   1      52.606  34.021  53.590  0.00  0.00    -0.213 N 
ATOM      5  C   UNL d   1      52.015  34.294  53.096  0.00  0.00     0.157 A 
ATOM      6  N   UNL d   1      51.716  35.086  53.185  0.00  0.00    -0.226 NA
ATOM      7  C   UNL d   1      52.622  35.285  54.263  0.00  0.00     0.101 A 
ATOM      8  C   UNL d   1      52.916  34.518  54.180  0.00  0.00     0.112 A 
ATOM      9  C   UNL d   1      52.942  35.772  54.860  0.00  0.00     0.022 C 
BRANCH   5  10
ATOM     10  C   UNL d   1      51.705  33.802  52.507  0.00  0.00     0.038 C 
ATOM     11  C   UNL d   1      51.123  34.101  52.012  0.00  0.00     0.003 C 
ENDBRANCH   5  10
ENDBRANCH   1   4
BRANCH   1  12
ATOM     12  C   UNL d   1      53.188  32.499  53.416  0.00  0.00     0.127 A 
ATOM     13  C   UNL d   1      52.678  31.863  53.356  0.00  0.00     0.022 A 
ATOM     14  C   UNL d   1      52.961  31.102  53.268  0.00  0.00     0.035 A 
ATOM     15 BR   UNL d   1      52.435  30.474  53.209  0.00  0.00    -0.049 Br
ATOM     16  C   UNL d   1      53.776  30.970  53.238  0.00  0.00     0.009 A 
ATOM     17  C   UNL d   1      54.294  31.609  53.297  0.00  0.00     0.025 A 
ATOM     18  C   UNL d   1      54.003  32.368  53.386  0.00  0.00     0.106 A 
BRANCH  18  19
ATOM     19  O   UNL d   1      54.525  33.008  53.446  0.00  0.00    -0.327 OA
ATOM     20  C   UNL d   1      55.340  32.881  53.462  0.00  0.00     0.181 C 
ENDBRANCH  18  19
ENDBRANCH   1  12
TORSDOF 4
ENDMDL
MODEL 2
REMARK VINA RESULT:      -7.0      1.056      2.199
REMARK  4 active torsions:
REMARK  status: ('A' for Active; 'I' for Inactive)
REMARK    1  A    between atoms: N_2  and  S_1 
REMARK    2  A    between atoms: C_3  and  S_1 
REMARK    3  A    between atoms: C_14  and  C_4 
REMARK    4  A    between atoms: O_17  and  C_11 
ROOT
ATOM      1  S   UNL d   1      53.323  33.158  53.997  0.00  0.00     0.274 S 
ATOM      2  O   UNL d   1      53.472  33.058  53.198  0.00  0.00    -0.199 OA
ATOM      3  O   UNL d   1      52.992  32.545  54.439  0.00  0.00    -0.199 OA
ENDROOT
BRANCH   1   4
ATOM      4  N   UNL d   1      53.503  33.873  54.358  0.00  0.00    -0.213 N 
ATOM      5  C   UNL d   1      54.239  33.989  54.696  0.00  0.00     0.157 A 
ATOM      6  N   UNL d   1      54.425  34.730  55.070  0.00  0.00    -0.226 NA
ATOM      7  C   UNL d   1      53.122  35.198  54.745  0.00  0.00     0.101 A 
ATOM      8  C   UNL d   1      52.937  34.480  54.381  0.00  0.00     0.112 A 
ATOM      9  C   UNL d   1      52.543  35.798  54.760  0.00  0.00     0.022 C 
BRANCH   5  10
ATOM     10  C   UNL d   1      54.806  33.385  54.675  0.00  0.00     0.038 C 
ATOM     11  C   UNL d   1      55.551  33.536  54.984  0.00  0.00     0.003 C 
ENDBRANCH   5  10
ENDBRANCH   1   4
BRANCH   1  12
ATOM     12  C   UNL d   1      53.144  32.448  53.633  0.00  0.00     0.127 A 
ATOM     13  C   UNL d   1      53.509  31.757  53.871  0.00  0.00     0.022 A 
ATOM     14  C   UNL d   1      53.335  31.044  53.512  0.00  0.00     0.035 A 
ATOM     15 BR   UNL d   1      53.711  30.357  53.764  0.00  0.00    -0.049 Br
ATOM     16  C   UNL d   1      52.784  31.018  52.899  0.00  0.00     0.009 A 
ATOM     17  C   UNL d   1      52.413  31.713  52.655  0.00  0.00     0.025 A 
ATOM     18  C   UNL d   1      52.592  32.423  53.019  0.00  0.00     0.106 A 
BRANCH  18  19
ATOM     19  O   UNL d   1      52.219  33.120  52.772  0.00  0.00    -0.327 OA
ATOM     20  C   UNL d   1      51.556  33.088  52.284  0.00  0.00     0.181 C 
ENDBRANCH  18  19
ENDBRANCH   1  12
TORSDOF 4
ENDMDL
MODEL 3
REMARK VINA RESULT:      -6.8      1.589      3.595
REMARK  4 active torsions:
REMARK  status: ('A' for Active; 'I' for Inactive)
REMARK    1  A    between atoms: N_2  and  S_1 
REMARK    2  A    between atoms: C_3  and  S_1 
REMARK    3  A    between atoms: C_14  and  C_4 
REMARK    4  A    between atoms: O_17  and  C_11 
ROOT
ATOM      1  S   UNL d   1      52.969  33.012  53.499  0.00  0.00     0.274 S 
ATOM      2  O   UNL d   1      52.889  33.507  52.852  0.00  0.00    -0.199 OA
ATOM      3  O   UNL d   1      52.757  33.274  54.252  0.00  0.00    -0.199 OA
ENDROOT
BRANCH   1   4
ATOM      4  N   UNL d   1      53.262  32.252  53.396  0.00  0.00    -0.213 N 
ATOM      5  C   UNL d   1      54.069  32.123  53.364  0.00  0.00     0.157 A 
ATOM      6  N   UNL d   1      54.372  31.335  53.257  0.00  0.00    -0.226 NA
ATOM      7  C   UNL d   1      53.036  30.849  53.221  0.00  0.00     0.101 A 
ATOM      8  C   UNL d   1      52.737  31.612  53.324  0.00  0.00     0.112 A 
ATOM      9  C   UNL d   1      52.496  30.217  53.150  0.00  0.00     0.022 C 
BRANCH   5  10
ATOM     10  C   UNL d   1      54.595  32.759  53.435  0.00  0.00     0.038 C 
ATOM     11  C   UNL d   1      55.396  32.619  53.327  0.00  0.00     0.003 C 
ENDBRANCH   5  10
ENDBRANCH   1   4
BRANCH   1  12
ATOM     12  C   UNL d   1      52.678  33.770  53.597  0.00  0.00     0.127 A 
ATOM     13  C   UNL d   1      52.968  34.252  54.189  0.00  0.00     0.022 A 
ATOM     14  C   UNL d   1      52.682  35.010  54.293  0.00  0.00     0.035 A 
ATOM     15 BR   UNL d   1      52.985  35.483  54.893  0.00  0.00    -0.049 Br
ATOM     16  C   UNL d   1      52.090  35.296  53.794  0.00  0.00     0.009 A 
ATOM     17  C   UNL d   1      51.794  34.813  53.195  0.00  0.00     0.025 A 
ATOM     18  C   UNL d   1      52.086  34.055  53.097  0.00  0.00     0.106 A 
BRANCH  18  19
ATOM     19  O   UNL d   1      51.787  33.571  52.495  0.00  0.00    -0.327 OA
ATOM     20  C   UNL d   1      51.168  33.833  52.017  0.00  0.00     0.181 C 
ENDBRANCH  18  19
ENDBRANCH   1  12
TORSDOF 4
ENDMDL
MODEL 4
REMARK VINA RESULT:      -6.7      1.869      2.951
REMARK  4 active torsions:
REMARK  status: ('A' for Active; 'I' for Inactive)
REMARK    1  A    between atoms: N_2  and  S_1 
REMARK    2  A    between atoms: C_3  and  S_1 
REMARK    3  A    between atoms: C_14  and  C_4 
REMARK    4  A    between atoms: O_17  and  C_11 
ROOT
ATOM      1  S   UNL d   1      53.731  32.392  53.835  0.00  0.00     0.274 S 
ATOM      2  O   UNL d   1      54.209  32.897  53.403  0.00  0.00    -0.199 OA
ATOM      3  O   UNL d   1      53.774  32.382  54.659  0.00  0.00    -0.199 OA
ENDROOT
BRANCH   1   4
ATOM      4  N   UNL d   1      53.206  31.895  53.446  0.00  0.00    -0.213 N 
ATOM      5  C   UNL d   1      52.538  32.202  53.088  0.00  0.00     0.157 A 
ATOM      6  N   UNL d   1      51.995  31.685  52.685  0.00  0.00    -0.226 NA
ATOM      7  C   UNL d   1      52.825  30.581  53.022  0.00  0.00     0.101 A 
ATOM      8  C   UNL d   1      53.355  31.078  53.415  0.00  0.00     0.112 A 
ATOM      9  C   UNL d   1      52.988  29.763  52.999  0.00  0.00     0.022 C 
BRANCH   5  10
ATOM     10  C   UNL d   1      52.386  33.015  53.118  0.00  0.00     0.038 C 
ATOM     11  C   UNL d   1      51.697  33.298  52.775  0.00  0.00     0.003 C 
ENDBRANCH   5  10
ENDBRANCH   1   4
BRANCH   1  12
ATOM     12  C   UNL d   1      54.255  32.889  54.219  0.00  0.00     0.127 A 
ATOM     13  C   UNL d   1      54.070  33.199  54.952  0.00  0.00     0.022 A 
ATOM     14  C   UNL d   1      54.589  33.696  55.342  0.00  0.00     0.035 A 
ATOM     15 BR   UNL d   1      54.388  34.000  56.078  0.00  0.00    -0.049 Br
ATOM     16  C   UNL d   1      55.311  33.890  54.992  0.00  0.00     0.009 A 
ATOM     17  C   UNL d   1      55.502  33.578  54.252  0.00  0.00     0.025 A 
ATOM     18  C   UNL d   1      54.977  33.081  53.868  0.00  0.00     0.106 A 
BRANCH  18  19
ATOM     19  O   UNL d   1      55.170  32.770  53.126  0.00  0.00    -0.327 OA
ATOM     20  C   UNL d   1      55.896  32.944  52.776  0.00  0.00     0.181 C 
ENDBRANCH  18  19
ENDBRANCH   1  12
TORSDOF 4
ENDMDL
MODEL 5
REMARK VINA RESULT:      -6.4      1.090      2.220
REMARK  4 active torsions:
REMARK  status: ('A' for Active; 'I' for Inactive)
REMARK    1  A    between atoms: N_2  and  S_1 
REMARK    2  A    between atoms: C_3  and  S_1 
REMARK    3  A    between atoms: C_14  and  C_4 
REMARK    4  A    between atoms: O_17  and  C_11 
ROOT
ATOM      1  S   UNL d   1      52.604  33.508  53.316  0.00  0.00     0.274 S 
ATOM      2  O   UNL d   1      52.611  32.959  53.924  0.00  0.00    -0.199 OA
ATOM      3  O   UNL d   1      53.220  33.529  52.767  0.00  0.00    -0.199 OA
ENDROOT
BRANCH   1   4
ATOM      4  N   UNL d   1      51.981  34.039  53.253  0.00  0.00    -0.213 N 
ATOM      5  C   UNL d   1      51.985  34.731  53.688  0.00  0.00     0.157 A 
ATOM      6  N   UNL d   1      51.338  35.280  53.623  0.00  0.00    -0.226 NA
ATOM      7  C   UNL d   1      50.719  34.407  52.687  0.00  0.00     0.101 A 
ATOM      8  C   UNL d   1      51.344  33.871  52.747  0.00  0.00     0.112 A 
ATOM      9  C   UNL d   1      50.086  34.225  52.174  0.00  0.00     0.022 C 
BRANCH   5  10
ATOM     10  C   UNL d   1      52.619  34.900  54.194  0.00  0.00     0.038 C 
ATOM     11  C   UNL d   1      52.622  35.618  54.592  0.00  0.00     0.003 C 
ENDBRANCH   5  10
ENDBRANCH   1   4
BRANCH   1  12
ATOM     12  C   UNL d   1      53.223  32.977  53.382  0.00  0.00     0.127 A 
ATOM     13  C   UNL d   1      53.989  33.244  53.477  0.00  0.00     0.022 A 
ATOM     14  C   UNL d   1      54.613  32.720  53.543  0.00  0.00     0.035 A 
ATOM     15 BR   UNL d   1      55.378  33.005  53.639  0.00  0.00    -0.049 Br
ATOM     16  C   UNL d   1      54.469  31.908  53.515  0.00  0.00     0.009 A 
ATOM     17  C   UNL d   1      53.697  31.634  53.419  0.00  0.00     0.025 A 
ATOM     18  C   UNL d   1      53.078  32.165  53.353  0.00  0.00     0.106 A 
BRANCH  18  19
ATOM     19  O   UNL d   1      52.304  31.888  53.256  0.00  0.00    -0.327 OA
ATOM     20  C   UNL d   1      52.156  31.081  53.173  0.00  0.00     0.181 C 
ENDBRANCH  18  19
ENDBRANCH   1  12
TORSDOF 4
ENDMDL
MODEL 6
REMARK VINA RESULT:      -6.2      1.447      3.154
REMARK  4 active torsions:
REMARK  status: ('A' for Active; 'I' for Inactive)
REMARK    1  A    between atoms: N_2  and  S_1 
REMARK    2  A    between atoms: C_3  and  S_1 
REMARK    3  A    between atoms: C_14  and  C_4 
REMARK    4  A    between atoms: O_17  and  C_11 
ROOT
ATOM      1  S   UNL d   1      52.722  33.290  53.220  0.00  0.00     0.274 S 
ATOM      2  O   UNL d   1      52.267  33.462  53.879  0.00  0.00    -0.199 OA
ATOM      3  O   UNL d   1      52.519  33.597  52.482  0.00  0.00    -0.199 OA
ENDROOT
BRANCH   1   4
ATOM      4  N   UNL d   1      53.382  32.808  53.297  0.00  0.00    -0.213 N 
ATOM      5  C   UNL d   1      53.303  31.995  53.274  0.00  0.00     0.157 A 
ATOM      6  N   UNL d   1      53.989  31.497  53.354  0.00  0.00    -0.226 NA
ATOM      7  C   UNL d   1      54.796  32.661  53.476  0.00  0.00     0.101 A 
ATOM      8  C   UNL d   1      54.133  33.149  53.399  0.00  0.00     0.112 A 
ATOM      9  C   UNL d   1      55.543  33.018  53.577  0.00  0.00     0.022 C 
BRANCH   5  10
ATOM     10  C   UNL d   1      52.556  31.652  53.173  0.00  0.00     0.038 C 
ATOM     11  C   UNL d   1      52.503  30.835  53.121  0.00  0.00     0.003 C 
ENDBRANCH   5  10
ENDBRANCH   1   4
BRANCH   1  12
ATOM     12  C   UNL d   1      52.063  33.769  53.149  0.00  0.00     0.127 A 
ATOM     13  C   UNL d   1      51.501  33.618  52.576  0.00  0.00     0.022 A 
ATOM     14  C   UNL d   1      50.840  34.092  52.498  0.00  0.00     0.035 A 
ATOM     15 BR   UNL d   1      50.284  33.926  51.916  0.00  0.00    -0.049 Br
ATOM     16  C   UNL d   1      50.736  34.735  53.005  0.00  0.00     0.009 A 
ATOM     17  C   UNL d   1      51.301  34.891  53.585  0.00  0.00     0.025 A 
ATOM     18  C   UNL d   1      51.960  34.412  53.657  0.00  0.00     0.106 A 
BRANCH  18  19
ATOM     19  O   UNL d   1      52.526  34.571  54.240  0.00  0.00    -0.327 OA
ATOM     20  C   UNL d   1      52.528  35.295  54.634  0.00  0.00     0.181 C 
ENDBRANCH  18  19
ENDBRANCH   1  12
TORSDOF 4
ENDMDL
MODEL 7
REMARK VINA RESULT:      -5.8      1.681      2.784
REMARK  4 active torsions:
REMARK  status: ('A' for Active; 'I' for Inactive)
REMARK    1  A    between atoms: N_2  and  S_1 
REMARK    2  A    between atoms: C_3  and  S_1 
REMARK    3  A    between atoms: C_14  and  C_4 
REMARK    4  A    between atoms: O_17  and  C_11 
ROOT
ATOM      1  S   UNL d   1      52.552  33.842  53.894  0.00  0.00     0.274 S 
ATOM      2  O   UNL d   1      52.697  33.784  53.090  0.00  0.00    -0.199 OA
ATOM      3  O   UNL d   1      51.784  33.759  54.185  0.00  0.00    -0.199 OA
ENDROOT
BRANCH   1   4
ATOM      4  N   UNL d   1      53.174  33.984  54.411  0.00  0.00    -0.213 N 
ATOM      5  C   UNL d   1      53.405  34.750  54.576  0.00  0.00     0.157 A 
ATOM      6  N   UNL d   1      54.049  34.896  55.112  0.00  0.00    -0.226 NA
ATOM      7  C   UNL d   1      54.195  33.492  55.286  0.00  0.00     0.101 A 
ATOM      8  C   UNL d   1      53.569  33.346  54.767  0.00  0.00     0.112 A 
ATOM      9  C   UNL d   1      54.582  32.841  55.636  0.00  0.00     0.022 C 
BRANCH   5  10
ATOM     10  C   UNL d   1      53.012  35.388  54.223  0.00  0.00     0.038 C 
ATOM     11  C   UNL d   1      53.226  36.150  54.441  0.00  0.00     0.003 C 
ENDBRANCH   5  10
ENDBRANCH   1   4
BRANCH   1  12
ATOM     12  C   UNL d   1      51.935  33.701  53.375  0.00  0.00     0.127 A 
ATOM     13  C   UNL d   1      51.304  34.218  53.332  0.00  0.00     0.022 A 
ATOM     14  C   UNL d   1      50.685  34.084  52.816  0.00  0.00     0.035 A 
ATOM     15 BR   UNL d   1      50.057  34.614  52.784  0.00  0.00    -0.049 Br
ATOM     16  C   UNL d   1      50.694  33.417  52.330  0.00  0.00     0.009 A 
ATOM     17  C   UNL d   1      51.329  32.893  52.370  0.00  0.00     0.025 A 
ATOM     18  C   UNL d   1      51.946  33.033  52.889  0.00  0.00     0.106 A 
BRANCH  18  19
ATOM     19  O   UNL d   1      52.583  32.506  52.929  0.00  0.00    -0.327 OA
ATOM     20  C   UNL d   1      52.533  31.764  52.573  0.00  0.00     0.181 C 
ENDBRANCH  18  19
ENDBRANCH   1  12
TORSDOF 4
ENDMDL
MODEL 8
REMARK VINA RESULT:      -5.8      1.519      2.635
REMARK  4 active torsions:
REMARK  status: ('A' for Active; 'I' for Inactive)
REMARK    1  A    between atoms: N_2  and  S_1 
REMARK    2  A    between atoms: C_3  and  S_1 
REMARK    3  A    between atoms: C_14  and  C_4 
REMARK    4  A    between atoms: O_17  and  C_11 
ROOT
ATOM      1  S   UNL d   1      53.090  33.213  53.639  0.00  0.00     0.274 S 
ATOM      2  O   UNL d   1      53.260  33.028  54.419  0.00  0.00    -0.199 OA
ATOM      3  O   UNL d   1      53.661  33.567  53.161  0.00  0.00    -0.199 OA
ENDROOT
BRANCH   1   4
ATOM      4  N   UNL d   1      52.346  33.044  53.335  0.00  0.00    -0.213 N 
ATOM      5  C   UNL d   1      52.152  32.278  53.124  0.00  0.00     0.157 A 
ATOM      6  N   UNL d   1      51.381  32.105  52.809  0.00  0.00    -0.226 NA
ATOM      7  C   UNL d   1      51.043  33.480  52.933  0.00  0.00     0.101 A 
ATOM      8  C   UNL d   1      51.790  33.654  53.240  0.00  0.00     0.112 A 
ATOM      9  C   UNL d   1      50.494  34.103  52.844  0.00  0.00     0.022 C 
BRANCH   5  10
ATOM     10  C   UNL d   1      52.705  31.669  53.218  0.00  0.00     0.038 C 
ATOM     11  C   UNL d   1      52.507  30.917  52.956  0.00  0.00     0.003 C 
ENDBRANCH   5  10
ENDBRANCH   1   4
BRANCH   1  12
ATOM     12  C   UNL d   1      53.829  33.379  53.947  0.00  0.00     0.127 A 
ATOM     13  C   UNL d   1      54.505  33.172  53.537  0.00  0.00     0.022 A 
ATOM     14  C   UNL d   1      55.246  33.335  53.838  0.00  0.00     0.035 A 
ATOM     15 BR   UNL d   1      55.917  33.120  53.413  0.00  0.00    -0.049 Br
ATOM     16  C   UNL d   1      55.318  33.714  54.568  0.00  0.00     0.009 A 
ATOM     17  C   UNL d   1      54.638  33.925  54.985  0.00  0.00     0.025 A 
ATOM     18  C   UNL d   1      53.899  33.759  54.677  0.00  0.00     0.106 A 
BRANCH  18  19
ATOM     19  O   UNL d   1      53.218  33.971  55.098  0.00  0.00    -0.327 OA
ATOM     20  C   UNL d   1      53.261  34.518  55.714  0.00  0.00     0.181 C 
ENDBRANCH  18  19
ENDBRANCH   1  12
TORSDOF 4
ENDMDL
