MODEL 1
REMARK VINA RESULT:      23.2      0.000      0.000
REMARK  2 active torsions:
REMARK  status: ('A' for Active; 'I' for Inactive)
REMARK    1  A    between atoms: N_4  and  C_1 
REMARK    2  A    between atoms: C_11  and  C_3 
ROOT
ATOM      1  C   UNL d   1      46.033 -17.430  44.085  0.00  0.00     0.148 A 
ATOM      2  N   UNL d   1      46.106 -18.026  44.623  0.00  0.00    -0.228 NA
ATOM      3  C   UNL d   1      46.322 -18.373  43.042  0.00  0.00     0.004 A 
ATOM      4  C   UNL d   1      46.142 -17.606  43.283  0.00  0.00     0.037 A 
ATOM      5  C   UNL d   1      46.392 -18.967  43.616  0.00  0.00     0.018 A 
ATOM      6  C   UNL d   1      46.282 -18.790  44.418  0.00  0.00     0.083 A 
ATOM      7  C   UNL d   1      46.571 -19.730  43.374  0.00  0.00     0.002 A 
ATOM      8  C   UNL d   1      46.355 -19.383  44.955  0.00  0.00     0.019 A 
ATOM      9  C   UNL d   1      46.641 -20.328  43.949  0.00  0.00     0.000 A 
ATOM     10  C   UNL d   1      46.532 -20.151  44.751  0.00  0.00     0.002 A 
ENDROOT
BRANCH   1  11
ATOM     11  N   UNL d   1      45.858 -16.673  44.292  0.00  0.00    -0.286 N 
ATOM     12  C   UNL d   1      46.348 -16.021  44.127  0.00  0.00     0.101 A 
ATOM     13  C   UNL d   1      46.174 -15.260  44.333  0.00  0.00     0.100 A 
ATOM     14  N   UNL d   1      45.464 -15.113  44.736  0.00  0.00    -0.299 N 
ATOM     15  C   UNL d   1      44.970 -15.736  44.908  0.00  0.00     0.100 A 
ATOM     16  C   UNL d   1      45.281 -14.347  44.948  0.00  0.00     0.100 C 
ATOM     17  C   UNL d   1      45.148 -16.526  44.695  0.00  0.00     0.101 A 
ENDBRANCH   1  11
BRANCH   3  18
ATOM     18  C   UNL d   1      46.429 -18.544  42.263  0.00  0.00     0.000 A 
ATOM     19  C   UNL d   1      46.429 -19.326  41.999  0.00  0.00     0.000 A 
ATOM     20  C   UNL d   1      46.534 -19.494  41.233  0.00  0.00     0.000 A 
ATOM     21  C   UNL d   1      46.647 -18.894  40.669  0.00  0.00     0.000 A 
ATOM     22  C   UNL d   1      46.646 -18.105  40.943  0.00  0.00     0.000 A 
ATOM     23  C   UNL d   1      46.541 -17.937  41.710  0.00  0.00     0.000 A 
ENDBRANCH   3  18
TORSDOF 2
ENDMDL
MODEL 2
REMARK VINA RESULT:      25.2      0.693      2.313
REMARK  2 active torsions:
REMARK  status: ('A' for Active; 'I' for Inactive)
REMARK    1  A    between atoms: N_4  and  C_1 
REMARK    2  A    between atoms: C_11  and  C_3 
ROOT
ATOM      1  C   UNL d   1      46.007 -16.858  43.252  0.00  0.00     0.148 A 
ATOM      2  N   UNL d   1      46.150 -16.915  42.460  0.00  0.00    -0.228 NA
ATOM      3  C   UNL d   1      46.186 -18.280  43.356  0.00  0.00     0.004 A 
ATOM      4  C   UNL d   1      46.025 -17.551  43.706  0.00  0.00     0.037 A 
ATOM      5  C   UNL d   1      46.329 -18.308  42.540  0.00  0.00     0.018 A 
ATOM      6  C   UNL d   1      46.311 -17.615  42.086  0.00  0.00     0.083 A 
ATOM      7  C   UNL d   1      46.489 -19.034  42.193  0.00  0.00     0.002 A 
ATOM      8  C   UNL d   1      46.453 -17.669  41.297  0.00  0.00     0.019 A 
ATOM      9  C   UNL d   1      46.633 -19.065  41.374  0.00  0.00     0.000 A 
ATOM     10  C   UNL d   1      46.614 -18.372  40.920  0.00  0.00     0.002 A 
ENDROOT
BRANCH   1  11
ATOM     11  N   UNL d   1      45.848 -16.162  43.620  0.00  0.00    -0.286 N 
ATOM     12  C   UNL d   1      46.184 -15.433  43.401  0.00  0.00     0.101 A 
ATOM     13  C   UNL d   1      46.025 -14.733  43.769  0.00  0.00     0.100 A 
ATOM     14  N   UNL d   1      45.495 -14.733  44.406  0.00  0.00    -0.299 N 
ATOM     15  C   UNL d   1      45.155 -15.435  44.638  0.00  0.00     0.100 A 
ATOM     16  C   UNL d   1      45.329 -14.029  44.784  0.00  0.00     0.100 C 
ATOM     17  C   UNL d   1      45.318 -16.163  44.257  0.00  0.00     0.101 A 
ENDBRANCH   1  11
BRANCH   3  18
ATOM     18  C   UNL d   1      46.204 -18.953  43.797  0.00  0.00     0.000 A 
ATOM     19  C   UNL d   1      45.821 -19.636  43.539  0.00  0.00     0.000 A 
ATOM     20  C   UNL d   1      45.838 -20.298  43.974  0.00  0.00     0.000 A 
ATOM     21  C   UNL d   1      46.240 -20.329  44.700  0.00  0.00     0.000 A 
ATOM     22  C   UNL d   1      46.626 -19.633  44.955  0.00  0.00     0.000 A 
ATOM     23  C   UNL d   1      46.608 -18.971  44.520  0.00  0.00     0.000 A 
ENDBRANCH   3  18
TORSDOF 2
ENDMDL
