MODEL 1
REMARK VINA RESULT:      -4.9      0.000      0.000
REMARK  5 active torsions:
REMARK  status: ('A' for Active; 'I' for Inactive)
REMARK    1  A    between atoms: C_3  and  C_1 
REMARK       I    between atoms: N_4  and  C_1 
REMARK    2  A    between atoms: C_9  and  N_4 
REMARK    3  A    between atoms: C_5  and  O_6 
REMARK    4  A    between atoms: O_6  and  C_10 
REMARK    5  A    between atoms: C_10  and  C_9 
ROOT
ATOM      1  C   UNL d   1      56.637  -0.705  32.253  0.00  0.00     0.279 C 
ATOM      2  O   UNL d   1      56.616  -1.530  32.227  0.00  0.00    -0.265 OA
ATOM      3  N   UNL d   1      57.023  -0.284  31.657  0.00  0.00    -0.204 NA
ENDROOT
BRANCH   3   4
ATOM      4  C   UNL d   1      57.386  -0.687  31.035  0.00  0.00     0.129 C 
BRANCH   4   5
ATOM      5  C   UNL d   1      57.918  -0.293  30.542  0.00  0.00     0.143 C 
BRANCH   5   6
ATOM      6  O   UNL d   1      58.008  -0.531  29.757  0.00  0.00    -0.303 OA
BRANCH   6   7
ATOM      7  C   UNL d   1      58.683  -0.303  29.318  0.00  0.00     0.100 A 
ATOM      8  C   UNL d   1      58.711   0.448  28.977  0.00  0.00     0.025 A 
ATOM      9  C   UNL d   1      59.366   0.682  28.547  0.00  0.00     0.002 A 
ATOM     10  C   UNL d   1      59.997   0.163  28.455  0.00  0.00     0.000 A 
ATOM     11  C   UNL d   1      59.969  -0.588  28.796  0.00  0.00     0.002 A 
ATOM     12  C   UNL d   1      59.309  -0.820  29.228  0.00  0.00     0.025 A 
ENDBRANCH   6   7
ENDBRANCH   5   6
ENDBRANCH   4   5
ENDBRANCH   3   4
BRANCH   1  13
ATOM     13  C   UNL d   1      56.276  -0.303  32.871  0.00  0.00     0.058 A 
ATOM     14  C   UNL d   1      55.482  -0.425  33.024  0.00  0.00     0.005 A 
ATOM     15  C   UNL d   1      55.117  -0.022  33.645  0.00  0.00     0.000 A 
ATOM     16  C   UNL d   1      55.554   0.503  34.108  0.00  0.00     0.000 A 
ATOM     17  C   UNL d   1      56.355   0.624  33.951  0.00  0.00     0.000 A 
ATOM     18  C   UNL d   1      56.712   0.222  33.335  0.00  0.00     0.005 A 
ENDBRANCH   1  13
TORSDOF 5
ENDMDL
MODEL 2
REMARK VINA RESULT:      -4.7      1.011      5.052
REMARK  5 active torsions:
REMARK  status: ('A' for Active; 'I' for Inactive)
REMARK    1  A    between atoms: C_3  and  C_1 
REMARK       I    between atoms: N_4  and  C_1 
REMARK    2  A    between atoms: C_9  and  N_4 
REMARK    3  A    between atoms: C_5  and  O_6 
REMARK    4  A    between atoms: O_6  and  C_10 
REMARK    5  A    between atoms: C_10  and  C_9 
ROOT
ATOM      1  C   UNL d   1      58.552  -0.536  29.408  0.00  0.00     0.279 C 
ATOM      2  O   UNL d   1      58.170   0.005  28.916  0.00  0.00    -0.265 OA
ATOM      3  N   UNL d   1      58.357  -0.572  30.209  0.00  0.00    -0.204 NA
ENDROOT
BRANCH   3   4
ATOM      4  C   UNL d   1      57.781  -0.068  30.519  0.00  0.00     0.129 C 
BRANCH   4   5
ATOM      5  C   UNL d   1      57.458  -0.217  31.263  0.00  0.00     0.143 C 
BRANCH   5   6
ATOM      6  O   UNL d   1      56.716   0.087  31.460  0.00  0.00    -0.303 OA
BRANCH   6   7
ATOM      7  C   UNL d   1      56.334  -0.150  32.166  0.00  0.00     0.100 A 
ATOM      8  C   UNL d   1      56.034   0.424  32.677  0.00  0.00     0.025 A 
ATOM      9  C   UNL d   1      55.658   0.204  33.370  0.00  0.00     0.002 A 
ATOM     10  C   UNL d   1      55.581  -0.594  33.553  0.00  0.00     0.000 A 
ATOM     11  C   UNL d   1      55.881  -1.168  33.041  0.00  0.00     0.002 A 
ATOM     12  C   UNL d   1      56.258  -0.943  32.347  0.00  0.00     0.025 A 
ENDBRANCH   6   7
ENDBRANCH   5   6
ENDBRANCH   4   5
ENDBRANCH   3   4
BRANCH   1  13
ATOM     13  C   UNL d   1      59.125  -1.038  29.102  0.00  0.00     0.058 A 
ATOM     14  C   UNL d   1      59.886  -0.762  28.990  0.00  0.00     0.005 A 
ATOM     15  C   UNL d   1      60.464  -1.266  28.683  0.00  0.00     0.000 A 
ATOM     16  C   UNL d   1      60.271  -2.044  28.490  0.00  0.00     0.000 A 
ATOM     17  C   UNL d   1      59.501  -2.319  28.604  0.00  0.00     0.000 A 
ATOM     18  C   UNL d   1      58.932  -1.817  28.909  0.00  0.00     0.005 A 
ENDBRANCH   1  13
TORSDOF 5
ENDMDL
MODEL 3
REMARK VINA RESULT:      -2.4      9.365     10.258
REMARK  5 active torsions:
REMARK  status: ('A' for Active; 'I' for Inactive)
REMARK    1  A    between atoms: C_3  and  C_1 
REMARK       I    between atoms: N_4  and  C_1 
REMARK    2  A    between atoms: C_9  and  N_4 
REMARK    3  A    between atoms: C_5  and  O_6 
REMARK    4  A    between atoms: O_6  and  C_10 
REMARK    5  A    between atoms: C_10  and  C_9 
ROOT
ATOM      1  C   UNL d   1      58.914  -9.811  32.380  0.00  0.00     0.279 C 
ATOM      2  O   UNL d   1      59.714  -9.816  32.178  0.00  0.00    -0.265 OA
ATOM      3  N   UNL d   1      58.689  -9.806  33.174  0.00  0.00    -0.204 NA
ENDROOT
BRANCH   3   4
ATOM      4  C   UNL d   1      59.263  -9.805  33.767  0.00  0.00     0.129 C 
BRANCH   4   5
ATOM      5  C   UNL d   1      59.103  -9.457  34.497  0.00  0.00     0.143 C 
BRANCH   5   6
ATOM      6  O   UNL d   1      59.694  -9.411  35.072  0.00  0.00    -0.303 OA
BRANCH   6   7
ATOM      7  C   UNL d   1      59.836  -8.694  35.478  0.00  0.00     0.100 A 
ATOM      8  C   UNL d   1      59.207  -8.299  35.839  0.00  0.00     0.025 A 
ATOM      9  C   UNL d   1      59.335  -7.598  36.239  0.00  0.00     0.002 A 
ATOM     10  C   UNL d   1      60.095  -7.287  36.280  0.00  0.00     0.000 A 
ATOM     11  C   UNL d   1      60.724  -7.681  35.919  0.00  0.00     0.002 A 
ATOM     12  C   UNL d   1      60.592  -8.386  35.518  0.00  0.00     0.025 A 
ENDBRANCH   6   7
ENDBRANCH   5   6
ENDBRANCH   4   5
ENDBRANCH   3   4
BRANCH   1  13
ATOM     13  C   UNL d   1      58.341  -9.812  31.791  0.00  0.00     0.058 A 
ATOM     14  C   UNL d   1      57.550  -9.809  31.997  0.00  0.00     0.005 A 
ATOM     15  C   UNL d   1      56.972  -9.810  31.407  0.00  0.00     0.000 A 
ATOM     16  C   UNL d   1      57.195  -9.814  30.613  0.00  0.00     0.000 A 
ATOM     17  C   UNL d   1      57.995  -9.818  30.408  0.00  0.00     0.000 A 
ATOM     18  C   UNL d   1      58.563  -9.817  30.997  0.00  0.00     0.005 A 
ENDBRANCH   1  13
TORSDOF 5
ENDMDL
MODEL 4
REMARK VINA RESULT:      -2.3      9.669     10.390
REMARK  5 active torsions:
REMARK  status: ('A' for Active; 'I' for Inactive)
REMARK    1  A    between atoms: C_3  and  C_1 
REMARK       I    between atoms: N_4  and  C_1 
REMARK    2  A    between atoms: C_9  and  N_4 
REMARK    3  A    between atoms: C_5  and  O_6 
REMARK    4  A    between atoms: O_6  and  C_10 
REMARK    5  A    between atoms: C_10  and  C_9 
ROOT
ATOM      1  C   UNL d   1      57.959  -9.779  31.928  0.00  0.00     0.279 C 
ATOM      2  O   UNL d   1      57.201  -9.728  32.248  0.00  0.00    -0.265 OA
ATOM      3  N   UNL d   1      58.616  -9.816  32.426  0.00  0.00    -0.204 NA
ENDROOT
BRANCH   3   4
ATOM      4  C   UNL d   1      58.515  -9.804  33.245  0.00  0.00     0.129 C 
BRANCH   4   5
ATOM      5  C   UNL d   1      59.158  -9.654  33.740  0.00  0.00     0.143 C 
BRANCH   5   6
ATOM      6  O   UNL d   1      59.126  -9.035  34.285  0.00  0.00    -0.303 OA
BRANCH   6   7
ATOM      7  C   UNL d   1      59.741  -8.927  34.841  0.00  0.00     0.100 A 
ATOM      8  C   UNL d   1      59.584  -9.023  35.645  0.00  0.00     0.025 A 
ATOM      9  C   UNL d   1      60.178  -8.920  36.198  0.00  0.00     0.002 A 
ATOM     10  C   UNL d   1      60.934  -8.718  35.947  0.00  0.00     0.000 A 
ATOM     11  C   UNL d   1      61.092  -8.621  35.143  0.00  0.00     0.002 A 
ATOM     12  C   UNL d   1      60.493  -8.726  34.590  0.00  0.00     0.025 A 
ENDBRANCH   6   7
ENDBRANCH   5   6
ENDBRANCH   4   5
ENDBRANCH   3   4
BRANCH   1  13
ATOM     13  C   UNL d   1      58.062  -9.791  31.113  0.00  0.00     0.058 A 
ATOM     14  C   UNL d   1      57.408  -9.792  30.623  0.00  0.00     0.005 A 
ATOM     15  C   UNL d   1      57.509  -9.804  29.804  0.00  0.00     0.000 A 
ATOM     16  C   UNL d   1      58.269  -9.817  29.483  0.00  0.00     0.000 A 
ATOM     17  C   UNL d   1      58.928  -9.817  29.981  0.00  0.00     0.000 A 
ATOM     18  C   UNL d   1      58.822  -9.804  30.792  0.00  0.00     0.005 A 
ENDBRANCH   1  13
TORSDOF 5
ENDMDL
MODEL 5
REMARK VINA RESULT:      -2.0      1.171      1.548
REMARK  5 active torsions:
REMARK  status: ('A' for Active; 'I' for Inactive)
REMARK    1  A    between atoms: C_3  and  C_1 
REMARK       I    between atoms: N_4  and  C_1 
REMARK    2  A    between atoms: C_9  and  N_4 
REMARK    3  A    between atoms: C_5  and  O_6 
REMARK    4  A    between atoms: O_6  and  C_10 
REMARK    5  A    between atoms: C_10  and  C_9 
ROOT
ATOM      1  C   UNL d   1      56.538   0.091  33.287  0.00  0.00     0.279 C 
ATOM      2  O   UNL d   1      56.782  -0.697  33.267  0.00  0.00    -0.265 OA
ATOM      3  N   UNL d   1      57.032   0.682  32.990  0.00  0.00    -0.204 NA
ENDROOT
BRANCH   3   4
ATOM      4  C   UNL d   1      57.769   0.486  32.675  0.00  0.00     0.129 C 
BRANCH   4   5
ATOM      5  C   UNL d   1      57.950   0.681  31.894  0.00  0.00     0.143 C 
BRANCH   5   6
ATOM      6  O   UNL d   1      58.699   0.519  31.589  0.00  0.00    -0.303 OA
BRANCH   6   7
ATOM      7  C   UNL d   1      58.822   0.475  30.763  0.00  0.00     0.100 A 
ATOM      8  C   UNL d   1      59.587   0.538  30.462  0.00  0.00     0.025 A 
ATOM      9  C   UNL d   1      59.719   0.497  29.656  0.00  0.00     0.002 A 
ATOM     10  C   UNL d   1      59.082   0.391  29.146  0.00  0.00     0.000 A 
ATOM     11  C   UNL d   1      58.317   0.327  29.447  0.00  0.00     0.002 A 
ATOM     12  C   UNL d   1      58.188   0.369  30.258  0.00  0.00     0.025 A 
ENDBRANCH   6   7
ENDBRANCH   5   6
ENDBRANCH   4   5
ENDBRANCH   3   4
BRANCH   1  13
ATOM     13  C   UNL d   1      55.805   0.288  33.601  0.00  0.00     0.058 A 
ATOM     14  C   UNL d   1      55.158   0.352  33.106  0.00  0.00     0.005 A 
ATOM     15  C   UNL d   1      54.420   0.550  33.419  0.00  0.00     0.000 A 
ATOM     16  C   UNL d   1      54.339   0.681  34.230  0.00  0.00     0.000 A 
ATOM     17  C   UNL d   1      54.995   0.615  34.727  0.00  0.00     0.000 A 
ATOM     18  C   UNL d   1      55.724   0.419  34.411  0.00  0.00     0.005 A 
ENDBRANCH   1  13
TORSDOF 5
ENDMDL
