MODEL 1
REMARK VINA RESULT:      -2.1      0.000      0.000
REMARK  5 active torsions:
REMARK  status: ('A' for Active; 'I' for Inactive)
REMARK    1  A    between atoms: C_7  and  N_1 
REMARK    2  A    between atoms: C_15  and  C_5 
REMARK    3  A    between atoms: C_14  and  C_6 
REMARK    4  A    between atoms: C_8  and  C_7 
REMARK       I    between atoms: N_11  and  C_8 
REMARK    5  A    between atoms: C_13  and  N_11 
ROOT
ATOM      1  N   UNL d   1      33.180  19.918 -22.928  0.00  0.00    -0.235 N 
ATOM      2  C   UNL d   1      33.183  20.597 -23.406  0.00  0.00     0.273 A 
ATOM      3  C   UNL d   1      33.122  19.996 -22.102  0.00  0.00     0.273 A 
ATOM      4  S   UNL d   1      33.069  21.420 -22.246  0.00  0.00    -0.077 SA
ATOM      5  C   UNL d   1      33.066  20.750 -21.769  0.00  0.00     0.086 A 
ATOM      6  C   UNL d   1      33.127  21.337 -23.061  0.00  0.00     0.086 A 
ATOM      7  O   UNL d   1      33.119  19.322 -21.627  0.00  0.00    -0.266 OA
ATOM      8  O   UNL d   1      33.241  20.523 -24.230  0.00  0.00    -0.266 OA
ENDROOT
BRANCH   1   9
ATOM      9  C   UNL d   1      33.236  19.170 -23.277  0.00  0.00     0.148 C 
BRANCH   9  10
ATOM     10  C   UNL d   1      32.550  18.744 -23.446  0.00  0.00     0.297 C 
ATOM     11  N   UNL d   1      32.595  18.053 -23.893  0.00  0.00    -0.207 NA
ATOM     12  O   UNL d   1      31.822  19.017 -23.163  0.00  0.00    -0.264 OA
BRANCH  11  13
ATOM     13  C   UNL d   1      31.909  17.627 -24.062  0.00  0.00     0.085 A 
ATOM     14  C   UNL d   1      31.426  17.858 -24.681  0.00  0.00     0.019 A 
ATOM     15  C   UNL d   1      30.744  17.430 -24.845  0.00  0.00     0.002 A 
ATOM     16  C   UNL d   1      30.539  16.771 -24.393  0.00  0.00     0.000 A 
ATOM     17  C   UNL d   1      31.031  16.540 -23.766  0.00  0.00     0.002 A 
ATOM     18  C   UNL d   1      31.710  16.969 -23.606  0.00  0.00     0.019 A 
ENDBRANCH  11  13
ENDBRANCH   9  10
ENDBRANCH   1   9
BRANCH   6  19
ATOM     19  C   UNL d   1      33.129  22.018 -23.541  0.00  0.00     0.011 C 
ATOM     20  C   UNL d   1      33.205  22.766 -23.199  0.00  0.00     0.001 C 
ENDBRANCH   6  19
BRANCH   5  21
ATOM     21  C   UNL d   1      33.008  20.826 -20.949  0.00  0.00     0.011 C 
ATOM     22  C   UNL d   1      32.425  21.312 -20.621  0.00  0.00     0.001 C 
ENDBRANCH   5  21
TORSDOF 5
ENDMDL
MODEL 2
REMARK VINA RESULT:      -1.9      2.469      4.228
REMARK  5 active torsions:
REMARK  status: ('A' for Active; 'I' for Inactive)
REMARK    1  A    between atoms: C_7  and  N_1 
REMARK    2  A    between atoms: C_15  and  C_5 
REMARK    3  A    between atoms: C_14  and  C_6 
REMARK    4  A    between atoms: C_8  and  C_7 
REMARK       I    between atoms: N_11  and  C_8 
REMARK    5  A    between atoms: C_13  and  N_11 
ROOT
ATOM      1  N   UNL d   1      31.468  16.888 -24.313  0.00  0.00    -0.235 N 
ATOM      2  C   UNL d   1      31.888  16.204 -24.099  0.00  0.00     0.273 A 
ATOM      3  C   UNL d   1      31.795  17.637 -24.159  0.00  0.00     0.273 A 
ATOM      4  S   UNL d   1      32.946  17.009 -23.583  0.00  0.00    -0.077 SA
ATOM      5  C   UNL d   1      32.534  17.689 -23.794  0.00  0.00     0.086 A 
ATOM      6  C   UNL d   1      32.619  16.272 -23.738  0.00  0.00     0.086 A 
ATOM      7  O   UNL d   1      31.379  18.316 -24.372  0.00  0.00    -0.266 OA
ATOM      8  O   UNL d   1      31.565  15.455 -24.251  0.00  0.00    -0.266 OA
ENDROOT
BRANCH   1   9
ATOM      9  C   UNL d   1      30.729  16.818 -24.678  0.00  0.00     0.148 C 
BRANCH   9  10
ATOM     10  C   UNL d   1      30.059  16.669 -24.221  0.00  0.00     0.297 C 
ATOM     11  N   UNL d   1      29.336  16.519 -24.588  0.00  0.00    -0.207 NA
ATOM     12  O   UNL d   1      30.120  16.673 -23.396  0.00  0.00    -0.264 OA
BRANCH  11  13
ATOM     13  C   UNL d   1      28.666  16.370 -24.131  0.00  0.00     0.085 A 
ATOM     14  C   UNL d   1      28.340  15.620 -24.113  0.00  0.00     0.019 A 
ATOM     15  C   UNL d   1      27.673  15.477 -23.656  0.00  0.00     0.002 A 
ATOM     16  C   UNL d   1      27.326  16.081 -23.214  0.00  0.00     0.000 A 
ATOM     17  C   UNL d   1      27.659  16.841 -23.234  0.00  0.00     0.002 A 
ATOM     18  C   UNL d   1      28.324  16.979 -23.691  0.00  0.00     0.019 A 
ENDBRANCH  11  13
ENDBRANCH   9  10
ENDBRANCH   1   9
BRANCH   6  19
ATOM     19  C   UNL d   1      33.040  15.586 -23.523  0.00  0.00     0.011 C 
ATOM     20  C   UNL d   1      33.241  15.454 -22.732  0.00  0.00     0.001 C 
ENDBRANCH   6  19
BRANCH   5  21
ATOM     21  C   UNL d   1      32.857  18.434 -23.641  0.00  0.00     0.011 C 
ATOM     22  C   UNL d   1      33.115  18.622 -22.878  0.00  0.00     0.001 C 
ENDBRANCH   5  21
TORSDOF 5
ENDMDL
MODEL 3
REMARK VINA RESULT:      -0.3      1.264      2.550
REMARK  5 active torsions:
REMARK  status: ('A' for Active; 'I' for Inactive)
REMARK    1  A    between atoms: C_7  and  N_1 
REMARK    2  A    between atoms: C_15  and  C_5 
REMARK    3  A    between atoms: C_14  and  C_6 
REMARK    4  A    between atoms: C_8  and  C_7 
REMARK       I    between atoms: N_11  and  C_8 
REMARK    5  A    between atoms: C_13  and  N_11 
ROOT
ATOM      1  N   UNL d   1      32.963  21.188 -21.403  0.00  0.00    -0.235 N 
ATOM      2  C   UNL d   1      32.683  21.414 -20.654  0.00  0.00     0.273 A 
ATOM      3  C   UNL d   1      32.960  21.738 -22.026  0.00  0.00     0.273 A 
ATOM      4  S   UNL d   1      32.403  22.722 -21.148  0.00  0.00    -0.077 SA
ATOM      5  C   UNL d   1      32.679  22.503 -21.891  0.00  0.00     0.086 A 
ATOM      6  C   UNL d   1      32.408  22.175 -20.536  0.00  0.00     0.086 A 
ATOM      7  O   UNL d   1      33.237  21.514 -22.770  0.00  0.00    -0.266 OA
ATOM      8  O   UNL d   1      32.684  20.867 -20.030  0.00  0.00    -0.266 OA
ENDROOT
BRANCH   1   9
ATOM      9  C   UNL d   1      33.241  20.418 -21.522  0.00  0.00     0.148 C 
BRANCH   9  10
ATOM     10  C   UNL d   1      32.831  19.908 -22.024  0.00  0.00     0.297 C 
ATOM     11  N   UNL d   1      33.240  19.328 -22.445  0.00  0.00    -0.207 NA
ATOM     12  O   UNL d   1      32.011  19.983 -22.100  0.00  0.00    -0.264 OA
BRANCH  11  13
ATOM     13  C   UNL d   1      32.831  18.818 -22.947  0.00  0.00     0.085 A 
ATOM     14  C   UNL d   1      32.816  18.015 -22.791  0.00  0.00     0.019 A 
ATOM     15  C   UNL d   1      32.407  17.511 -23.295  0.00  0.00     0.002 A 
ATOM     16  C   UNL d   1      32.009  17.804 -23.955  0.00  0.00     0.000 A 
ATOM     17  C   UNL d   1      32.026  18.619 -24.110  0.00  0.00     0.002 A 
ATOM     18  C   UNL d   1      32.435  19.118 -23.605  0.00  0.00     0.019 A 
ENDBRANCH  11  13
ENDBRANCH   9  10
ENDBRANCH   1   9
BRANCH   6  19
ATOM     19  C   UNL d   1      32.127  22.401 -19.784  0.00  0.00     0.011 C 
ATOM     20  C   UNL d   1      32.309  23.148 -19.482  0.00  0.00     0.001 C 
ENDBRANCH   6  19
BRANCH   5  21
ATOM     21  C   UNL d   1      32.677  23.048 -22.511  0.00  0.00     0.011 C 
ATOM     22  C   UNL d   1      31.978  23.442 -22.710  0.00  0.00     0.001 C 
ENDBRANCH   5  21
TORSDOF 5
ENDMDL
