MODEL 1
REMARK VINA RESULT:      -3.2      0.000      0.000
REMARK  8 active torsions:
REMARK  status: ('A' for Active; 'I' for Inactive)
REMARK    1  A    between atoms: C_2  and  C_8 
REMARK    2  A    between atoms: O_17  and  C_2 
REMARK    3  A    between atoms: C_15  and  C_3 
REMARK    4  A    between atoms: C_20  and  C_4 
REMARK    5  A    between atoms: C_5  and  C_16 
REMARK       I    between atoms: N_9  and  C_5 
REMARK    6  A    between atoms: C_14  and  N_9 
REMARK    7  A    between atoms: C_16  and  C_15 
REMARK    8  A    between atoms: C_21  and  O_17 
ROOT
ATOM      1  C   UNL d   1      59.073   0.194  29.383  0.00  0.00     0.279 C 
ATOM      2  N   UNL d   1      58.699   0.682  29.921  0.00  0.00    -0.208 NA
ATOM      3  O   UNL d   1      59.591   0.514  28.819  0.00  0.00    -0.265 OA
ENDROOT
BRANCH   2   4
ATOM      4  C   UNL d   1      58.183   0.362  30.482  0.00  0.00     0.085 A 
ATOM      5  C   UNL d   1      58.456   0.199  31.241  0.00  0.00     0.019 A 
ATOM      6  C   UNL d   1      57.943  -0.118  31.799  0.00  0.00     0.007 A 
ATOM      7  C   UNL d   1      57.157  -0.272  31.595  0.00  0.00     0.064 A 
ATOM      8  C   UNL d   1      56.884  -0.110  30.837  0.00  0.00     0.007 A 
ATOM      9  C   UNL d   1      57.409   0.212  30.275  0.00  0.00     0.019 A 
BRANCH   7  10
ATOM     10  C   UNL d   1      56.640  -0.594  32.160  0.00  0.00     0.300 C 
ATOM     11  O   UNL d   1      56.567  -1.410  32.229  0.00  0.00    -0.259 OA
BRANCH  10  12
ATOM     12  O   UNL d   1      56.205  -0.098  32.644  0.00  0.00    -0.271 OA
BRANCH  12  13
ATOM     13  C   UNL d   1      55.630  -0.411  33.147  0.00  0.00     0.126 C 
ATOM     14  C   UNL d   1      55.245   0.079  33.690  0.00  0.00     0.029 C 
ENDBRANCH  12  13
ENDBRANCH  10  12
ENDBRANCH   7  10
ENDBRANCH   2   4
BRANCH   1  15
ATOM     15  C   UNL d   1      58.936  -0.620  29.399  0.00  0.00     0.065 C 
BRANCH  15  16
ATOM     16  C   UNL d   1      59.176  -1.094  28.767  0.00  0.00     0.030 C 
BRANCH  16  17
ATOM     17  C   UNL d   1      59.365  -1.884  28.892  0.00  0.00     0.100 A 
ATOM     18  O   UNL d   1      60.094  -2.182  29.162  0.00  0.00    -0.307 OA
ATOM     19  C   UNL d   1      60.038  -2.996  29.206  0.00  0.00     0.100 A 
ATOM     20  C   UNL d   1      59.280  -3.217  28.966  0.00  0.00     0.027 A 
ATOM     21  C   UNL d   1      58.868  -2.528  28.774  0.00  0.00     0.027 A 
BRANCH  19  22
ATOM     22  C   UNL d   1      60.638  -3.503  29.448  0.00  0.00     0.025 C 
ATOM     23  C   UNL d   1      60.890  -4.113  28.948  0.00  0.00     0.002 C 
ENDBRANCH  19  22
ENDBRANCH  16  17
ENDBRANCH  15  16
ENDBRANCH   1  15
TORSDOF 8
ENDMDL
MODEL 2
REMARK VINA RESULT:      -3.0      0.821      1.119
REMARK  8 active torsions:
REMARK  status: ('A' for Active; 'I' for Inactive)
REMARK    1  A    between atoms: C_2  and  C_8 
REMARK    2  A    between atoms: O_17  and  C_2 
REMARK    3  A    between atoms: C_15  and  C_3 
REMARK    4  A    between atoms: C_20  and  C_4 
REMARK    5  A    between atoms: C_5  and  C_16 
REMARK       I    between atoms: N_9  and  C_5 
REMARK    6  A    between atoms: C_14  and  N_9 
REMARK    7  A    between atoms: C_16  and  C_15 
REMARK    8  A    between atoms: C_21  and  O_17 
ROOT
ATOM      1  C   UNL d   1      59.930   0.099  29.123  0.00  0.00     0.279 C 
ATOM      2  N   UNL d   1      59.533   0.682  29.535  0.00  0.00    -0.208 NA
ATOM      3  O   UNL d   1      60.551   0.302  28.609  0.00  0.00    -0.265 OA
ENDROOT
BRANCH   2   4
ATOM      4  C   UNL d   1      58.915   0.480  30.047  0.00  0.00     0.085 A 
ATOM      5  C   UNL d   1      59.057   0.423  30.855  0.00  0.00     0.019 A 
ATOM      6  C   UNL d   1      58.443   0.222  31.363  0.00  0.00     0.007 A 
ATOM      7  C   UNL d   1      57.689   0.079  31.060  0.00  0.00     0.064 A 
ATOM      8  C   UNL d   1      57.546   0.135  30.252  0.00  0.00     0.007 A 
ATOM      9  C   UNL d   1      58.172   0.339  29.742  0.00  0.00     0.019 A 
BRANCH   7  10
ATOM     10  C   UNL d   1      57.069  -0.124  31.574  0.00  0.00     0.300 C 
ATOM     11  O   UNL d   1      56.647  -0.820  31.452  0.00  0.00    -0.259 OA
BRANCH  10  12
ATOM     12  O   UNL d   1      56.880   0.367  32.200  0.00  0.00    -0.271 OA
BRANCH  12  13
ATOM     13  C   UNL d   1      56.355   0.111  32.783  0.00  0.00     0.126 C 
ATOM     14  C   UNL d   1      55.780   0.628  33.078  0.00  0.00     0.029 C 
ENDBRANCH  12  13
ENDBRANCH  10  12
ENDBRANCH   7  10
ENDBRANCH   2   4
BRANCH   1  15
ATOM     15  C   UNL d   1      59.717  -0.693  29.216  0.00  0.00     0.065 C 
BRANCH  15  16
ATOM     16  C   UNL d   1      60.176  -1.290  28.879  0.00  0.00     0.030 C 
BRANCH  16  17
ATOM     17  C   UNL d   1      59.917  -2.069  28.895  0.00  0.00     0.100 A 
ATOM     18  O   UNL d   1      59.210  -2.363  28.569  0.00  0.00    -0.307 OA
ATOM     19  C   UNL d   1      59.175  -3.166  28.713  0.00  0.00     0.100 A 
ATOM     20  C   UNL d   1      59.854  -3.385  29.128  0.00  0.00     0.027 A 
ATOM     21  C   UNL d   1      60.309  -2.705  29.238  0.00  0.00     0.027 A 
BRANCH  19  22
ATOM     22  C   UNL d   1      58.565  -3.667  28.482  0.00  0.00     0.025 C 
ATOM     23  C   UNL d   1      58.691  -4.485  28.455  0.00  0.00     0.002 C 
ENDBRANCH  19  22
ENDBRANCH  16  17
ENDBRANCH  15  16
ENDBRANCH   1  15
TORSDOF 8
ENDMDL
