MODEL 1
REMARK VINA RESULT:       1.3      0.000      0.000
REMARK  5 active torsions:
REMARK  status: ('A' for Active; 'I' for Inactive)
REMARK    1  A    between atoms: N_6  and  S_1 
REMARK    2  A    between atoms: C_7  and  S_1 
REMARK    3  A    between atoms: C_9  and  C_2 
REMARK       I    between atoms: N_16  and  C_9 
REMARK    4  A    between atoms: C_26  and  N_16 
REMARK    5  A    between atoms: C_18  and  C_26 
ROOT
ATOM      1  C   UNL d   1      32.904  21.610 -22.369  0.00  0.00     0.158 A 
ATOM      2  C   UNL d   1      32.990  21.333 -21.594  0.00  0.00     0.029 A 
ATOM      3  O   UNL d   1      32.754  22.414 -22.334  0.00  0.00    -0.302 OA
ATOM      4  C   UNL d   1      32.890  21.977 -21.104  0.00  0.00     0.026 A 
ATOM      5  C   UNL d   1      32.797  22.747 -19.891  0.00  0.00     0.104 A 
ATOM      6  C   UNL d   1      32.743  22.652 -21.552  0.00  0.00     0.100 A 
ATOM      7  C   UNL d   1      32.917  22.024 -20.266  0.00  0.00     0.015 A 
ATOM      8  C   UNL d   1      32.649  23.428 -20.352  0.00  0.00     0.015 A 
ATOM      9  C   UNL d   1      32.624  23.369 -21.177  0.00  0.00     0.025 A 
ATOM     10  C   UNL d   1      33.146  20.554 -21.376  0.00  0.00     0.002 C 
ENDROOT
BRANCH   1  11
ATOM     11  C   UNL d   1      32.975  21.086 -23.001  0.00  0.00     0.302 C 
ATOM     12  N   UNL d   1      32.778  20.290 -22.898  0.00  0.00    -0.203 NA
ATOM     13  O   UNL d   1      33.240  21.340 -23.734  0.00  0.00    -0.263 OA
BRANCH  12  14
ATOM     14  C   UNL d   1      32.845  19.757 -23.526  0.00  0.00     0.129 C 
BRANCH  14  15
ATOM     15  C   UNL d   1      32.668  18.948 -23.417  0.00  0.00     0.144 A 
ATOM     16  O   UNL d   1      31.914  18.656 -23.624  0.00  0.00    -0.301 OA
ATOM     17  C   UNL d   1      31.743  17.861 -23.516  0.00  0.00     0.123 A 
ATOM     18  C   UNL d   1      30.999  17.559 -23.717  0.00  0.00     0.027 A 
ATOM     19  C   UNL d   1      32.307  17.350 -23.206  0.00  0.00     0.123 A 
ATOM     20  C   UNL d   1      30.818  16.763 -23.613  0.00  0.00     0.002 A 
ATOM     21  C   UNL d   1      31.398  16.261 -23.299  0.00  0.00     0.002 A 
ATOM     22  C   UNL d   1      32.138  16.548 -23.096  0.00  0.00     0.027 A 
ATOM     23  O   UNL d   1      33.057  17.656 -23.004  0.00  0.00    -0.301 OA
ATOM     24  C   UNL d   1      33.241  18.443 -23.106  0.00  0.00     0.149 A 
ENDBRANCH  14  15
ENDBRANCH  12  14
ENDBRANCH   1  11
BRANCH   5  25
ATOM     25  S   UNL d   1      32.824  22.793 -19.064  0.00  0.00     0.272 S 
ATOM     26  O   UNL d   1      33.241  22.076 -19.038  0.00  0.00    -0.200 OA
ATOM     27  O   UNL d   1      32.402  23.518 -19.087  0.00  0.00    -0.200 OA
BRANCH  25  28
ATOM     28  N   UNL d   1      32.853  22.838 -18.226  0.00  0.00    -0.225 N 
ATOM     29  C   UNL d   1      33.175  22.210 -17.807  0.00  0.00     0.118 A 
ATOM     30  C   UNL d   1      33.209  22.242 -16.981  0.00  0.00     0.142 A 
ATOM     31  O   UNL d   1      32.909  22.925 -16.575  0.00  0.00    -0.300 OA
ATOM     32  C   UNL d   1      32.588  23.546 -17.014  0.00  0.00     0.142 A 
ATOM     33  C   UNL d   1      32.561  23.500 -17.835  0.00  0.00     0.118 A 
ENDBRANCH  25  28
ENDBRANCH   5  25
TORSDOF 5
ENDMDL
