MODEL 1
REMARK VINA RESULT:      -3.1      0.000      0.000
REMARK  5 active torsions:
REMARK  status: ('A' for Active; 'I' for Inactive)
REMARK    1  A    between atoms: C_6  and  N_1 
REMARK    2  A    between atoms: C_8  and  C_4 
REMARK    3  A    between atoms: C_13  and  C_8 
REMARK    4  A    between atoms: O_20  and  C_11 
REMARK    5  A    between atoms: O_21  and  C_16 
ROOT
ATOM      1  N   UNL d   1      57.025   0.239  32.271  0.00  0.00    -0.231 N 
ATOM      2  C   UNL d   1      57.786   0.537  32.403  0.00  0.00     0.204 A 
ATOM      3  C   UNL d   1      56.913   0.181  31.456  0.00  0.00     0.274 A 
ATOM      4  C   UNL d   1      57.605   0.442  31.081  0.00  0.00     0.089 A 
ATOM      5  S   UNL d   1      58.138   0.659  31.671  0.00  0.00    -0.043 SA
ATOM      6  N   UNL d   1      58.123   0.682  33.143  0.00  0.00    -0.121 N 
ATOM      7  O   UNL d   1      56.228  -0.092  31.076  0.00  0.00    -0.266 OA
ENDROOT
BRANCH   4   8
ATOM      8  C   UNL d   1      57.731   0.475  30.274  0.00  0.00     0.011 C 
BRANCH   8   9
ATOM      9  C   UNL d   1      58.427   0.178  29.951  0.00  0.00     0.003 A 
ATOM     10  C   UNL d   1      58.483  -0.614  29.730  0.00  0.00     0.026 A 
ATOM     11  C   UNL d   1      59.176  -0.909  29.409  0.00  0.00     0.116 A 
ATOM     12  C   UNL d   1      59.834  -0.410  29.302  0.00  0.00     0.116 A 
ATOM     13  C   UNL d   1      59.775   0.387  29.526  0.00  0.00     0.026 A 
ATOM     14  C   UNL d   1      59.081   0.682  29.847  0.00  0.00     0.002 A 
BRANCH  11  15
ATOM     15  O   UNL d   1      59.224  -1.704  29.190  0.00  0.00    -0.326 OA
ATOM     16  C   UNL d   1      58.570  -2.074  28.835  0.00  0.00     0.181 C 
ENDBRANCH  11  15
BRANCH  12  17
ATOM     17  O   UNL d   1      60.529  -0.697  28.982  0.00  0.00    -0.326 OA
ATOM     18  C   UNL d   1      61.133  -0.178  28.763  0.00  0.00     0.181 C 
ENDBRANCH  12  17
ENDBRANCH   8   9
ENDBRANCH   4   8
BRANCH   1  19
ATOM     19  C   UNL d   1      56.470   0.036  32.846  0.00  0.00     0.183 A 
ATOM     20  N   UNL d   1      56.380  -0.696  33.201  0.00  0.00    -0.220 NA
ATOM     21  C   UNL d   1      55.761  -0.650  33.741  0.00  0.00     0.108 A 
ATOM     22  C   UNL d   1      55.465   0.123  33.719  0.00  0.00     0.059 A 
ATOM     23  S   UNL d   1      55.904   0.542  33.167  0.00  0.00    -0.048 SA
ENDBRANCH   1  19
TORSDOF 5
ENDMDL
MODEL 2
REMARK VINA RESULT:      -1.8      2.222      4.499
REMARK  5 active torsions:
REMARK  status: ('A' for Active; 'I' for Inactive)
REMARK    1  A    between atoms: C_6  and  N_1 
REMARK    2  A    between atoms: C_8  and  C_4 
REMARK    3  A    between atoms: C_13  and  C_8 
REMARK    4  A    between atoms: O_20  and  C_11 
REMARK    5  A    between atoms: O_21  and  C_16 
ROOT
ATOM      1  N   UNL d   1      59.458  -1.197  29.528  0.00  0.00    -0.231 N 
ATOM      2  C   UNL d   1      59.641  -0.422  29.755  0.00  0.00     0.204 A 
ATOM      3  C   UNL d   1      58.659  -1.326  29.692  0.00  0.00     0.274 A 
ATOM      4  C   UNL d   1      58.347  -0.631  30.019  0.00  0.00     0.089 A 
ATOM      5  S   UNL d   1      58.958  -0.079  30.055  0.00  0.00    -0.043 SA
ATOM      6  N   UNL d   1      60.384  -0.065  29.686  0.00  0.00    -0.121 N 
ATOM      7  O   UNL d   1      58.241  -2.029  29.553  0.00  0.00    -0.266 OA
ENDROOT
BRANCH   4   8
ATOM      8  C   UNL d   1      57.574  -0.520  30.261  0.00  0.00     0.011 C 
BRANCH   8   9
ATOM      9  C   UNL d   1      57.411  -0.295  31.036  0.00  0.00     0.003 A 
ATOM     10  C   UNL d   1      57.022  -0.809  31.549  0.00  0.00     0.026 A 
ATOM     11  C   UNL d   1      56.861  -0.586  32.320  0.00  0.00     0.116 A 
ATOM     12  C   UNL d   1      57.088   0.167  32.595  0.00  0.00     0.116 A 
ATOM     13  C   UNL d   1      57.480   0.682  32.075  0.00  0.00     0.026 A 
ATOM     14  C   UNL d   1      57.641   0.458  31.304  0.00  0.00     0.002 A 
BRANCH  11  15
ATOM     15  O   UNL d   1      56.471  -1.107  32.828  0.00  0.00    -0.326 OA
ATOM     16  C   UNL d   1      55.785  -1.501  32.569  0.00  0.00     0.181 C 
ENDBRANCH  11  15
BRANCH  12  17
ATOM     17  O   UNL d   1      56.931   0.397  33.363  0.00  0.00    -0.326 OA
ATOM     18  C   UNL d   1      57.538   0.677  33.847  0.00  0.00     0.181 C 
ENDBRANCH  12  17
ENDBRANCH   8   9
ENDBRANCH   4   8
BRANCH   1  19
ATOM     19  C   UNL d   1      59.974  -1.748  29.198  0.00  0.00     0.183 A 
ATOM     20  N   UNL d   1      60.008  -2.548  29.365  0.00  0.00    -0.220 NA
ATOM     21  C   UNL d   1      60.604  -2.885  28.910  0.00  0.00     0.108 A 
ATOM     22  C   UNL d   1      60.944  -2.283  28.455  0.00  0.00     0.059 A 
ATOM     23  S   UNL d   1      60.554  -1.584  28.635  0.00  0.00    -0.048 SA
ENDBRANCH   1  19
TORSDOF 5
ENDMDL
MODEL 3
REMARK VINA RESULT:      -1.4      1.714      4.619
REMARK  5 active torsions:
REMARK  status: ('A' for Active; 'I' for Inactive)
REMARK    1  A    between atoms: C_6  and  N_1 
REMARK    2  A    between atoms: C_8  and  C_4 
REMARK    3  A    between atoms: C_13  and  C_8 
REMARK    4  A    between atoms: O_20  and  C_11 
REMARK    5  A    between atoms: O_21  and  C_16 
ROOT
ATOM      1  N   UNL d   1      58.594   0.430  30.516  0.00  0.00    -0.231 N 
ATOM      2  C   UNL d   1      58.856   0.572  31.289  0.00  0.00     0.204 A 
ATOM      3  C   UNL d   1      57.769   0.454  30.521  0.00  0.00     0.274 A 
ATOM      4  C   UNL d   1      57.520   0.610  31.297  0.00  0.00     0.089 A 
ATOM      5  S   UNL d   1      58.195   0.681  31.763  0.00  0.00    -0.043 SA
ATOM      6  N   UNL d   1      59.647   0.596  31.530  0.00  0.00    -0.121 N 
ATOM      7  O   UNL d   1      57.275   0.341  29.865  0.00  0.00    -0.266 OA
ENDROOT
BRANCH   4   8
ATOM      8  C   UNL d   1      56.744   0.679  31.547  0.00  0.00     0.011 C 
BRANCH   8   9
ATOM      9  C   UNL d   1      56.449   0.171  32.123  0.00  0.00     0.003 A 
ATOM     10  C   UNL d   1      56.204   0.464  32.854  0.00  0.00     0.026 A 
ATOM     11  C   UNL d   1      55.910  -0.042  33.428  0.00  0.00     0.116 A 
ATOM     12  C   UNL d   1      55.855  -0.859  33.278  0.00  0.00     0.116 A 
ATOM     13  C   UNL d   1      56.103  -1.150  32.542  0.00  0.00     0.026 A 
ATOM     14  C   UNL d   1      56.396  -0.644  31.968  0.00  0.00     0.002 A 
BRANCH  11  15
ATOM     15  O   UNL d   1      55.667   0.259  34.157  0.00  0.00    -0.326 OA
ATOM     16  C   UNL d   1      54.953   0.682  34.213  0.00  0.00     0.181 C 
ENDBRANCH  11  15
BRANCH  12  17
ATOM     17  O   UNL d   1      55.563  -1.369  33.846  0.00  0.00    -0.326 OA
ATOM     18  C   UNL d   1      55.631  -2.186  33.747  0.00  0.00     0.181 C 
ENDBRANCH  12  17
ENDBRANCH   8   9
ENDBRANCH   4   8
BRANCH   1  19
ATOM     19  C   UNL d   1      59.065   0.290  29.855  0.00  0.00     0.183 A 
ATOM     20  N   UNL d   1      58.822  -0.026  29.140  0.00  0.00    -0.220 NA
ATOM     21  C   UNL d   1      59.473  -0.067  28.639  0.00  0.00     0.108 A 
ATOM     22  C   UNL d   1      60.128   0.227  29.052  0.00  0.00     0.059 A 
ATOM     23  S   UNL d   1      59.873   0.447  29.800  0.00  0.00    -0.048 SA
ENDBRANCH   1  19
TORSDOF 5
ENDMDL
MODEL 4
REMARK VINA RESULT:      -0.2      1.205      1.830
REMARK  5 active torsions:
REMARK  status: ('A' for Active; 'I' for Inactive)
REMARK    1  A    between atoms: C_6  and  N_1 
REMARK    2  A    between atoms: C_8  and  C_4 
REMARK    3  A    between atoms: C_13  and  C_8 
REMARK    4  A    between atoms: O_20  and  C_11 
REMARK    5  A    between atoms: O_21  and  C_16 
ROOT
ATOM      1  N   UNL d   1      56.422  -0.306  32.755  0.00  0.00    -0.231 N 
ATOM      2  C   UNL d   1      56.200  -0.859  32.181  0.00  0.00     0.204 A 
ATOM      3  C   UNL d   1      57.098   0.083  32.485  0.00  0.00     0.274 A 
ATOM      4  C   UNL d   1      57.295  -0.229  31.742  0.00  0.00     0.089 A 
ATOM      5  S   UNL d   1      56.738  -0.808  31.562  0.00  0.00    -0.043 SA
ATOM      6  N   UNL d   1      55.551  -1.368  32.230  0.00  0.00    -0.121 N 
ATOM      7  O   UNL d   1      57.508   0.682  32.885  0.00  0.00    -0.266 OA
ENDROOT
BRANCH   4   8
ATOM      8  C   UNL d   1      57.929   0.000  31.278  0.00  0.00     0.011 C 
BRANCH   8   9
ATOM      9  C   UNL d   1      58.127  -0.433  30.607  0.00  0.00     0.003 A 
ATOM     10  C   UNL d   1      58.306  -0.050  29.899  0.00  0.00     0.026 A 
ATOM     11  C   UNL d   1      58.503  -0.481  29.231  0.00  0.00     0.116 A 
ATOM     12  C   UNL d   1      58.527  -1.313  29.261  0.00  0.00     0.116 A 
ATOM     13  C   UNL d   1      58.347  -1.694  29.975  0.00  0.00     0.026 A 
ATOM     14  C   UNL d   1      58.149  -1.263  30.643  0.00  0.00     0.002 A 
BRANCH  11  15
ATOM     15  O   UNL d   1      58.681  -0.090  28.526  0.00  0.00    -0.326 OA
ATOM     16  C   UNL d   1      59.241   0.524  28.523  0.00  0.00     0.181 C 
ENDBRANCH  11  15
BRANCH  12  17
ATOM     17  O   UNL d   1      58.723  -1.749  28.599  0.00  0.00    -0.326 OA
ATOM     18  C   UNL d   1      58.840  -2.565  28.656  0.00  0.00     0.181 C 
ENDBRANCH  12  17
ENDBRANCH   8   9
ENDBRANCH   4   8
BRANCH   1  19
ATOM     19  C   UNL d   1      56.042  -0.162  33.472  0.00  0.00     0.183 A 
ATOM     20  N   UNL d   1      56.349  -0.281  34.221  0.00  0.00    -0.220 NA
ATOM     21  C   UNL d   1      55.780  -0.065  34.774  0.00  0.00     0.108 A 
ATOM     22  C   UNL d   1      55.110   0.192  34.360  0.00  0.00     0.059 A 
ATOM     23  S   UNL d   1      55.275   0.130  33.558  0.00  0.00    -0.048 SA
ENDBRANCH   1  19
TORSDOF 5
ENDMDL
MODEL 5
REMARK VINA RESULT:      -0.2      1.258      2.077
REMARK  5 active torsions:
REMARK  status: ('A' for Active; 'I' for Inactive)
REMARK    1  A    between atoms: C_6  and  N_1 
REMARK    2  A    between atoms: C_8  and  C_4 
REMARK    3  A    between atoms: C_13  and  C_8 
REMARK    4  A    between atoms: O_20  and  C_11 
REMARK    5  A    between atoms: O_21  and  C_16 
ROOT
ATOM      1  N   UNL d   1      57.128  -0.373  31.670  0.00  0.00    -0.231 N 
ATOM      2  C   UNL d   1      56.937  -1.152  31.463  0.00  0.00     0.204 A 
ATOM      3  C   UNL d   1      57.642  -0.078  31.096  0.00  0.00     0.274 A 
ATOM      4  C   UNL d   1      57.770  -0.673  30.533  0.00  0.00     0.089 A 
ATOM      5  S   UNL d   1      57.332  -1.331  30.766  0.00  0.00    -0.043 SA
ATOM      6  N   UNL d   1      56.436  -1.652  31.889  0.00  0.00    -0.121 N 
ATOM      7  O   UNL d   1      57.974   0.682  31.084  0.00  0.00    -0.266 OA
ENDROOT
BRANCH   4   8
ATOM      8  C   UNL d   1      58.245  -0.612  29.870  0.00  0.00     0.011 C 
BRANCH   8   9
ATOM      9  C   UNL d   1      58.633  -1.276  29.577  0.00  0.00     0.003 A 
ATOM     10  C   UNL d   1      59.454  -1.335  29.622  0.00  0.00     0.026 A 
ATOM     11  C   UNL d   1      59.841  -1.996  29.331  0.00  0.00     0.116 A 
ATOM     12  C   UNL d   1      59.407  -2.617  28.986  0.00  0.00     0.116 A 
ATOM     13  C   UNL d   1      58.581  -2.554  28.942  0.00  0.00     0.026 A 
ATOM     14  C   UNL d   1      58.195  -1.894  29.233  0.00  0.00     0.002 A 
BRANCH  11  15
ATOM     15  O   UNL d   1      60.664  -2.047  29.379  0.00  0.00    -0.326 OA
ATOM     16  C   UNL d   1      61.132  -1.399  29.151  0.00  0.00     0.181 C 
ENDBRANCH  11  15
BRANCH  12  17
ATOM     17  O   UNL d   1      59.786  -3.279  28.693  0.00  0.00    -0.326 OA
ATOM     18  C   UNL d   1      59.589  -4.031  28.974  0.00  0.00     0.181 C 
ENDBRANCH  12  17
ENDBRANCH   8   9
ENDBRANCH   4   8
BRANCH   1  19
ATOM     19  C   UNL d   1      56.858   0.040  32.330  0.00  0.00     0.183 A 
ATOM     20  N   UNL d   1      56.090   0.282  32.475  0.00  0.00    -0.220 NA
ATOM     21  C   UNL d   1      56.072   0.676  33.197  0.00  0.00     0.108 A 
ATOM     22  C   UNL d   1      56.842   0.677  33.502  0.00  0.00     0.059 A 
ATOM     23  S   UNL d   1      57.323   0.285  32.966  0.00  0.00    -0.048 SA
ENDBRANCH   1  19
TORSDOF 5
ENDMDL
