MODEL 1
REMARK VINA RESULT:      -0.9      0.000      0.000
REMARK  6 active torsions:
REMARK  status: ('A' for Active; 'I' for Inactive)
REMARK    1  A    between atoms: O_10  and  C_1 
REMARK    2  A    between atoms: O_9  and  C_6 
REMARK    3  A    between atoms: O_12  and  C_8 
REMARK    4  A    between atoms: C_13  and  O_9 
REMARK    5  A    between atoms: C_19  and  O_10 
REMARK    6  A    between atoms: C_14  and  O_12 
ROOT
ATOM      1  C   UNL d   1     -41.178-122.398 -50.932  0.00  0.00     0.161 A 
ATOM      2  C   UNL d   1     -41.288-122.285 -52.580  0.00  0.00     0.128 A 
ATOM      3  C   UNL d   1     -41.250-123.038 -52.202  0.00  0.00     0.066 A 
ATOM      4  C   UNL d   1     -41.195-123.082 -51.382  0.00  0.00     0.222 A 
ATOM      5  O   UNL d   1     -41.271-121.592 -52.130  0.00  0.00    -0.303 OA
ATOM      6  C   UNL d   1     -41.343-122.233 -53.402  0.00  0.00     0.149 A 
ATOM      7  C   UNL d   1     -41.217-121.645 -51.310  0.00  0.00     0.126 A 
ATOM      8  C   UNL d   1     -41.360-122.924 -53.846  0.00  0.00     0.128 A 
ATOM      9  C   UNL d   1     -41.267-123.724 -52.655  0.00  0.00     0.007 A 
ATOM     10  O   UNL d   1     -41.158-123.817 -51.014  0.00  0.00    -0.284 OA
ATOM     11  C   UNL d   1     -41.322-123.677 -53.468  0.00  0.00     0.027 A 
ATOM     12  C   UNL d   1     -41.199-120.944 -50.845  0.00  0.00     0.029 C 
ENDROOT
BRANCH   1  13
ATOM     13  O   UNL d   1     -41.123-122.435 -50.098  0.00  0.00    -0.302 OA
BRANCH  13  14
ATOM     14  C   UNL d   1     -41.794-122.616 -49.658  0.00  0.00     0.100 A 
ATOM     15  C   UNL d   1     -42.537-122.390 -49.932  0.00  0.00     0.025 A 
ATOM     16  C   UNL d   1     -43.211-122.573 -49.489  0.00  0.00     0.002 A 
ATOM     17  C   UNL d   1     -43.141-122.979 -48.775  0.00  0.00     0.000 A 
ATOM     18  C   UNL d   1     -42.394-123.204 -48.503  0.00  0.00     0.002 A 
ATOM     19  C   UNL d   1     -41.720-123.022 -48.946  0.00  0.00     0.025 A 
ENDBRANCH  13  14
ENDBRANCH   1  13
BRANCH   6  20
ATOM     20  O   UNL d   1     -41.381-121.501 -53.769  0.00  0.00    -0.269 OA
BRANCH  20  21
ATOM     21  C   UNL d   1     -42.112-121.165 -53.946  0.00  0.00     0.300 C 
ATOM     22  O   UNL d   1     -42.805-121.590 -53.806  0.00  0.00    -0.259 OA
ATOM     23  C   UNL d   1     -42.152-120.402 -54.262  0.00  0.00     0.074 C 
ENDBRANCH  20  21
ENDBRANCH   6  20
BRANCH   8  24
ATOM     24  O   UNL d   1     -41.416-122.881 -54.686  0.00  0.00    -0.271 OA
BRANCH  24  25
ATOM     25  C   UNL d   1     -41.847-123.451 -55.102  0.00  0.00     0.300 C 
ATOM     26  O   UNL d   1     -42.497-123.800 -54.745  0.00  0.00    -0.259 OA
ATOM     27  C   UNL d   1     -41.624-123.664 -55.865  0.00  0.00     0.074 C 
ENDBRANCH  24  25
ENDBRANCH   8  24
TORSDOF 6
ENDMDL
MODEL 2
REMARK VINA RESULT:       0.0      0.850      1.873
REMARK  6 active torsions:
REMARK  status: ('A' for Active; 'I' for Inactive)
REMARK    1  A    between atoms: O_10  and  C_1 
REMARK    2  A    between atoms: O_9  and  C_6 
REMARK    3  A    between atoms: O_12  and  C_8 
REMARK    4  A    between atoms: C_13  and  O_9 
REMARK    5  A    between atoms: C_19  and  O_10 
REMARK    6  A    between atoms: C_14  and  O_12 
ROOT
ATOM      1  C   UNL d   1     -41.480-122.257 -50.925  0.00  0.00     0.161 A 
ATOM      2  C   UNL d   1     -41.451-122.472 -52.566  0.00  0.00     0.128 A 
ATOM      3  C   UNL d   1     -41.636-121.719 -52.235  0.00  0.00     0.066 A 
ATOM      4  C   UNL d   1     -41.647-121.624 -51.417  0.00  0.00     0.222 A 
ATOM      5  O   UNL d   1     -41.281-123.114 -52.073  0.00  0.00    -0.303 OA
ATOM      6  C   UNL d   1     -41.438-122.576 -53.385  0.00  0.00     0.149 A 
ATOM      7  C   UNL d   1     -41.295-123.010 -51.256  0.00  0.00     0.126 A 
ATOM      8  C   UNL d   1     -41.607-121.936 -53.871  0.00  0.00     0.128 A 
ATOM      9  C   UNL d   1     -41.804-121.085 -52.730  0.00  0.00     0.007 A 
ATOM     10  O   UNL d   1     -41.828-120.889 -51.094  0.00  0.00    -0.284 OA
ATOM     11  C   UNL d   1     -41.792-121.184 -53.540  0.00  0.00     0.027 A 
ATOM     12  C   UNL d   1     -41.123-123.658 -50.749  0.00  0.00     0.029 C 
ENDROOT
BRANCH   1  13
ATOM     13  O   UNL d   1     -41.489-122.167 -50.093  0.00  0.00    -0.302 OA
BRANCH  13  14
ATOM     14  C   UNL d   1     -42.029-122.600 -49.648  0.00  0.00     0.100 A 
ATOM     15  C   UNL d   1     -41.760-123.111 -49.061  0.00  0.00     0.025 A 
ATOM     16  C   UNL d   1     -42.303-123.547 -48.614  0.00  0.00     0.002 A 
ATOM     17  C   UNL d   1     -43.112-123.469 -48.755  0.00  0.00     0.000 A 
ATOM     18  C   UNL d   1     -43.379-122.956 -49.344  0.00  0.00     0.002 A 
ATOM     19  C   UNL d   1     -42.836-122.521 -49.792  0.00  0.00     0.025 A 
ENDBRANCH  13  14
ENDBRANCH   1  13
BRANCH   6  20
ATOM     20  O   UNL d   1     -41.258-123.308 -53.707  0.00  0.00    -0.269 OA
BRANCH  20  21
ATOM     21  C   UNL d   1     -41.740-123.631 -54.293  0.00  0.00     0.300 C 
ATOM     22  O   UNL d   1     -42.538-123.769 -54.138  0.00  0.00    -0.259 OA
ATOM     23  C   UNL d   1     -41.423-123.817 -55.034  0.00  0.00     0.074 C 
ENDBRANCH  20  21
ENDBRANCH   6  20
BRANCH   8  24
ATOM     24  O   UNL d   1     -41.596-122.032 -54.709  0.00  0.00    -0.271 OA
BRANCH  24  25
ATOM     25  C   UNL d   1     -41.870-121.425 -55.199  0.00  0.00     0.300 C 
ATOM     26  O   UNL d   1     -42.429-120.900 -54.910  0.00  0.00    -0.259 OA
ATOM     27  C   UNL d   1     -41.583-121.351 -55.967  0.00  0.00     0.074 C 
ENDBRANCH  24  25
ENDBRANCH   8  24
TORSDOF 6
ENDMDL
