MODEL 1
REMARK VINA RESULT:      69.7      0.000      0.000
REMARK  5 active torsions:
REMARK  status: ('A' for Active; 'I' for Inactive)
REMARK    1  A    between atoms: C_8  and  C_1 
REMARK    2  A    between atoms: N_4  and  C_2 
REMARK       I    between atoms: C_6  and  N_4 
REMARK    3  A    between atoms: C_9  and  C_6 
REMARK    4  A    between atoms: O_20  and  C_15 
REMARK    5  A    between atoms: C_21  and  O_20 
ROOT
ATOM      1  C   UNL d   1     -47.224  30.569  35.456  0.00  0.00     0.177 A 
ATOM      2  C   UNL d   1     -47.691  30.518  34.777  0.00  0.00     0.114 A 
ATOM      3  O   UNL d   1     -47.009  31.368  35.568  0.00  0.00    -0.301 OA
ATOM      4  C   UNL d   1     -47.771  31.275  34.462  0.00  0.00     0.043 A 
ATOM      5  C   UNL d   1     -47.341  31.808  34.962  0.00  0.00     0.102 A 
ATOM      6  C   UNL d   1     -48.167  31.560  33.802  0.00  0.00     0.004 A 
ATOM      7  C   UNL d   1     -47.327  32.606  34.777  0.00  0.00     0.025 A 
ATOM      8  C   UNL d   1     -48.152  32.369  33.615  0.00  0.00     0.000 A 
ATOM      9  C   UNL d   1     -47.739  32.889  34.093  0.00  0.00     0.002 A 
ENDROOT
BRANCH   2  10
ATOM     10  N   UNL d   1     -48.021  29.798  34.475  0.00  0.00    -0.206 NA
ATOM     11  C   UNL d   1     -48.839  29.683  34.496  0.00  0.00     0.279 C 
ATOM     12  O   UNL d   1     -49.343  30.253  34.805  0.00  0.00    -0.265 OA
BRANCH  11  13
ATOM     13  C   UNL d   1     -49.161  28.980  34.201  0.00  0.00     0.058 A 
ATOM     14  C   UNL d   1     -48.899  28.273  34.494  0.00  0.00     0.007 A 
ATOM     15  C   UNL d   1     -49.228  27.555  34.193  0.00  0.00     0.025 A 
ATOM     16  C   UNL d   1     -49.804  27.589  33.611  0.00  0.00     0.100 A 
ATOM     17  C   UNL d   1     -50.078  28.316  33.306  0.00  0.00     0.025 A 
ATOM     18  C   UNL d   1     -49.749  29.034  33.607  0.00  0.00     0.007 A 
BRANCH  16  19
ATOM     19  O   UNL d   1     -50.132  26.872  33.310  0.00  0.00    -0.305 OA
BRANCH  19  20
ATOM     20  C   UNL d   1     -50.929  26.700  33.432  0.00  0.00     0.123 C 
ATOM     21  C   UNL d   1     -51.198  25.930  33.359  0.00  0.00     0.029 C 
ENDBRANCH  19  20
ENDBRANCH  16  19
ENDBRANCH  11  13
ENDBRANCH   2  10
BRANCH   1  22
ATOM     22  C   UNL d   1     -47.023  29.920  35.922  0.00  0.00     0.321 C 
ATOM     23  O   UNL d   1     -47.380  29.821  36.677  0.00  0.00    -0.261 OA
ATOM     24  N   UNL d   1     -46.466  29.358  35.650  0.00  0.00    -0.101 N 
ENDBRANCH   1  22
TORSDOF 5
ENDMDL
