MODEL 1
REMARK VINA RESULT:      61.6      0.000      0.000
REMARK  1 active torsions:
REMARK  status: ('A' for Active; 'I' for Inactive)
REMARK    1  A    between atoms: C_6  and  C_1 
REMARK       I    between atoms: N_9  and  C_6 
ROOT
ATOM      1  C   UNL d   1     -54.863-101.054 -40.266  0.00  0.00     0.107 A 
ATOM      2  C   UNL d   1     -54.995-101.707 -39.113  0.00  0.00     0.044 A 
ATOM      3  S   UNL d   1     -54.716-100.524 -39.653  0.00  0.00    -0.061 SA
ATOM      4  C   UNL d   1     -54.797-100.928 -38.940  0.00  0.00     0.112 A 
ATOM      5  C   UNL d   1     -55.036-101.788 -39.927  0.00  0.00     0.116 A 
ATOM      6  N   UNL d   1     -54.718-100.689 -38.146  0.00  0.00    -0.239 NA
ATOM      7  C   UNL d   1     -55.114-102.250 -38.500  0.00  0.00     0.005 A 
ATOM      8  C   UNL d   1     -54.837-101.232 -37.541  0.00  0.00     0.082 A 
ATOM      9  C   UNL d   1     -55.035-102.012 -37.727  0.00  0.00     0.018 A 
ATOM     10  N   UNL d   1     -55.214-102.462 -40.336  0.00  0.00    -0.147 N 
ATOM     11  C   UNL d   1     -54.713-100.806 -36.844  0.00  0.00     0.019 A 
ATOM     12  C   UNL d   1     -55.194-102.699 -37.287  0.00  0.00     0.002 A 
ATOM     13  C   UNL d   1     -54.738-100.992 -36.040  0.00  0.00     0.002 A 
ATOM     14  C   UNL d   1     -55.217-102.878 -36.472  0.00  0.00     0.000 A 
ATOM     15  C   UNL d   1     -55.094-102.452 -35.775  0.00  0.00     0.000 A 
ATOM     16  C   UNL d   1     -54.895-101.670 -35.598  0.00  0.00     0.000 A 
ENDROOT
BRANCH   1  17
ATOM     17  C   UNL d   1     -54.841-100.885 -41.050  0.00  0.00     0.272 C 
ATOM     18  N   UNL d   1     -54.793-101.477 -41.580  0.00  0.00    -0.272 N 
ATOM     19  C   UNL d   1     -54.762-102.260 -41.425  0.00  0.00     0.083 A 
ATOM     20  C   UNL d   1     -54.768-101.386 -42.383  0.00  0.00     0.083 A 
ATOM     21  C   UNL d   1     -54.718-102.649 -42.116  0.00  0.00     0.021 A 
ATOM     22  C   UNL d   1     -54.721-102.119 -42.705  0.00  0.00     0.021 A 
ATOM     23  O   UNL d   1     -54.868-100.122 -41.294  0.00  0.00    -0.266 OA
ENDBRANCH   1  17
TORSDOF 1
ENDMDL
