MODEL 1
REMARK VINA RESULT:      88.8      0.000      0.000
REMARK  5 active torsions:
REMARK  status: ('A' for Active; 'I' for Inactive)
REMARK    1  A    between atoms: S_2  and  C_12 
REMARK    2  A    between atoms: N_7  and  S_2 
REMARK    3  A    between atoms: C_5  and  N_7 
REMARK    4  A    between atoms: O_26  and  C_22 
REMARK    5  A    between atoms: C_27  and  O_26 
ROOT
ATOM      1  S   UNL d   1      60.048  48.680  50.939  0.00  0.00     0.287 S 
ATOM      2  O   UNL d   1      60.259  49.484  50.909  0.00  0.00    -0.198 OA
ATOM      3  O   UNL d   1      59.830  47.870  50.969  0.00  0.00    -0.198 OA
ENDROOT
BRANCH   1   4
ATOM      4  C   UNL d   1      59.239  48.894  50.946  0.00  0.00     0.107 A 
ATOM      5  C   UNL d   1      58.824  48.973  50.234  0.00  0.00     0.032 A 
ATOM      6  C   UNL d   1      58.029  49.183  50.241  0.00  0.00     0.085 A 
ATOM      7  N   UNL d   1      57.480  49.302  49.636  0.00  0.00    -0.256 N 
ATOM      8  C   UNL d   1      57.641  49.318  50.962  0.00  0.00     0.085 A 
ATOM      9  C   UNL d   1      56.759  49.508  49.987  0.00  0.00     0.339 A 
ATOM     10  C   UNL d   1      57.618  49.229  48.831  0.00  0.00     0.104 C 
ATOM     11  N   UNL d   1      56.856  49.519  50.792  0.00  0.00    -0.256 N 
ATOM     12  O   UNL d   1      56.052  49.678  49.591  0.00  0.00    -0.245 OA
ATOM     13  C   UNL d   1      56.278  49.696  51.348  0.00  0.00     0.104 C 
ATOM     14  C   UNL d   1      58.063  49.238  51.670  0.00  0.00     0.020 A 
ATOM     15  C   UNL d   1      58.858  49.027  51.662  0.00  0.00     0.015 A 
ENDBRANCH   1   4
BRANCH   1  16
ATOM     16  N   UNL d   1      60.850  48.459  50.932  0.00  0.00    -0.132 NA
BRANCH  16  17
ATOM     17  C   UNL d   1      61.081  47.736  50.612  0.00  0.00     0.206 A 
ATOM     18  N   UNL d   1      61.493  47.709  49.901  0.00  0.00    -0.220 NA
ATOM     19  C   UNL d   1      61.645  46.913  49.724  0.00  0.00     0.090 A 
ATOM     20  C   UNL d   1      62.031  46.543  49.097  0.00  0.00     0.022 A 
ATOM     21  C   UNL d   1      61.320  46.458  50.334  0.00  0.00     0.052 A 
ATOM     22  C   UNL d   1      62.094  45.730  49.076  0.00  0.00     0.026 A 
ATOM     23  C   UNL d   1      61.773  45.271  49.679  0.00  0.00     0.101 A 
ATOM     24  C   UNL d   1      61.385  45.638  50.310  0.00  0.00     0.033 A 
ATOM     25  S   UNL d   1      60.975  46.947  50.879  0.00  0.00    -0.046 SA
BRANCH  23  26
ATOM     26  O   UNL d   1      61.834  44.447  49.662  0.00  0.00    -0.305 OA
BRANCH  26  27
ATOM     27  C   UNL d   1      62.232  44.058  50.280  0.00  0.00     0.123 C 
ATOM     28  C   UNL d   1      62.338  43.240  50.253  0.00  0.00     0.029 C 
ENDBRANCH  26  27
ENDBRANCH  23  26
ENDBRANCH  16  17
ENDBRANCH   1  16
TORSDOF 5
ENDMDL
