MODEL 1
REMARK VINA RESULT:      48.9      0.000      0.000
REMARK  7 active torsions:
REMARK  status: ('A' for Active; 'I' for Inactive)
REMARK       I    between atoms: N_2  and  C_1 
REMARK    1  A    between atoms: C_5  and  N_2 
REMARK    2  A    between atoms: N_4  and  C_9 
REMARK    3  A    between atoms: C_16  and  N_4 
REMARK    4  A    between atoms: O_6  and  C_8 
REMARK    5  A    between atoms: C_10  and  O_6 
REMARK    6  A    between atoms: C_7  and  C_10 
REMARK    7  A    between atoms: C_9  and  C_7 
ROOT
ATOM      1  C   UNL d   1      61.061  48.139  50.729  0.00  0.00     0.085 A 
ATOM      2  C   UNL d   1      59.786  49.175  50.605  0.00  0.00     0.100 A 
ATOM      3  C   UNL d   1      60.913  48.682  51.329  0.00  0.00     0.021 A 
ATOM      4  C   UNL d   1      60.575  48.107  50.061  0.00  0.00     0.021 A 
ATOM      5  C   UNL d   1      59.936  48.627  49.999  0.00  0.00     0.026 A 
ATOM      6  C   UNL d   1      60.277  49.199  51.269  0.00  0.00     0.026 A 
ENDROOT
BRANCH   2   7
ATOM      7  O   UNL d   1      59.151  49.692  50.545  0.00  0.00    -0.302 OA
BRANCH   7   8
ATOM      8  C   UNL d   1      58.634  49.639  49.905  0.00  0.00     0.166 C 
BRANCH   8   9
ATOM      9  C   UNL d   1      57.914  49.247  50.000  0.00  0.00     0.239 C 
ATOM     10  O   UNL d   1      57.914  48.447  50.198  0.00  0.00    -0.283 OA
BRANCH   9  11
ATOM     11  C   UNL d   1      57.203  49.646  49.901  0.00  0.00     0.143 C 
BRANCH  11  12
ATOM     12  N   UNL d   1      56.644  49.655  50.508  0.00  0.00    -0.241 NA
BRANCH  12  13
ATOM     13  C   UNL d   1      56.484  48.970  50.927  0.00  0.00     0.082 C 
ATOM     14  C   UNL d   1      56.363  49.013  51.746  0.00  0.00     0.021 C 
ATOM     15  C   UNL d   1      56.444  48.246  50.536  0.00  0.00     0.021 C 
ENDBRANCH  12  13
ENDBRANCH  11  12
ENDBRANCH   9  11
ENDBRANCH   8   9
ENDBRANCH   7   8
ENDBRANCH   2   7
BRANCH   1  16
ATOM     16  N   UNL d   1      61.696  47.621  50.789  0.00  0.00    -0.208 NA
ATOM     17  C   UNL d   1      61.959  47.204  50.119  0.00  0.00     0.279 C 
ATOM     18  O   UNL d   1      61.581  47.313  49.402  0.00  0.00    -0.265 OA
ATOM     19  C   UNL d   1      62.598  46.687  50.191  0.00  0.00     0.068 C 
ENDBRANCH   1  16
TORSDOF 7
ENDMDL
MODEL 2
REMARK VINA RESULT:      51.8      1.473      1.950
REMARK  7 active torsions:
REMARK  status: ('A' for Active; 'I' for Inactive)
REMARK       I    between atoms: N_2  and  C_1 
REMARK    1  A    between atoms: C_5  and  N_2 
REMARK    2  A    between atoms: N_4  and  C_9 
REMARK    3  A    between atoms: C_16  and  N_4 
REMARK    4  A    between atoms: O_6  and  C_8 
REMARK    5  A    between atoms: C_10  and  O_6 
REMARK    6  A    between atoms: C_7  and  C_10 
REMARK    7  A    between atoms: C_9  and  C_7 
ROOT
ATOM      1  C   UNL d   1      60.426  49.284  50.489  0.00  0.00     0.085 A 
ATOM      2  C   UNL d   1      58.793  49.073  50.482  0.00  0.00     0.100 A 
ATOM      3  C   UNL d   1      59.971  49.619  49.891  0.00  0.00     0.021 A 
ATOM      4  C   UNL d   1      60.071  48.841  51.089  0.00  0.00     0.021 A 
ATOM      5  C   UNL d   1      59.252  48.735  51.086  0.00  0.00     0.026 A 
ATOM      6  C   UNL d   1      59.156  49.515  49.886  0.00  0.00     0.026 A 
ENDROOT
BRANCH   2   7
ATOM      7  O   UNL d   1      57.977  48.969  50.478  0.00  0.00    -0.302 OA
BRANCH   7   8
ATOM      8  C   UNL d   1      57.534  49.148  51.149  0.00  0.00     0.166 C 
BRANCH   8   9
ATOM      9  C   UNL d   1      56.735  49.334  51.066  0.00  0.00     0.239 C 
ATOM     10  O   UNL d   1      56.348  49.143  50.364  0.00  0.00    -0.283 OA
BRANCH   9  11
ATOM     11  C   UNL d   1      56.325  49.706  51.673  0.00  0.00     0.143 C 
BRANCH  11  12
ATOM     12  N   UNL d   1      56.044  49.266  52.312  0.00  0.00    -0.241 NA
BRANCH  12  13
ATOM     13  C   UNL d   1      56.562  49.007  52.889  0.00  0.00     0.082 C 
ATOM     14  C   UNL d   1      56.786  48.209  52.907  0.00  0.00     0.021 C 
ATOM     15  C   UNL d   1      56.859  49.536  53.447  0.00  0.00     0.021 C 
ENDBRANCH  12  13
ENDBRANCH  11  12
ENDBRANCH   9  11
ENDBRANCH   8   9
ENDBRANCH   7   8
ENDBRANCH   2   7
BRANCH   1  16
ATOM     16  N   UNL d   1      61.241  49.388  50.494  0.00  0.00    -0.208 NA
ATOM     17  C   UNL d   1      61.685  49.173  51.164  0.00  0.00     0.279 C 
ATOM     18  O   UNL d   1      61.305  48.858  51.816  0.00  0.00    -0.265 OA
ATOM     19  C   UNL d   1      62.503  49.282  51.158  0.00  0.00     0.068 C 
ENDBRANCH   1  16
TORSDOF 7
ENDMDL
