MODEL 1
REMARK VINA RESULT:      -6.3      0.000      0.000
REMARK  7 active torsions:
REMARK  status: ('A' for Active; 'I' for Inactive)
REMARK    1  A    between atoms: S_10  and  C_4 
REMARK    2  A    between atoms: C_19  and  C_9 
REMARK    3  A    between atoms: C_13  and  S_10 
REMARK    4  A    between atoms: C_11  and  C_13 
REMARK       I    between atoms: N_14  and  C_11 
REMARK    5  A    between atoms: C_16  and  N_14 
REMARK    6  A    between atoms: C_20  and  C_16 
REMARK    7  A    between atoms: C_18  and  C_20 
ROOT
ATOM      1  C   UNL d   1     -46.353  13.484  22.557  0.00  0.00     0.141 A 
ATOM      2  C   UNL d   1     -47.007  13.232  22.989  0.00  0.00     0.110 A 
ATOM      3  O   UNL d   1     -46.526  14.229  22.243  0.00  0.00    -0.303 OA
ATOM      4  C   UNL d   1     -45.683  13.005  22.503  0.00  0.00     0.137 A 
ATOM      5  N   UNL d   1     -45.669  12.273  22.883  0.00  0.00    -0.218 NA
ATOM      6  C   UNL d   1     -47.585  13.819  22.943  0.00  0.00     0.043 A 
ATOM      7  N   UNL d   1     -46.993  12.499  23.369  0.00  0.00    -0.225 NA
ATOM      8  C   UNL d   1     -47.287  14.435  22.482  0.00  0.00     0.102 A 
ATOM      9  C   UNL d   1     -46.323  12.020  23.315  0.00  0.00     0.163 A 
ATOM     10  C   UNL d   1     -48.345  13.872  23.263  0.00  0.00     0.004 A 
ATOM     11  C   UNL d   1     -47.748  15.104  22.340  0.00  0.00     0.025 A 
ATOM     12  C   UNL d   1     -48.806  14.542  23.120  0.00  0.00     0.000 A 
ATOM     13  C   UNL d   1     -48.508  15.157  22.659  0.00  0.00     0.002 A 
ENDROOT
BRANCH   4  14
ATOM     14  S   UNL d   1     -45.028  13.258  22.070  0.00  0.00    -0.060 SA
BRANCH  14  15
ATOM     15  C   UNL d   1     -44.348  12.792  22.041  0.00  0.00     0.099 C 
BRANCH  15  16
ATOM     16  C   UNL d   1     -43.755  12.963  21.492  0.00  0.00     0.286 C 
ATOM     17  O   UNL d   1     -43.831  12.706  20.710  0.00  0.00    -0.265 OA
ATOM     18  N   UNL d   1     -43.089  13.389  21.724  0.00  0.00    -0.206 NA
BRANCH  18  19
ATOM     19  C   UNL d   1     -42.497  13.559  21.176  0.00  0.00     0.102 C 
BRANCH  19  20
ATOM     20  C   UNL d   1     -41.778  13.876  21.428  0.00  0.00     0.021 C 
BRANCH  20  21
ATOM     21  C   UNL d   1     -41.312  14.312  20.905  0.00  0.00     0.002 A 
ATOM     22  C   UNL d   1     -41.400  15.132  20.857  0.00  0.00     0.000 A 
ATOM     23  C   UNL d   1     -40.934  15.567  20.335  0.00  0.00     0.000 A 
ATOM     24  C   UNL d   1     -40.380  15.184  19.860  0.00  0.00     0.000 A 
ATOM     25  C   UNL d   1     -40.290  14.366  19.906  0.00  0.00     0.000 A 
ATOM     26  C   UNL d   1     -40.757  13.929  20.430  0.00  0.00     0.000 A 
ENDBRANCH  20  21
ENDBRANCH  19  20
ENDBRANCH  18  19
ENDBRANCH  15  16
ENDBRANCH  14  15
ENDBRANCH   4  14
BRANCH   9  27
ATOM     27  C   UNL d   1     -46.310  11.288  23.696  0.00  0.00     0.039 C 
ATOM     28  C   UNL d   1     -46.966  10.789  23.654  0.00  0.00     0.003 C 
ENDBRANCH   9  27
TORSDOF 7
ENDMDL
MODEL 2
REMARK VINA RESULT:      -5.8      1.135      2.192
REMARK  7 active torsions:
REMARK  status: ('A' for Active; 'I' for Inactive)
REMARK    1  A    between atoms: S_10  and  C_4 
REMARK    2  A    between atoms: C_19  and  C_9 
REMARK    3  A    between atoms: C_13  and  S_10 
REMARK    4  A    between atoms: C_11  and  C_13 
REMARK       I    between atoms: N_14  and  C_11 
REMARK    5  A    between atoms: C_16  and  N_14 
REMARK    6  A    between atoms: C_20  and  C_16 
REMARK    7  A    between atoms: C_18  and  C_20 
ROOT
ATOM      1  C   UNL d   1     -46.726  12.725  22.918  0.00  0.00     0.141 A 
ATOM      2  C   UNL d   1     -47.471  13.060  23.032  0.00  0.00     0.110 A 
ATOM      3  O   UNL d   1     -46.782  11.916  23.080  0.00  0.00    -0.303 OA
ATOM      4  C   UNL d   1     -46.092  13.196  22.683  0.00  0.00     0.137 A 
ATOM      5  N   UNL d   1     -46.203  14.005  22.561  0.00  0.00    -0.218 NA
ATOM      6  C   UNL d   1     -47.988  12.460  23.263  0.00  0.00     0.043 A 
ATOM      7  N   UNL d   1     -47.582  13.868  22.909  0.00  0.00    -0.225 NA
ATOM      8  C   UNL d   1     -47.563  11.753  23.293  0.00  0.00     0.102 A 
ATOM      9  C   UNL d   1     -46.947  14.340  22.674  0.00  0.00     0.163 A 
ATOM     10  C   UNL d   1     -48.792  12.466  23.451  0.00  0.00     0.004 A 
ATOM     11  C   UNL d   1     -47.940  11.053  23.510  0.00  0.00     0.025 A 
ATOM     12  C   UNL d   1     -49.169  11.765  23.668  0.00  0.00     0.000 A 
ATOM     13  C   UNL d   1     -48.744  11.059  23.698  0.00  0.00     0.002 A 
ENDROOT
BRANCH   4  14
ATOM     14  S   UNL d   1     -45.346  12.861  22.570  0.00  0.00    -0.060 SA
BRANCH  14  15
ATOM     15  C   UNL d   1     -44.943  12.984  21.862  0.00  0.00     0.099 C 
BRANCH  15  16
ATOM     16  C   UNL d   1     -44.126  12.867  21.828  0.00  0.00     0.286 C 
ATOM     17  O   UNL d   1     -43.787  12.214  22.206  0.00  0.00    -0.265 OA
ATOM     18  N   UNL d   1     -43.648  13.400  21.419  0.00  0.00    -0.206 NA
BRANCH  18  19
ATOM     19  C   UNL d   1     -42.833  13.283  21.386  0.00  0.00     0.102 C 
BRANCH  19  20
ATOM     20  C   UNL d   1     -42.396  13.588  20.756  0.00  0.00     0.021 C 
BRANCH  20  21
ATOM     21  C   UNL d   1     -41.692  13.994  20.900  0.00  0.00     0.002 A 
ATOM     22  C   UNL d   1     -41.001  13.575  21.072  0.00  0.00     0.000 A 
ATOM     23  C   UNL d   1     -40.298  13.980  21.215  0.00  0.00     0.000 A 
ATOM     24  C   UNL d   1     -40.283  14.804  21.187  0.00  0.00     0.000 A 
ATOM     25  C   UNL d   1     -40.972  15.224  21.015  0.00  0.00     0.000 A 
ATOM     26  C   UNL d   1     -41.677  14.818  20.872  0.00  0.00     0.000 A 
ENDBRANCH  20  21
ENDBRANCH  19  20
ENDBRANCH  18  19
ENDBRANCH  15  16
ENDBRANCH  14  15
ENDBRANCH   4  14
BRANCH   9  27
ATOM     27  C   UNL d   1     -47.060  15.149  22.551  0.00  0.00     0.039 C 
ATOM     28  C   UNL d   1     -47.771  15.424  22.236  0.00  0.00     0.003 C 
ENDBRANCH   9  27
TORSDOF 7
ENDMDL
MODEL 3
REMARK VINA RESULT:      -5.6      1.885      6.721
REMARK  7 active torsions:
REMARK  status: ('A' for Active; 'I' for Inactive)
REMARK    1  A    between atoms: S_10  and  C_4 
REMARK    2  A    between atoms: C_19  and  C_9 
REMARK    3  A    between atoms: C_13  and  S_10 
REMARK    4  A    between atoms: C_11  and  C_13 
REMARK       I    between atoms: N_14  and  C_11 
REMARK    5  A    between atoms: C_16  and  N_14 
REMARK    6  A    between atoms: C_20  and  C_16 
REMARK    7  A    between atoms: C_18  and  C_20 
ROOT
ATOM      1  C   UNL d   1     -40.533  14.426  21.009  0.00  0.00     0.141 A 
ATOM      2  C   UNL d   1     -39.988  14.806  20.521  0.00  0.00     0.110 A 
ATOM      3  O   UNL d   1     -40.306  14.555  21.794  0.00  0.00    -0.303 OA
ATOM      4  C   UNL d   1     -41.165  14.011  20.680  0.00  0.00     0.137 A 
ATOM      5  N   UNL d   1     -41.252  13.976  19.860  0.00  0.00    -0.218 NA
ATOM      6  C   UNL d   1     -39.425  15.170  21.001  0.00  0.00     0.043 A 
ATOM      7  N   UNL d   1     -40.075  14.770  19.701  0.00  0.00    -0.225 NA
ATOM      8  C   UNL d   1     -39.622  15.015  21.788  0.00  0.00     0.102 A 
ATOM      9  C   UNL d   1     -40.708  14.355  19.371  0.00  0.00     0.163 A 
ATOM     10  C   UNL d   1     -38.758  15.623  20.824  0.00  0.00     0.004 A 
ATOM     11  C   UNL d   1     -39.153  15.313  22.397  0.00  0.00     0.025 A 
ATOM     12  C   UNL d   1     -38.289  15.921  21.434  0.00  0.00     0.000 A 
ATOM     13  C   UNL d   1     -38.485  15.766  22.220  0.00  0.00     0.002 A 
ENDROOT
BRANCH   4  14
ATOM     14  S   UNL d   1     -41.710  13.630  21.170  0.00  0.00    -0.060 SA
BRANCH  14  15
ATOM     15  C   UNL d   1     -42.400  13.314  20.849  0.00  0.00     0.099 C 
BRANCH  15  16
ATOM     16  C   UNL d   1     -42.971  12.984  21.346  0.00  0.00     0.286 C 
ATOM     17  O   UNL d   1     -42.776  12.340  21.827  0.00  0.00    -0.265 OA
ATOM     18  N   UNL d   1     -43.734  13.296  21.364  0.00  0.00    -0.206 NA
BRANCH  18  19
ATOM     19  C   UNL d   1     -44.303  12.966  21.860  0.00  0.00     0.102 C 
BRANCH  19  20
ATOM     20  C   UNL d   1     -45.105  13.070  21.698  0.00  0.00     0.021 C 
BRANCH  20  21
ATOM     21  C   UNL d   1     -45.653  13.090  22.314  0.00  0.00     0.002 A 
ATOM     22  C   UNL d   1     -45.856  12.394  22.710  0.00  0.00     0.000 A 
ATOM     23  C   UNL d   1     -46.404  12.414  23.326  0.00  0.00     0.000 A 
ATOM     24  C   UNL d   1     -46.750  13.129  23.546  0.00  0.00     0.000 A 
ATOM     25  C   UNL d   1     -46.549  13.825  23.152  0.00  0.00     0.000 A 
ATOM     26  C   UNL d   1     -46.000  13.805  22.535  0.00  0.00     0.000 A 
ENDBRANCH  20  21
ENDBRANCH  19  20
ENDBRANCH  18  19
ENDBRANCH  15  16
ENDBRANCH  14  15
ENDBRANCH   4  14
BRANCH   9  27
ATOM     27  C   UNL d   1     -40.794  14.321  18.551  0.00  0.00     0.039 C 
ATOM     28  C   UNL d   1     -40.193  13.998  18.086  0.00  0.00     0.003 C 
ENDBRANCH   9  27
TORSDOF 7
ENDMDL
MODEL 4
REMARK VINA RESULT:      -5.6      1.687      6.661
REMARK  7 active torsions:
REMARK  status: ('A' for Active; 'I' for Inactive)
REMARK    1  A    between atoms: S_10  and  C_4 
REMARK    2  A    between atoms: C_19  and  C_9 
REMARK    3  A    between atoms: C_13  and  S_10 
REMARK    4  A    between atoms: C_11  and  C_13 
REMARK       I    between atoms: N_14  and  C_11 
REMARK    5  A    between atoms: C_16  and  N_14 
REMARK    6  A    between atoms: C_20  and  C_16 
REMARK    7  A    between atoms: C_18  and  C_20 
ROOT
ATOM      1  C   UNL d   1     -40.970  14.075  19.886  0.00  0.00     0.141 A 
ATOM      2  C   UNL d   1     -40.192  14.347  19.878  0.00  0.00     0.110 A 
ATOM      3  O   UNL d   1     -41.242  14.059  19.105  0.00  0.00    -0.303 OA
ATOM      4  C   UNL d   1     -41.332  13.877  20.600  0.00  0.00     0.137 A 
ATOM      5  N   UNL d   1     -40.915  13.951  21.308  0.00  0.00    -0.218 NA
ATOM      6  C   UNL d   1     -39.982  14.499  19.095  0.00  0.00     0.043 A 
ATOM      7  N   UNL d   1     -39.774  14.421  20.587  0.00  0.00    -0.225 NA
ATOM      8  C   UNL d   1     -40.631  14.322  18.618  0.00  0.00     0.102 A 
ATOM      9  C   UNL d   1     -40.137  14.222  21.301  0.00  0.00     0.163 A 
ATOM     10  C   UNL d   1     -39.283  14.777  18.755  0.00  0.00     0.004 A 
ATOM     11  C   UNL d   1     -40.582  14.421  17.801  0.00  0.00     0.025 A 
ATOM     12  C   UNL d   1     -39.234  14.877  17.937  0.00  0.00     0.000 A 
ATOM     13  C   UNL d   1     -39.883  14.699  17.460  0.00  0.00     0.002 A 
ENDROOT
BRANCH   4  14
ATOM     14  S   UNL d   1     -42.111  13.605  20.606  0.00  0.00    -0.060 SA
BRANCH  14  15
ATOM     15  C   UNL d   1     -42.452  13.351  21.313  0.00  0.00     0.099 C 
BRANCH  15  16
ATOM     16  C   UNL d   1     -43.234  13.084  21.319  0.00  0.00     0.286 C 
ATOM     17  O   UNL d   1     -43.478  12.508  20.779  0.00  0.00    -0.265 OA
ATOM     18  N   UNL d   1     -43.771  13.393  21.864  0.00  0.00    -0.206 NA
BRANCH  18  19
ATOM     19  C   UNL d   1     -44.551  13.126  21.870  0.00  0.00     0.102 C 
BRANCH  19  20
ATOM     20  C   UNL d   1     -45.133  13.560  22.261  0.00  0.00     0.021 C 
BRANCH  20  21
ATOM     21  C   UNL d   1     -45.850  13.204  22.462  0.00  0.00     0.002 A 
ATOM     22  C   UNL d   1     -46.531  13.370  22.023  0.00  0.00     0.000 A 
ATOM     23  C   UNL d   1     -47.247  13.014  22.224  0.00  0.00     0.000 A 
ATOM     24  C   UNL d   1     -47.284  12.494  22.862  0.00  0.00     0.000 A 
ATOM     25  C   UNL d   1     -46.606  12.328  23.301  0.00  0.00     0.000 A 
ATOM     26  C   UNL d   1     -45.888  12.684  23.100  0.00  0.00     0.000 A 
ENDBRANCH  20  21
ENDBRANCH  19  20
ENDBRANCH  18  19
ENDBRANCH  15  16
ENDBRANCH  14  15
ENDBRANCH   4  14
BRANCH   9  27
ATOM     27  C   UNL d   1     -39.718  14.297  22.009  0.00  0.00     0.039 C 
ATOM     28  C   UNL d   1     -39.121  13.758  22.193  0.00  0.00     0.003 C 
ENDBRANCH   9  27
TORSDOF 7
ENDMDL
MODEL 5
REMARK VINA RESULT:      -5.5      1.355      2.099
REMARK  7 active torsions:
REMARK  status: ('A' for Active; 'I' for Inactive)
REMARK    1  A    between atoms: S_10  and  C_4 
REMARK    2  A    between atoms: C_19  and  C_9 
REMARK    3  A    between atoms: C_13  and  S_10 
REMARK    4  A    between atoms: C_11  and  C_13 
REMARK       I    between atoms: N_14  and  C_11 
REMARK    5  A    between atoms: C_16  and  N_14 
REMARK    6  A    between atoms: C_20  and  C_16 
REMARK    7  A    between atoms: C_18  and  C_20 
ROOT
ATOM      1  C   UNL d   1     -48.243  13.831  23.085  0.00  0.00     0.141 A 
ATOM      2  C   UNL d   1     -48.983  13.527  23.283  0.00  0.00     0.110 A 
ATOM      3  O   UNL d   1     -48.335  14.633  22.909  0.00  0.00    -0.303 OA
ATOM      4  C   UNL d   1     -47.579  13.341  23.090  0.00  0.00     0.137 A 
ATOM      5  N   UNL d   1     -47.657  12.545  23.294  0.00  0.00    -0.218 NA
ATOM      6  C   UNL d   1     -49.533  14.139  23.230  0.00  0.00     0.043 A 
ATOM      7  N   UNL d   1     -49.060  12.731  23.487  0.00  0.00    -0.225 NA
ATOM      8  C   UNL d   1     -49.133  14.823  22.999  0.00  0.00     0.102 A 
ATOM      9  C   UNL d   1     -48.397  12.241  23.492  0.00  0.00     0.163 A 
ATOM     10  C   UNL d   1     -50.348  14.163  23.362  0.00  0.00     0.004 A 
ATOM     11  C   UNL d   1     -49.546  15.530  22.899  0.00  0.00     0.025 A 
ATOM     12  C   UNL d   1     -50.761  14.871  23.263  0.00  0.00     0.000 A 
ATOM     13  C   UNL d   1     -50.361  15.553  23.032  0.00  0.00     0.002 A 
ENDROOT
BRANCH   4  14
ATOM     14  S   UNL d   1     -46.838  13.646  22.892  0.00  0.00    -0.060 SA
BRANCH  14  15
ATOM     15  C   UNL d   1     -46.308  13.188  22.458  0.00  0.00     0.099 C 
BRANCH  15  16
ATOM     16  C   UNL d   1     -45.547  13.472  22.307  0.00  0.00     0.286 C 
ATOM     17  O   UNL d   1     -45.344  14.243  22.526  0.00  0.00    -0.265 OA
ATOM     18  N   UNL d   1     -44.990  12.987  21.939  0.00  0.00    -0.206 NA
BRANCH  18  19
ATOM     19  C   UNL d   1     -44.231  13.272  21.790  0.00  0.00     0.102 C 
BRANCH  19  20
ATOM     20  C   UNL d   1     -43.674  12.789  21.420  0.00  0.00     0.021 C 
BRANCH  20  21
ATOM     21  C   UNL d   1     -42.909  13.066  21.287  0.00  0.00     0.002 A 
ATOM     22  C   UNL d   1     -42.759  13.578  20.656  0.00  0.00     0.000 A 
ATOM     23  C   UNL d   1     -41.994  13.856  20.523  0.00  0.00     0.000 A 
ATOM     24  C   UNL d   1     -41.378  13.622  21.019  0.00  0.00     0.000 A 
ATOM     25  C   UNL d   1     -41.526  13.112  21.649  0.00  0.00     0.000 A 
ATOM     26  C   UNL d   1     -42.293  12.834  21.783  0.00  0.00     0.000 A 
ENDBRANCH  20  21
ENDBRANCH  19  20
ENDBRANCH  18  19
ENDBRANCH  15  16
ENDBRANCH  14  15
ENDBRANCH   4  14
BRANCH   9  27
ATOM     27  C   UNL d   1     -48.475  11.444  23.696  0.00  0.00     0.039 C 
ATOM     28  C   UNL d   1     -49.208  11.071  23.628  0.00  0.00     0.003 C 
ENDBRANCH   9  27
TORSDOF 7
ENDMDL
MODEL 6
REMARK VINA RESULT:      -5.3      1.931      3.567
REMARK  7 active torsions:
REMARK  status: ('A' for Active; 'I' for Inactive)
REMARK    1  A    between atoms: S_10  and  C_4 
REMARK    2  A    between atoms: C_19  and  C_9 
REMARK    3  A    between atoms: C_13  and  S_10 
REMARK    4  A    between atoms: C_11  and  C_13 
REMARK       I    between atoms: N_14  and  C_11 
REMARK    5  A    between atoms: C_16  and  N_14 
REMARK    6  A    between atoms: C_20  and  C_16 
REMARK    7  A    between atoms: C_18  and  C_20 
ROOT
ATOM      1  C   UNL d   1     -48.833  13.283  23.289  0.00  0.00     0.141 A 
ATOM      2  C   UNL d   1     -49.640  13.435  23.362  0.00  0.00     0.110 A 
ATOM      3  O   UNL d   1     -48.718  12.468  23.363  0.00  0.00    -0.303 OA
ATOM      4  C   UNL d   1     -48.305  13.905  23.166  0.00  0.00     0.137 A 
ATOM      5  N   UNL d   1     -48.585  14.680  23.115  0.00  0.00    -0.218 NA
ATOM      6  C   UNL d   1     -50.025  12.715  23.480  0.00  0.00     0.043 A 
ATOM      7  N   UNL d   1     -49.920  14.210  23.310  0.00  0.00    -0.225 NA
ATOM      8  C   UNL d   1     -49.456  12.118  23.481  0.00  0.00     0.102 A 
ATOM      9  C   UNL d   1     -49.392  14.831  23.187  0.00  0.00     0.163 A 
ATOM     10  C   UNL d   1     -50.822  12.526  23.587  0.00  0.00     0.004 A 
ATOM     11  C   UNL d   1     -49.682  11.332  23.589  0.00  0.00     0.025 A 
ATOM     12  C   UNL d   1     -51.048  11.740  23.695  0.00  0.00     0.000 A 
ATOM     13  C   UNL d   1     -50.479  11.143  23.696  0.00  0.00     0.002 A 
ENDROOT
BRANCH   4  14
ATOM     14  S   UNL d   1     -47.497  13.753  23.094  0.00  0.00    -0.060 SA
BRANCH  14  15
ATOM     15  C   UNL d   1     -47.036  14.207  22.583  0.00  0.00     0.099 C 
BRANCH  15  16
ATOM     16  C   UNL d   1     -46.216  14.113  22.575  0.00  0.00     0.286 C 
ATOM     17  O   UNL d   1     -45.740  14.600  23.043  0.00  0.00    -0.265 OA
ATOM     18  N   UNL d   1     -45.871  13.533  22.099  0.00  0.00    -0.206 NA
BRANCH  18  19
ATOM     19  C   UNL d   1     -45.052  13.440  22.092  0.00  0.00     0.102 C 
BRANCH  19  20
ATOM     20  C   UNL d   1     -44.709  12.840  21.641  0.00  0.00     0.021 C 
BRANCH  20  21
ATOM     21  C   UNL d   1     -43.888  12.769  21.604  0.00  0.00     0.002 A 
ATOM     22  C   UNL d   1     -43.511  12.131  21.971  0.00  0.00     0.000 A 
ATOM     23  C   UNL d   1     -42.691  12.060  21.934  0.00  0.00     0.000 A 
ATOM     24  C   UNL d   1     -42.245  12.625  21.532  0.00  0.00     0.000 A 
ATOM     25  C   UNL d   1     -42.619  13.262  21.166  0.00  0.00     0.000 A 
ATOM     26  C   UNL d   1     -43.442  13.334  21.202  0.00  0.00     0.000 A 
ENDBRANCH  20  21
ENDBRANCH  19  20
ENDBRANCH  18  19
ENDBRANCH  15  16
ENDBRANCH  14  15
ENDBRANCH   4  14
BRANCH   9  27
ATOM     27  C   UNL d   1     -49.673  15.606  23.135  0.00  0.00     0.039 C 
ATOM     28  C   UNL d   1     -50.355  15.825  23.544  0.00  0.00     0.003 C 
ENDBRANCH   9  27
TORSDOF 7
ENDMDL
MODEL 7
REMARK VINA RESULT:      -5.1      1.418      2.234
REMARK  7 active torsions:
REMARK  status: ('A' for Active; 'I' for Inactive)
REMARK    1  A    between atoms: S_10  and  C_4 
REMARK    2  A    between atoms: C_19  and  C_9 
REMARK    3  A    between atoms: C_13  and  S_10 
REMARK    4  A    between atoms: C_11  and  C_13 
REMARK       I    between atoms: N_14  and  C_11 
REMARK    5  A    between atoms: C_16  and  N_14 
REMARK    6  A    between atoms: C_20  and  C_16 
REMARK    7  A    between atoms: C_18  and  C_20 
ROOT
ATOM      1  C   UNL d   1     -44.599  12.762  22.166  0.00  0.00     0.141 A 
ATOM      2  C   UNL d   1     -44.998  12.269  22.692  0.00  0.00     0.110 A 
ATOM      3  O   UNL d   1     -45.100  13.391  21.974  0.00  0.00    -0.303 OA
ATOM      4  C   UNL d   1     -43.831  12.576  21.927  0.00  0.00     0.137 A 
ATOM      5  N   UNL d   1     -43.463  11.897  22.216  0.00  0.00    -0.218 NA
ATOM      6  C   UNL d   1     -45.745  12.592  22.827  0.00  0.00     0.043 A 
ATOM      7  N   UNL d   1     -44.630  11.589  22.981  0.00  0.00    -0.225 NA
ATOM      8  C   UNL d   1     -45.808  13.285  22.383  0.00  0.00     0.102 A 
ATOM      9  C   UNL d   1     -43.862  11.404  22.742  0.00  0.00     0.163 A 
ATOM     10  C   UNL d   1     -46.378  12.344  23.297  0.00  0.00     0.004 A 
ATOM     11  C   UNL d   1     -46.501  13.731  22.409  0.00  0.00     0.025 A 
ATOM     12  C   UNL d   1     -47.072  12.791  23.322  0.00  0.00     0.000 A 
ATOM     13  C   UNL d   1     -47.134  13.483  22.879  0.00  0.00     0.002 A 
ENDROOT
BRANCH   4  14
ATOM     14  S   UNL d   1     -43.432  13.070  21.400  0.00  0.00    -0.060 SA
BRANCH  14  15
ATOM     15  C   UNL d   1     -42.609  13.039  21.350  0.00  0.00     0.099 C 
BRANCH  15  16
ATOM     16  C   UNL d   1     -42.196  13.655  20.985  0.00  0.00     0.286 C 
ATOM     17  O   UNL d   1     -42.330  14.436  21.219  0.00  0.00    -0.265 OA
ATOM     18  N   UNL d   1     -41.651  13.490  20.389  0.00  0.00    -0.206 NA
BRANCH  18  19
ATOM     19  C   UNL d   1     -41.239  14.104  20.026  0.00  0.00     0.102 C 
BRANCH  19  20
ATOM     20  C   UNL d   1     -40.588  13.939  19.547  0.00  0.00     0.021 C 
BRANCH  20  21
ATOM     21  C   UNL d   1     -40.377  14.459  18.942  0.00  0.00     0.002 A 
ATOM     22  C   UNL d   1     -39.913  15.122  19.110  0.00  0.00     0.000 A 
ATOM     23  C   UNL d   1     -39.702  15.641  18.505  0.00  0.00     0.000 A 
ATOM     24  C   UNL d   1     -39.953  15.499  17.733  0.00  0.00     0.000 A 
ATOM     25  C   UNL d   1     -40.416  14.837  17.564  0.00  0.00     0.000 A 
ATOM     26  C   UNL d   1     -40.627  14.317  18.170  0.00  0.00     0.000 A 
ENDBRANCH  20  21
ENDBRANCH  19  20
ENDBRANCH  18  19
ENDBRANCH  15  16
ENDBRANCH  14  15
ENDBRANCH   4  14
BRANCH   9  27
ATOM     27  C   UNL d   1     -43.495  10.724  23.031  0.00  0.00     0.039 C 
ATOM     28  C   UNL d   1     -43.877  10.256  23.593  0.00  0.00     0.003 C 
ENDBRANCH   9  27
TORSDOF 7
ENDMDL
MODEL 8
REMARK VINA RESULT:      -4.5      1.678      6.089
REMARK  7 active torsions:
REMARK  status: ('A' for Active; 'I' for Inactive)
REMARK    1  A    between atoms: S_10  and  C_4 
REMARK    2  A    between atoms: C_19  and  C_9 
REMARK    3  A    between atoms: C_13  and  S_10 
REMARK    4  A    between atoms: C_11  and  C_13 
REMARK       I    between atoms: N_14  and  C_11 
REMARK    5  A    between atoms: C_16  and  N_14 
REMARK    6  A    between atoms: C_20  and  C_16 
REMARK    7  A    between atoms: C_18  and  C_20 
ROOT
ATOM      1  C   UNL d   1     -44.985  12.046  22.590  0.00  0.00     0.141 A 
ATOM      2  C   UNL d   1     -44.206  11.791  22.502  0.00  0.00     0.110 A 
ATOM      3  O   UNL d   1     -45.396  11.467  23.014  0.00  0.00    -0.303 OA
ATOM      4  C   UNL d   1     -45.222  12.770  22.275  0.00  0.00     0.137 A 
ATOM      5  N   UNL d   1     -44.678  13.240  21.869  0.00  0.00    -0.218 NA
ATOM      6  C   UNL d   1     -44.134  11.057  22.870  0.00  0.00     0.043 A 
ATOM      7  N   UNL d   1     -43.663  12.262  22.096  0.00  0.00    -0.225 NA
ATOM      8  C   UNL d   1     -44.870  10.856  23.187  0.00  0.00     0.102 A 
ATOM      9  C   UNL d   1     -43.900  12.986  21.781  0.00  0.00     0.163 A 
ATOM     10  C   UNL d   1     -43.494  10.543  22.959  0.00  0.00     0.004 A 
ATOM     11  C   UNL d   1     -44.965  10.145  23.592  0.00  0.00     0.025 A 
ATOM     12  C   UNL d   1     -43.589   9.831  23.364  0.00  0.00     0.000 A 
ATOM     13  C   UNL d   1     -44.324   9.631  23.680  0.00  0.00     0.002 A 
ENDROOT
BRANCH   4  14
ATOM     14  S   UNL d   1     -46.003  13.024  22.363  0.00  0.00    -0.060 SA
BRANCH  14  15
ATOM     15  C   UNL d   1     -46.176  13.830  22.354  0.00  0.00     0.099 C 
BRANCH  15  16
ATOM     16  C   UNL d   1     -46.823  14.116  22.781  0.00  0.00     0.286 C 
ATOM     17  O   UNL d   1     -46.756  14.244  23.595  0.00  0.00    -0.265 OA
ATOM     18  N   UNL d   1     -47.535  14.275  22.396  0.00  0.00    -0.206 NA
BRANCH  18  19
ATOM     19  C   UNL d   1     -48.179  14.560  22.822  0.00  0.00     0.102 C 
BRANCH  19  20
ATOM     20  C   UNL d   1     -48.764  15.001  22.442  0.00  0.00     0.021 C 
BRANCH  20  21
ATOM     21  C   UNL d   1     -49.487  15.138  22.815  0.00  0.00     0.002 A 
ATOM     22  C   UNL d   1     -50.123  14.626  22.685  0.00  0.00     0.000 A 
ATOM     23  C   UNL d   1     -50.846  14.762  23.057  0.00  0.00     0.000 A 
ATOM     24  C   UNL d   1     -50.934  15.410  23.560  0.00  0.00     0.000 A 
ATOM     25  C   UNL d   1     -50.301  15.921  23.691  0.00  0.00     0.000 A 
ATOM     26  C   UNL d   1     -49.577  15.784  23.318  0.00  0.00     0.000 A 
ENDBRANCH  20  21
ENDBRANCH  19  20
ENDBRANCH  18  19
ENDBRANCH  15  16
ENDBRANCH  14  15
ENDBRANCH   4  14
BRANCH   9  27
ATOM     27  C   UNL d   1     -43.355  13.456  21.375  0.00  0.00     0.039 C 
ATOM     28  C   UNL d   1     -42.611  13.154  21.185  0.00  0.00     0.003 C 
ENDBRANCH   9  27
TORSDOF 7
ENDMDL
MODEL 9
REMARK VINA RESULT:      -3.8      2.588      7.161
REMARK  7 active torsions:
REMARK  status: ('A' for Active; 'I' for Inactive)
REMARK    1  A    between atoms: S_10  and  C_4 
REMARK    2  A    between atoms: C_19  and  C_9 
REMARK    3  A    between atoms: C_13  and  S_10 
REMARK    4  A    between atoms: C_11  and  C_13 
REMARK       I    between atoms: N_14  and  C_11 
REMARK    5  A    between atoms: C_16  and  N_14 
REMARK    6  A    between atoms: C_20  and  C_16 
REMARK    7  A    between atoms: C_18  and  C_20 
ROOT
ATOM      1  C   UNL d   1     -40.245  14.818  18.728  0.00  0.00     0.141 A 
ATOM      2  C   UNL d   1     -39.643  14.731  18.172  0.00  0.00     0.110 A 
ATOM      3  O   UNL d   1     -40.861  15.241  18.375  0.00  0.00    -0.303 OA
ATOM      4  C   UNL d   1     -40.158  14.501  19.485  0.00  0.00     0.137 A 
ATOM      5  N   UNL d   1     -39.467  14.097  19.686  0.00  0.00    -0.218 NA
ATOM      6  C   UNL d   1     -39.885  15.099  17.475  0.00  0.00     0.043 A 
ATOM      7  N   UNL d   1     -38.952  14.327  18.373  0.00  0.00    -0.225 NA
ATOM      8  C   UNL d   1     -40.637  15.414  17.600  0.00  0.00     0.102 A 
ATOM      9  C   UNL d   1     -38.864  14.011  19.130  0.00  0.00     0.163 A 
ATOM     10  C   UNL d   1     -39.517  15.189  16.741  0.00  0.00     0.004 A 
ATOM     11  C   UNL d   1     -41.022  15.819  16.993  0.00  0.00     0.025 A 
ATOM     12  C   UNL d   1     -39.902  15.594  16.134  0.00  0.00     0.000 A 
ATOM     13  C   UNL d   1     -40.653  15.908  16.259  0.00  0.00     0.002 A 
ENDROOT
BRANCH   4  14
ATOM     14  S   UNL d   1     -40.761  14.589  20.042  0.00  0.00    -0.060 SA
BRANCH  14  15
ATOM     15  C   UNL d   1     -40.879  14.008  20.615  0.00  0.00     0.099 C 
BRANCH  15  16
ATOM     16  C   UNL d   1     -41.581  13.997  21.051  0.00  0.00     0.286 C 
ATOM     17  O   UNL d   1     -41.788  14.649  21.515  0.00  0.00    -0.265 OA
ATOM     18  N   UNL d   1     -42.075  13.337  21.022  0.00  0.00    -0.206 NA
BRANCH  18  19
ATOM     19  C   UNL d   1     -42.775  13.327  21.457  0.00  0.00     0.102 C 
BRANCH  19  20
ATOM     20  C   UNL d   1     -43.326  12.725  21.339  0.00  0.00     0.021 C 
BRANCH  20  21
ATOM     21  C   UNL d   1     -44.029  12.717  21.772  0.00  0.00     0.002 A 
ATOM     22  C   UNL d   1     -44.571  13.335  21.690  0.00  0.00     0.000 A 
ATOM     23  C   UNL d   1     -45.273  13.327  22.122  0.00  0.00     0.000 A 
ATOM     24  C   UNL d   1     -45.435  12.702  22.636  0.00  0.00     0.000 A 
ATOM     25  C   UNL d   1     -44.894  12.085  22.718  0.00  0.00     0.000 A 
ATOM     26  C   UNL d   1     -44.191  12.093  22.285  0.00  0.00     0.000 A 
ENDBRANCH  20  21
ENDBRANCH  19  20
ENDBRANCH  18  19
ENDBRANCH  15  16
ENDBRANCH  14  15
ENDBRANCH   4  14
BRANCH   9  27
ATOM     27  C   UNL d   1     -38.173  13.607  19.329  0.00  0.00     0.039 C 
ATOM     28  C   UNL d   1     -37.988  12.895  18.956  0.00  0.00     0.003 C 
ENDBRANCH   9  27
TORSDOF 7
ENDMDL
