MODEL 1
REMARK VINA RESULT:     104.3      0.000      0.000
REMARK  5 active torsions:
REMARK  status: ('A' for Active; 'I' for Inactive)
REMARK       I    between atoms: C_2  and  N_6 
REMARK    1  A    between atoms: C_7  and  C_2 
REMARK    2  A    between atoms: N_3  and  C_4 
REMARK    3  A    between atoms: C_12  and  N_5 
REMARK    4  A    between atoms: N_6  and  C_18 
REMARK    5  A    between atoms: O_33  and  C_30 
ROOT
ATOM      1  C   UNL d   1      14.853  16.366  -4.442  0.00  0.00     0.086 A 
ATOM      2  C   UNL d   1      14.681  17.031  -3.992  0.00  0.00     0.074 A 
ATOM      3  C   UNL d   1      15.052  16.443  -5.235  0.00  0.00     0.102 C 
ATOM      4  N   UNL d   1      15.250  16.524  -6.029  0.00  0.00    -0.191 NA
ATOM      5  C   UNL d   1      14.482  16.954  -3.198  0.00  0.00     0.020 A 
ATOM      6  C   UNL d   1      14.827  15.611  -4.096  0.00  0.00     0.031 A 
ATOM      7  C   UNL d   1      14.629  15.526  -3.303  0.00  0.00     0.085 A 
ATOM      8  C   UNL d   1      14.453  16.203  -2.844  0.00  0.00     0.021 A 
ENDROOT
BRANCH   2   9
ATOM      9  N   UNL d   1      14.704  17.785  -4.329  0.00  0.00    -0.301 N 
ATOM     10  C   UNL d   1      15.291  17.959  -4.877  0.00  0.00     0.100 A 
ATOM     11  C   UNL d   1      15.321  18.715  -5.220  0.00  0.00     0.100 A 
ATOM     12  N   UNL d   1      14.759  19.283  -5.006  0.00  0.00    -0.301 N 
ATOM     13  C   UNL d   1      14.172  19.100  -4.454  0.00  0.00     0.100 A 
ATOM     14  C   UNL d   1      14.143  18.352  -4.115  0.00  0.00     0.100 A 
BRANCH  12  15
ATOM     15  C   UNL d   1      14.789  20.039  -5.349  0.00  0.00     0.064 A 
ATOM     16  C   UNL d   1      14.380  20.189  -6.046  0.00  0.00     0.020 A 
ATOM     17  C   UNL d   1      14.410  20.941  -6.389  0.00  0.00     0.026 A 
ATOM     18  C   UNL d   1      14.852  21.550  -6.032  0.00  0.00     0.094 A 
ATOM     19  C   UNL d   1      15.268  21.401  -5.325  0.00  0.00     0.026 A 
ATOM     20  C   UNL d   1      15.236  20.646  -4.985  0.00  0.00     0.020 A 
BRANCH  18  21
ATOM     21  O   UNL d   1      14.886  22.304  -6.368  0.00  0.00    -0.328 OA
ATOM     22  C   UNL d   1      14.902  22.962  -5.876  0.00  0.00     0.181 C 
ENDBRANCH  18  21
ENDBRANCH  12  15
ENDBRANCH   2   9
BRANCH   7  23
ATOM     23  N   UNL d   1      14.603  14.780  -2.956  0.00  0.00    -0.208 NA
ATOM     24  C   UNL d   1      14.514  14.708  -2.143  0.00  0.00     0.279 C 
ATOM     25  O   UNL d   1      14.452  15.379  -1.672  0.00  0.00    -0.265 OA
BRANCH  24  26
ATOM     26  C   UNL d   1      14.488  13.957  -1.797  0.00  0.00     0.060 A 
ATOM     27  C   UNL d   1      14.999  13.769  -1.193  0.00  0.00     0.031 A 
ATOM     28  C   UNL d   1      14.970  13.019  -0.850  0.00  0.00     0.119 A 
ATOM     29  O   UNL d   1      15.402  12.675  -0.248  0.00  0.00    -0.300 OA
ATOM     30  C   UNL d   1      14.427  12.472  -1.121  0.00  0.00     0.119 A 
ATOM     31  C   UNL d   1      15.126  11.908  -0.143  0.00  0.00     0.304 A 
ATOM     32  O   UNL d   1      14.523  11.782  -0.682  0.00  0.00    -0.300 OA
ATOM     33  C   UNL d   1      13.908  12.659  -1.731  0.00  0.00     0.026 A 
ATOM     34  C   UNL d   1      13.939  13.404  -2.070  0.00  0.00     0.007 A 
ENDBRANCH  24  26
ENDBRANCH   7  23
TORSDOF 5
ENDMDL
