MODEL 1
REMARK VINA RESULT:      -6.2      0.000      0.000
REMARK  2 active torsions:
REMARK  status: ('A' for Active; 'I' for Inactive)
REMARK    1  A    between atoms: C_6  and  C_1 
REMARK       I    between atoms: N_12  and  C_6 
REMARK    2  A    between atoms: O_15  and  C_13 
ROOT
ATOM      1  C   UNL d   1      57.420  -0.051  31.136  0.00  0.00     0.101 A 
ATOM      2  C   UNL d   1      57.333  -0.864  31.195  0.00  0.00     0.208 A 
ATOM      3  C   UNL d   1      56.994   0.441  31.644  0.00  0.00     0.011 A 
ATOM      4  O   UNL d   1      56.821  -1.198  31.761  0.00  0.00    -0.288 OA
ATOM      5  C   UNL d   1      56.483   0.104  32.209  0.00  0.00     0.025 A 
ATOM      6  C   UNL d   1      56.401  -0.690  32.264  0.00  0.00     0.102 A 
ATOM      7  N   UNL d   1      57.758  -1.336  30.689  0.00  0.00    -0.121 N 
ATOM      8  C   UNL d   1      56.066   0.618  32.709  0.00  0.00     0.026 A 
ATOM      9  C   UNL d   1      55.895  -1.044  32.822  0.00  0.00     0.027 A 
ATOM     10  C   UNL d   1      55.557   0.265  33.270  0.00  0.00     0.094 A 
ATOM     11  C   UNL d   1      55.475  -0.533  33.325  0.00  0.00     0.026 A 
ENDROOT
BRANCH   1  12
ATOM     12  C   UNL d   1      57.929   0.266  30.572  0.00  0.00     0.283 C 
ATOM     13  O   UNL d   1      58.642   0.488  30.769  0.00  0.00    -0.265 OA
ATOM     14  N   UNL d   1      57.713   0.364  29.788  0.00  0.00    -0.205 NA
ATOM     15  C   UNL d   1      58.230   0.680  29.242  0.00  0.00     0.123 C 
ENDBRANCH   1  12
BRANCH  10  16
ATOM     16  O   UNL d   1      55.130   0.682  33.777  0.00  0.00    -0.328 OA
ATOM     17  C   UNL d   1      55.161   0.677  34.626  0.00  0.00     0.181 C 
ENDBRANCH  10  16
TORSDOF 2
ENDMDL
MODEL 2
REMARK VINA RESULT:      -5.9      1.440      3.543
REMARK  2 active torsions:
REMARK  status: ('A' for Active; 'I' for Inactive)
REMARK    1  A    between atoms: C_6  and  C_1 
REMARK       I    between atoms: N_12  and  C_6 
REMARK    2  A    between atoms: O_15  and  C_13 
ROOT
ATOM      1  C   UNL d   1      55.990  -0.243  32.914  0.00  0.00     0.101 A 
ATOM      2  C   UNL d   1      56.032  -1.051  32.783  0.00  0.00     0.208 A 
ATOM      3  C   UNL d   1      56.418   0.270  32.428  0.00  0.00     0.011 A 
ATOM      4  O   UNL d   1      56.500  -1.360  32.168  0.00  0.00    -0.288 OA
ATOM      5  C   UNL d   1      56.885  -0.043  31.813  0.00  0.00     0.025 A 
ATOM      6  C   UNL d   1      56.924  -0.832  31.689  0.00  0.00     0.102 A 
ATOM      7  N   UNL d   1      55.606  -1.543  33.268  0.00  0.00    -0.121 N 
ATOM      8  C   UNL d   1      57.307   0.492  31.338  0.00  0.00     0.026 A 
ATOM      9  C   UNL d   1      57.385  -1.161  31.080  0.00  0.00     0.027 A 
ATOM     10  C   UNL d   1      57.771   0.164  30.726  0.00  0.00     0.094 A 
ATOM     11  C   UNL d   1      57.809  -0.629  30.601  0.00  0.00     0.026 A 
ENDROOT
BRANCH   1  12
ATOM     12  C   UNL d   1      55.523   0.050  33.526  0.00  0.00     0.283 C 
ATOM     13  O   UNL d   1      54.753   0.005  33.487  0.00  0.00    -0.265 OA
ATOM     14  N   UNL d   1      55.841   0.397  34.196  0.00  0.00    -0.205 NA
ATOM     15  C   UNL d   1      55.365   0.682  34.794  0.00  0.00     0.123 C 
ENDBRANCH   1  12
BRANCH  10  16
ATOM     16  O   UNL d   1      58.197   0.601  30.236  0.00  0.00    -0.328 OA
ATOM     17  C   UNL d   1      58.119   0.682  29.393  0.00  0.00     0.181 C 
ENDBRANCH  10  16
TORSDOF 2
ENDMDL
MODEL 3
REMARK VINA RESULT:      -4.6      1.226      1.975
REMARK  2 active torsions:
REMARK  status: ('A' for Active; 'I' for Inactive)
REMARK    1  A    between atoms: C_6  and  C_1 
REMARK       I    between atoms: N_12  and  C_6 
REMARK    2  A    between atoms: O_15  and  C_13 
ROOT
ATOM      1  C   UNL d   1      58.145  -0.495  30.124  0.00  0.00     0.101 A 
ATOM      2  C   UNL d   1      58.337   0.287  30.280  0.00  0.00     0.208 A 
ATOM      3  C   UNL d   1      57.629  -0.895  30.630  0.00  0.00     0.011 A 
ATOM      4  O   UNL d   1      58.019   0.680  30.940  0.00  0.00    -0.288 OA
ATOM      5  C   UNL d   1      57.312  -0.497  31.290  0.00  0.00     0.025 A 
ATOM      6  C   UNL d   1      57.502   0.265  31.439  0.00  0.00     0.102 A 
ATOM      7  N   UNL d   1      58.845   0.668  29.774  0.00  0.00    -0.121 N 
ATOM      8  C   UNL d   1      56.796  -0.920  31.784  0.00  0.00     0.026 A 
ATOM      9  C   UNL d   1      57.195   0.677  32.094  0.00  0.00     0.027 A 
ATOM     10  C   UNL d   1      56.487  -0.508  32.442  0.00  0.00     0.094 A 
ATOM     11  C   UNL d   1      56.678   0.258  32.592  0.00  0.00     0.026 A 
ENDROOT
BRANCH   1  12
ATOM     12  C   UNL d   1      58.466  -0.873  29.467  0.00  0.00     0.283 C 
ATOM     13  O   UNL d   1      58.289  -0.637  28.754  0.00  0.00    -0.265 OA
ATOM     14  N   UNL d   1      58.981  -1.507  29.531  0.00  0.00    -0.205 NA
ATOM     15  C   UNL d   1      59.291  -1.871  28.870  0.00  0.00     0.123 C 
ENDBRANCH   1  12
BRANCH  10  16
ATOM     16  O   UNL d   1      55.994  -0.837  32.955  0.00  0.00    -0.328 OA
ATOM     17  C   UNL d   1      55.288  -0.509  33.296  0.00  0.00     0.181 C 
ENDBRANCH  10  16
TORSDOF 2
ENDMDL
MODEL 4
REMARK VINA RESULT:      -4.5      1.795      3.741
REMARK  2 active torsions:
REMARK  status: ('A' for Active; 'I' for Inactive)
REMARK    1  A    between atoms: C_6  and  C_1 
REMARK       I    between atoms: N_12  and  C_6 
REMARK    2  A    between atoms: O_15  and  C_13 
ROOT
ATOM      1  C   UNL d   1      56.318   0.228  33.057  0.00  0.00     0.101 A 
ATOM      2  C   UNL d   1      56.966   0.529  33.460  0.00  0.00     0.208 A 
ATOM      3  C   UNL d   1      56.378   0.074  32.248  0.00  0.00     0.011 A 
ATOM      4  O   UNL d   1      57.681   0.681  33.062  0.00  0.00    -0.288 OA
ATOM      5  C   UNL d   1      57.096   0.228  31.854  0.00  0.00     0.025 A 
ATOM      6  C   UNL d   1      57.726   0.522  32.250  0.00  0.00     0.102 A 
ATOM      7  N   UNL d   1      56.893   0.675  34.255  0.00  0.00    -0.121 N 
ATOM      8  C   UNL d   1      57.133   0.065  31.040  0.00  0.00     0.026 A 
ATOM      9  C   UNL d   1      58.450   0.681  31.872  0.00  0.00     0.027 A 
ATOM     10  C   UNL d   1      57.859   0.225  30.659  0.00  0.00     0.094 A 
ATOM     11  C   UNL d   1      58.492   0.520  31.057  0.00  0.00     0.026 A 
ENDROOT
BRANCH   1  12
ATOM     12  C   UNL d   1      55.616   0.081  33.461  0.00  0.00     0.283 C 
ATOM     13  O   UNL d   1      55.428  -0.637  33.672  0.00  0.00    -0.265 OA
ATOM     14  N   UNL d   1      55.089   0.676  33.659  0.00  0.00    -0.205 NA
ATOM     15  C   UNL d   1      54.397   0.514  34.060  0.00  0.00     0.123 C 
ENDBRANCH   1  12
BRANCH  10  16
ATOM     16  O   UNL d   1      57.974   0.099  29.895  0.00  0.00    -0.328 OA
ATOM     17  C   UNL d   1      58.461  -0.489  29.521  0.00  0.00     0.181 C 
ENDBRANCH  10  16
TORSDOF 2
ENDMDL
MODEL 5
REMARK VINA RESULT:      -3.5      9.303     10.082
REMARK  2 active torsions:
REMARK  status: ('A' for Active; 'I' for Inactive)
REMARK    1  A    between atoms: C_6  and  C_1 
REMARK       I    between atoms: N_12  and  C_6 
REMARK    2  A    between atoms: O_15  and  C_13 
ROOT
ATOM      1  C   UNL d   1      59.747  -8.780  34.667  0.00  0.00     0.101 A 
ATOM      2  C   UNL d   1      60.504  -8.939  34.393  0.00  0.00     0.208 A 
ATOM      3  C   UNL d   1      59.100  -8.923  34.175  0.00  0.00     0.011 A 
ATOM      4  O   UNL d   1      60.625  -9.241  33.627  0.00  0.00    -0.288 OA
ATOM      5  C   UNL d   1      59.225  -9.225  33.409  0.00  0.00     0.025 A 
ATOM      6  C   UNL d   1      59.965  -9.379  33.145  0.00  0.00     0.102 A 
ATOM      7  N   UNL d   1      61.131  -8.794  34.887  0.00  0.00    -0.121 N 
ATOM      8  C   UNL d   1      58.558  -9.360  32.933  0.00  0.00     0.026 A 
ATOM      9  C   UNL d   1      60.108  -9.681  32.384  0.00  0.00     0.027 A 
ATOM     10  C   UNL d   1      58.700  -9.664  32.168  0.00  0.00     0.094 A 
ATOM     11  C   UNL d   1      59.444  -9.818  31.903  0.00  0.00     0.026 A 
ENDROOT
BRANCH   1  12
ATOM     12  C   UNL d   1      59.640  -8.482  35.427  0.00  0.00     0.283 C 
ATOM     13  O   UNL d   1      59.764  -8.928  36.044  0.00  0.00    -0.265 OA
ATOM     14  N   UNL d   1      59.402  -7.711  35.568  0.00  0.00    -0.205 NA
ATOM     15  C   UNL d   1      59.301  -7.430  36.327  0.00  0.00     0.123 C 
ENDBRANCH   1  12
BRANCH  10  16
ATOM     16  O   UNL d   1      58.125  -9.818  31.659  0.00  0.00    -0.328 OA
ATOM     17  C   UNL d   1      57.285  -9.803  31.788  0.00  0.00     0.181 C 
ENDBRANCH  10  16
TORSDOF 2
ENDMDL
