MODEL 1
REMARK VINA RESULT:      -1.7      0.000      0.000
REMARK  6 active torsions:
REMARK  status: ('A' for Active; 'I' for Inactive)
REMARK    1  A    between atoms: C_16  and  N_1 
REMARK    2  A    between atoms: C_11  and  C_2 
REMARK    3  A    between atoms: S_15  and  C_3 
REMARK    4  A    between atoms: C_8  and  C_11 
REMARK    5  A    between atoms: C_13  and  C_17 
REMARK       I    between atoms: N_14  and  C_13 
REMARK    6  A    between atoms: C_17  and  S_15 
ROOT
ATOM      1  N   UNL d   1      58.003  -0.959  30.207  0.00  0.00    -0.269 N 
ATOM      2  C   UNL d   1      57.544  -0.819  30.886  0.00  0.00     0.172 A 
ATOM      3  C   UNL d   1      58.006  -1.772  30.079  0.00  0.00     0.201 A 
ATOM      4  N   UNL d   1      57.273  -1.539  31.165  0.00  0.00    -0.128 NA
ATOM      5  N   UNL d   1      57.563  -2.130  30.660  0.00  0.00    -0.121 NA
ENDROOT
BRANCH   3   6
ATOM      6  S   UNL d   1      58.397  -2.175  29.457  0.00  0.00    -0.043 SA
BRANCH   6   7
ATOM      7  C   UNL d   1      58.917  -2.802  29.632  0.00  0.00     0.099 C 
BRANCH   7   8
ATOM      8  C   UNL d   1      58.997  -3.420  29.096  0.00  0.00     0.271 C 
ATOM      9  N   UNL d   1      59.708  -3.836  29.048  0.00  0.00    -0.272 N 
ATOM     10  C   UNL d   1      59.792  -4.459  28.508  0.00  0.00     0.083 A 
ATOM     11  C   UNL d   1      60.342  -3.634  29.538  0.00  0.00     0.083 A 
ATOM     12  C   UNL d   1      60.502  -4.875  28.460  0.00  0.00     0.019 A 
ATOM     13  C   UNL d   1      61.133  -4.667  28.954  0.00  0.00     0.003 A 
ATOM     14  C   UNL d   1      61.052  -4.050  29.489  0.00  0.00     0.019 A 
ATOM     15  O   UNL d   1      58.363  -3.629  28.600  0.00  0.00    -0.266 OA
ENDBRANCH   7   8
ENDBRANCH   6   7
ENDBRANCH   3   6
BRANCH   1  16
ATOM     16  C   UNL d   1      58.394  -0.416  29.729  0.00  0.00     0.067 A 
ATOM     17  C   UNL d   1      59.149  -0.143  29.957  0.00  0.00     0.018 A 
ATOM     18  C   UNL d   1      59.552   0.406  29.480  0.00  0.00     0.002 A 
ATOM     19  C   UNL d   1      59.191   0.670  28.785  0.00  0.00     0.000 A 
ATOM     20  C   UNL d   1      58.453   0.406  28.558  0.00  0.00     0.002 A 
ATOM     21  C   UNL d   1      58.050  -0.143  29.035  0.00  0.00     0.018 A 
ENDBRANCH   1  16
BRANCH   2  22
ATOM     22  C   UNL d   1      57.440  -0.038  31.154  0.00  0.00     0.059 C 
BRANCH  22  23
ATOM     23  C   UNL d   1      57.136   0.096  31.917  0.00  0.00     0.094 A 
ATOM     24  C   UNL d   1      56.321   0.103  32.049  0.00  0.00     0.082 A 
ATOM     25  C   UNL d   1      56.030   0.236  32.806  0.00  0.00     0.285 A 
ATOM     26  O   UNL d   1      55.215   0.243  32.938  0.00  0.00    -0.265 OA
ATOM     27  N   UNL d   1      56.552   0.363  33.431  0.00  0.00    -0.152 NA
ATOM     28  C   UNL d   1      57.355   0.357  33.307  0.00  0.00     0.371 A 
ATOM     29  N   UNL d   1      57.658   0.223  32.542  0.00  0.00    -0.191 NA
ATOM     30  O   UNL d   1      57.867   0.488  33.960  0.00  0.00    -0.242 OA
ENDBRANCH  22  23
ENDBRANCH   2  22
TORSDOF 6
ENDMDL
