MODEL 1
REMARK VINA RESULT:      49.6      0.000      0.000
REMARK  2 active torsions:
REMARK  status: ('A' for Active; 'I' for Inactive)
REMARK    1  A    between atoms: C_13  and  C_5 
REMARK    2  A    between atoms: C_16  and  C_13 
ROOT
ATOM      1  C   UNL d   1      59.675  49.622  50.065  0.00  0.00     0.111 A 
ATOM      2  C   UNL d   1      60.246  49.654  51.371  0.00  0.00     0.062 A 
ATOM      3  C   UNL d   1      60.422  49.625  49.738  0.00  0.00     0.213 A 
ATOM      4  C   UNL d   1      60.993  49.656  51.045  0.00  0.00     0.101 A 
ATOM      5  C   UNL d   1      59.586  49.637  50.875  0.00  0.00     0.018 A 
ATOM      6  O   UNL d   1      61.076  49.642  50.224  0.00  0.00    -0.288 OA
ATOM      7  C   UNL d   1      60.157  49.669  52.181  0.00  0.00     0.194 A 
ATOM      8  C   UNL d   1      59.013  49.604  49.523  0.00  0.00     0.105 C 
ATOM      9  N   UNL d   1      58.345  49.586  49.007  0.00  0.00    -0.191 NA
ATOM     10  C   UNL d   1      61.647  49.673  51.530  0.00  0.00     0.002 A 
ATOM     11  C   UNL d   1      61.565  49.688  52.354  0.00  0.00     0.042 A 
ATOM     12  C   UNL d   1      60.818  49.686  52.680  0.00  0.00     0.019 A 
ATOM     13  O   UNL d   1      59.393  49.666  52.515  0.00  0.00    -0.287 OA
ATOM     14  N   UNL d   1      60.475  49.609  48.885  0.00  0.00    -0.120 N 
ATOM     15  C   UNL d   1      61.677  49.705  53.160  0.00  0.00     0.009 C 
ATOM     16  C   UNL d   1      62.311  49.703  52.673  0.00  0.00     0.009 C 
ENDROOT
BRANCH   5  17
ATOM     17  C   UNL d   1      58.822  49.634  51.209  0.00  0.00     0.001 C 
BRANCH  17  18
ATOM     18  C   UNL d   1      58.171  49.448  50.749  0.00  0.00     0.000 A 
ATOM     19  C   UNL d   1      57.536  49.015  51.077  0.00  0.00     0.000 A 
ATOM     20  C   UNL d   1      56.871  48.827  50.600  0.00  0.00     0.000 A 
ATOM     21  C   UNL d   1      56.839  49.057  49.839  0.00  0.00     0.000 A 
ATOM     22  C   UNL d   1      57.469  49.493  49.496  0.00  0.00     0.000 A 
ATOM     23  C   UNL d   1      58.137  49.689  49.950  0.00  0.00     0.000 A 
ENDBRANCH  17  18
ENDBRANCH   5  17
TORSDOF 2
ENDMDL
