MODEL 1
REMARK VINA RESULT:      -3.2      0.000      0.000
REMARK  3 active torsions:
REMARK  status: ('A' for Active; 'I' for Inactive)
REMARK    1  A    between atoms: C_9  and  C_5 
REMARK    2  A    between atoms: C_10  and  C_6 
REMARK    3  A    between atoms: O_16  and  C_13 
ROOT
ATOM      1  N   UNL d   1      32.025  16.802 -23.711  0.00  0.00    -0.205 N 
ATOM      2  C   UNL d   1      32.836  16.682 -23.808  0.00  0.00     0.197 A 
ATOM      3  N   UNL d   1      33.227  17.380 -23.585  0.00  0.00    -0.200 NA
ATOM      4  N   UNL d   1      31.913  17.570 -23.431  0.00  0.00    -0.144 NA
ATOM      5  C   UNL d   1      32.651  17.926 -23.353  0.00  0.00     0.184 A 
ATOM      6  C   UNL d   1      31.629  16.108 -23.933  0.00  0.00     0.092 A 
ATOM      7  S   UNL d   1      32.944  15.906 -24.091  0.00  0.00    -0.046 SA
ATOM      8  C   UNL d   1      32.194  15.555 -24.166  0.00  0.00     0.058 A 
ENDROOT
BRANCH   5   9
ATOM      9  C   UNL d   1      32.798  18.687 -23.091  0.00  0.00     0.038 A 
ATOM     10  C   UNL d   1      32.897  18.835 -22.291  0.00  0.00     0.005 A 
ATOM     11  C   UNL d   1      33.045  19.603 -22.025  0.00  0.00     0.024 A 
ATOM     12  C   UNL d   1      33.093  20.220 -22.561  0.00  0.00     0.094 A 
ATOM     13  C   UNL d   1      32.993  20.076 -23.373  0.00  0.00     0.024 A 
ATOM     14  C   UNL d   1      32.846  19.309 -23.634  0.00  0.00     0.005 A 
BRANCH  12  15
ATOM     15  O   UNL d   1      33.241  20.988 -22.294  0.00  0.00    -0.328 OA
ATOM     16  C   UNL d   1      32.836  21.279 -21.630  0.00  0.00     0.181 C 
ENDBRANCH  12  15
ENDBRANCH   5   9
BRANCH   6  17
ATOM     17  C   UNL d   1      30.808  15.997 -23.918  0.00  0.00     0.018 A 
ATOM     18  C   UNL d   1      30.341  16.231 -24.555  0.00  0.00     0.002 A 
ATOM     19  C   UNL d   1      29.525  16.120 -24.537  0.00  0.00     0.000 A 
ATOM     20  C   UNL d   1      29.166  15.768 -23.875  0.00  0.00     0.000 A 
ATOM     21  C   UNL d   1      29.632  15.534 -23.238  0.00  0.00     0.000 A 
ATOM     22  C   UNL d   1      30.449  15.644 -23.252  0.00  0.00     0.002 A 
ENDBRANCH   6  17
TORSDOF 3
ENDMDL
MODEL 2
REMARK VINA RESULT:      -2.8      2.584      5.347
REMARK  3 active torsions:
REMARK  status: ('A' for Active; 'I' for Inactive)
REMARK    1  A    between atoms: C_9  and  C_5 
REMARK    2  A    between atoms: C_10  and  C_6 
REMARK    3  A    between atoms: O_16  and  C_13 
ROOT
ATOM      1  N   UNL d   1      32.989  20.756 -21.693  0.00  0.00    -0.205 N 
ATOM      2  C   UNL d   1      33.174  20.144 -21.170  0.00  0.00     0.197 A 
ATOM      3  N   UNL d   1      33.225  19.441 -21.607  0.00  0.00    -0.200 NA
ATOM      4  N   UNL d   1      32.926  20.434 -22.450  0.00  0.00    -0.144 NA
ATOM      5  C   UNL d   1      33.071  19.625 -22.398  0.00  0.00     0.184 A 
ATOM      6  C   UNL d   1      32.937  21.463 -21.261  0.00  0.00     0.092 A 
ATOM      7  S   UNL d   1      33.237  20.474 -20.408  0.00  0.00    -0.046 SA
ATOM      8  C   UNL d   1      33.089  21.291 -20.470  0.00  0.00     0.058 A 
ENDROOT
BRANCH   5   9
ATOM      9  C   UNL d   1      33.065  19.091 -23.017  0.00  0.00     0.038 A 
ATOM     10  C   UNL d   1      33.191  19.350 -23.786  0.00  0.00     0.005 A 
ATOM     11  C   UNL d   1      33.186  18.812 -24.412  0.00  0.00     0.024 A 
ATOM     12  C   UNL d   1      33.053  18.017 -24.268  0.00  0.00     0.094 A 
ATOM     13  C   UNL d   1      32.924  17.749 -23.492  0.00  0.00     0.024 A 
ATOM     14  C   UNL d   1      32.931  18.288 -22.871  0.00  0.00     0.005 A 
BRANCH  12  15
ATOM     15  O   UNL d   1      33.047  17.479 -24.896  0.00  0.00    -0.328 OA
ATOM     16  C   UNL d   1      32.356  17.051 -25.066  0.00  0.00     0.181 C 
ENDBRANCH  12  15
ENDBRANCH   5   9
BRANCH   6  17
ATOM     17  C   UNL d   1      32.762  22.208 -21.578  0.00  0.00     0.018 A 
ATOM     18  C   UNL d   1      32.120  22.643 -21.299  0.00  0.00     0.002 A 
ATOM     19  C   UNL d   1      31.948  23.384 -21.616  0.00  0.00     0.000 A 
ATOM     20  C   UNL d   1      32.423  23.698 -22.222  0.00  0.00     0.000 A 
ATOM     21  C   UNL d   1      33.064  23.265 -22.501  0.00  0.00     0.000 A 
ATOM     22  C   UNL d   1      33.240  22.523 -22.186  0.00  0.00     0.002 A 
ENDBRANCH   6  17
TORSDOF 3
ENDMDL
MODEL 3
REMARK VINA RESULT:      -2.5      2.884      5.849
REMARK  3 active torsions:
REMARK  status: ('A' for Active; 'I' for Inactive)
REMARK    1  A    between atoms: C_9  and  C_5 
REMARK    2  A    between atoms: C_10  and  C_6 
REMARK    3  A    between atoms: O_16  and  C_13 
ROOT
ATOM      1  N   UNL d   1      32.962  22.154 -22.386  0.00  0.00    -0.205 N 
ATOM      2  C   UNL d   1      33.164  22.233 -23.183  0.00  0.00     0.197 A 
ATOM      3  N   UNL d   1      33.241  21.471 -23.504  0.00  0.00    -0.200 NA
ATOM      4  N   UNL d   1      32.914  21.348 -22.214  0.00  0.00    -0.144 NA
ATOM      5  C   UNL d   1      33.085  20.928 -22.901  0.00  0.00     0.184 A 
ATOM      6  C   UNL d   1      32.884  22.912 -22.059  0.00  0.00     0.092 A 
ATOM      7  S   UNL d   1      33.212  23.047 -23.351  0.00  0.00    -0.046 SA
ATOM      8  C   UNL d   1      33.037  23.463 -22.652  0.00  0.00     0.058 A 
ENDROOT
BRANCH   5   9
ATOM      9  C   UNL d   1      33.100  20.114 -22.980  0.00  0.00     0.038 A 
ATOM     10  C   UNL d   1      33.100  19.635 -22.314  0.00  0.00     0.005 A 
ATOM     11  C   UNL d   1      33.115  18.813 -22.391  0.00  0.00     0.024 A 
ATOM     12  C   UNL d   1      33.131  18.473 -23.136  0.00  0.00     0.094 A 
ATOM     13  C   UNL d   1      33.132  18.952 -23.815  0.00  0.00     0.024 A 
ATOM     14  C   UNL d   1      33.116  19.771 -23.732  0.00  0.00     0.005 A 
BRANCH  12  15
ATOM     15  O   UNL d   1      33.146  17.650 -23.213  0.00  0.00    -0.328 OA
ATOM     16  C   UNL d   1      32.455  17.243 -23.430  0.00  0.00     0.181 C 
ENDBRANCH  12  15
ENDBRANCH   5   9
BRANCH   6  17
ATOM     17  C   UNL d   1      32.686  23.079 -21.272  0.00  0.00     0.018 A 
ATOM     18  C   UNL d   1      31.945  23.386 -21.081  0.00  0.00     0.002 A 
ATOM     19  C   UNL d   1      31.752  23.550 -20.297  0.00  0.00     0.000 A 
ATOM     20  C   UNL d   1      32.303  23.407 -19.692  0.00  0.00     0.000 A 
ATOM     21  C   UNL d   1      33.043  23.100 -19.882  0.00  0.00     0.000 A 
ATOM     22  C   UNL d   1      33.241  22.934 -20.665  0.00  0.00     0.002 A 
ENDBRANCH   6  17
TORSDOF 3
ENDMDL
MODEL 4
REMARK VINA RESULT:      -2.0      1.942      4.568
REMARK  3 active torsions:
REMARK  status: ('A' for Active; 'I' for Inactive)
REMARK    1  A    between atoms: C_9  and  C_5 
REMARK    2  A    between atoms: C_10  and  C_6 
REMARK    3  A    between atoms: O_16  and  C_13 
ROOT
ATOM      1  N   UNL d   1      32.352  18.900 -23.994  0.00  0.00    -0.205 N 
ATOM      2  C   UNL d   1      32.402  18.832 -24.816  0.00  0.00     0.197 A 
ATOM      3  N   UNL d   1      31.890  18.224 -25.054  0.00  0.00    -0.200 NA
ATOM      4  N   UNL d   1      31.813  18.337 -23.725  0.00  0.00    -0.144 NA
ATOM      5  C   UNL d   1      31.528  17.921 -24.376  0.00  0.00     0.184 A 
ATOM      6  C   UNL d   1      32.863  19.507 -23.750  0.00  0.00     0.092 A 
ATOM      7  S   UNL d   1      32.948  19.402 -25.083  0.00  0.00    -0.046 SA
ATOM      8  C   UNL d   1      33.230  19.816 -24.419  0.00  0.00     0.058 A 
ENDROOT
BRANCH   5   9
ATOM      9  C   UNL d   1      30.981  17.312 -24.361  0.00  0.00     0.038 A 
ATOM     10  C   UNL d   1      31.082  16.681 -23.846  0.00  0.00     0.005 A 
ATOM     11  C   UNL d   1      30.531  16.066 -23.830  0.00  0.00     0.024 A 
ATOM     12  C   UNL d   1      29.882  16.084 -24.329  0.00  0.00     0.094 A 
ATOM     13  C   UNL d   1      29.775  16.721 -24.852  0.00  0.00     0.024 A 
ATOM     14  C   UNL d   1      30.326  17.332 -24.865  0.00  0.00     0.005 A 
BRANCH  12  15
ATOM     15  O   UNL d   1      29.331  15.468 -24.312  0.00  0.00    -0.328 OA
ATOM     16  C   UNL d   1      28.522  15.640 -24.233  0.00  0.00     0.181 C 
ENDBRANCH  12  15
ENDBRANCH   5   9
BRANCH   6  17
ATOM     17  C   UNL d   1      32.977  19.753 -22.967  0.00  0.00     0.018 A 
ATOM     18  C   UNL d   1      32.945  20.552 -22.769  0.00  0.00     0.002 A 
ATOM     19  C   UNL d   1      33.060  20.792 -21.989  0.00  0.00     0.000 A 
ATOM     20  C   UNL d   1      33.209  20.229 -21.396  0.00  0.00     0.000 A 
ATOM     21  C   UNL d   1      33.241  19.431 -21.593  0.00  0.00     0.000 A 
ATOM     22  C   UNL d   1      33.127  19.185 -22.373  0.00  0.00     0.002 A 
ENDBRANCH   6  17
TORSDOF 3
ENDMDL
MODEL 5
REMARK VINA RESULT:      -1.0      3.316      6.452
REMARK  3 active torsions:
REMARK  status: ('A' for Active; 'I' for Inactive)
REMARK    1  A    between atoms: C_9  and  C_5 
REMARK    2  A    between atoms: C_10  and  C_6 
REMARK    3  A    between atoms: O_16  and  C_13 
ROOT
ATOM      1  N   UNL d   1      32.705  22.391 -20.756  0.00  0.00    -0.205 N 
ATOM      2  C   UNL d   1      32.469  22.675 -21.494  0.00  0.00     0.197 A 
ATOM      3  N   UNL d   1      32.509  22.046 -22.034  0.00  0.00    -0.200 NA
ATOM      4  N   UNL d   1      32.890  21.591 -20.837  0.00  0.00    -0.144 NA
ATOM      5  C   UNL d   1      32.770  21.378 -21.623  0.00  0.00     0.184 A 
ATOM      6  C   UNL d   1      32.667  23.016 -20.211  0.00  0.00     0.092 A 
ATOM      7  S   UNL d   1      32.283  23.482 -21.407  0.00  0.00    -0.046 SA
ATOM      8  C   UNL d   1      32.407  23.687 -20.610  0.00  0.00     0.058 A 
ENDROOT
BRANCH   5   9
ATOM      9  C   UNL d   1      32.887  20.636 -21.947  0.00  0.00     0.038 A 
ATOM     10  C   UNL d   1      33.075  20.000 -21.464  0.00  0.00     0.005 A 
ATOM     11  C   UNL d   1      33.193  19.251 -21.790  0.00  0.00     0.024 A 
ATOM     12  C   UNL d   1      33.122  19.140 -22.598  0.00  0.00     0.094 A 
ATOM     13  C   UNL d   1      32.932  19.780 -23.093  0.00  0.00     0.024 A 
ATOM     14  C   UNL d   1      32.815  20.525 -22.764  0.00  0.00     0.005 A 
BRANCH  12  15
ATOM     15  O   UNL d   1      33.241  18.389 -22.924  0.00  0.00    -0.328 OA
ATOM     16  C   UNL d   1      32.646  18.043 -23.388  0.00  0.00     0.181 C 
ENDBRANCH  12  15
ENDBRANCH   5   9
BRANCH   6  17
ATOM     17  C   UNL d   1      32.859  22.965 -19.406  0.00  0.00     0.018 A 
ATOM     18  C   UNL d   1      33.041  22.238 -19.063  0.00  0.00     0.002 A 
ATOM     19  C   UNL d   1      33.232  22.191 -18.263  0.00  0.00     0.000 A 
ATOM     20  C   UNL d   1      33.241  22.878 -17.795  0.00  0.00     0.000 A 
ATOM     21  C   UNL d   1      33.058  23.604 -18.137  0.00  0.00     0.000 A 
ATOM     22  C   UNL d   1      32.867  23.656 -18.938  0.00  0.00     0.002 A 
ENDBRANCH   6  17
TORSDOF 3
ENDMDL
MODEL 6
REMARK VINA RESULT:      -0.8      4.678      6.225
REMARK  3 active torsions:
REMARK  status: ('A' for Active; 'I' for Inactive)
REMARK    1  A    between atoms: C_9  and  C_5 
REMARK    2  A    between atoms: C_10  and  C_6 
REMARK    3  A    between atoms: O_16  and  C_13 
ROOT
ATOM      1  N   UNL d   1      32.811  21.951 -21.397  0.00  0.00    -0.205 N 
ATOM      2  C   UNL d   1      32.851  21.211 -21.033  0.00  0.00     0.197 A 
ATOM      3  N   UNL d   1      32.905  21.332 -20.213  0.00  0.00    -0.200 NA
ATOM      4  N   UNL d   1      32.841  22.527 -20.806  0.00  0.00    -0.144 NA
ATOM      5  C   UNL d   1      32.899  22.147 -20.079  0.00  0.00     0.184 A 
ATOM      6  C   UNL d   1      32.757  21.838 -22.217  0.00  0.00     0.092 A 
ATOM      7  S   UNL d   1      32.821  20.634 -21.632  0.00  0.00    -0.046 SA
ATOM      8  C   UNL d   1      32.762  21.027 -22.363  0.00  0.00     0.058 A 
ENDROOT
BRANCH   5   9
ATOM      9  C   UNL d   1      32.943  22.507 -19.346  0.00  0.00     0.038 A 
ATOM     10  C   UNL d   1      33.176  22.075 -18.688  0.00  0.00     0.005 A 
ATOM     11  C   UNL d   1      33.221  22.437 -17.947  0.00  0.00     0.024 A 
ATOM     12  C   UNL d   1      33.032  23.230 -17.866  0.00  0.00     0.094 A 
ATOM     13  C   UNL d   1      32.796  23.673 -18.528  0.00  0.00     0.024 A 
ATOM     14  C   UNL d   1      32.752  23.308 -19.265  0.00  0.00     0.005 A 
BRANCH  12  15
ATOM     15  O   UNL d   1      33.077  23.591 -17.124  0.00  0.00    -0.328 OA
ATOM     16  C   UNL d   1      33.119  23.123 -16.439  0.00  0.00     0.181 C 
ENDBRANCH  12  15
ENDBRANCH   5   9
BRANCH   6  17
ATOM     17  C   UNL d   1      32.706  22.440 -22.784  0.00  0.00     0.018 A 
ATOM     18  C   UNL d   1      32.150  23.044 -22.706  0.00  0.00     0.002 A 
ATOM     19  C   UNL d   1      32.102  23.641 -23.272  0.00  0.00     0.000 A 
ATOM     20  C   UNL d   1      32.616  23.638 -23.926  0.00  0.00     0.000 A 
ATOM     21  C   UNL d   1      33.170  23.036 -24.004  0.00  0.00     0.000 A 
ATOM     22  C   UNL d   1      33.222  22.436 -23.440  0.00  0.00     0.002 A 
ENDBRANCH   6  17
TORSDOF 3
ENDMDL
MODEL 7
REMARK VINA RESULT:      -0.6      3.148      4.525
REMARK  3 active torsions:
REMARK  status: ('A' for Active; 'I' for Inactive)
REMARK    1  A    between atoms: C_9  and  C_5 
REMARK    2  A    between atoms: C_10  and  C_6 
REMARK    3  A    between atoms: O_16  and  C_13 
ROOT
ATOM      1  N   UNL d   1      33.209  21.072 -22.968  0.00  0.00    -0.205 N 
ATOM      2  C   UNL d   1      33.212  21.805 -23.347  0.00  0.00     0.197 A 
ATOM      3  N   UNL d   1      33.194  22.395 -22.763  0.00  0.00    -0.200 NA
ATOM      4  N   UNL d   1      33.190  21.205 -22.154  0.00  0.00    -0.144 NA
ATOM      5  C   UNL d   1      33.180  22.018 -22.027  0.00  0.00     0.184 A 
ATOM      6  C   UNL d   1      33.227  20.478 -23.548  0.00  0.00     0.092 A 
ATOM      7  S   UNL d   1      33.232  21.666 -24.168  0.00  0.00    -0.046 SA
ATOM      8  C   UNL d   1      33.241  20.842 -24.286  0.00  0.00     0.058 A 
ENDROOT
BRANCH   5   9
ATOM      9  C   UNL d   1      33.161  22.395 -21.301  0.00  0.00     0.038 A 
ATOM     10  C   UNL d   1      33.066  23.209 -21.263  0.00  0.00     0.005 A 
ATOM     11  C   UNL d   1      33.046  23.592 -20.531  0.00  0.00     0.024 A 
ATOM     12  C   UNL d   1      33.121  23.159 -19.841  0.00  0.00     0.094 A 
ATOM     13  C   UNL d   1      33.218  22.334 -19.873  0.00  0.00     0.024 A 
ATOM     14  C   UNL d   1      33.237  21.957 -20.604  0.00  0.00     0.005 A 
BRANCH  12  15
ATOM     15  O   UNL d   1      33.101  23.542 -19.109  0.00  0.00    -0.328 OA
ATOM     16  C   UNL d   1      32.972  23.102 -18.416  0.00  0.00     0.181 C 
ENDBRANCH  12  15
ENDBRANCH   5   9
BRANCH   6  17
ATOM     17  C   UNL d   1      33.230  19.662 -23.400  0.00  0.00     0.018 A 
ATOM     18  C   UNL d   1      33.235  19.123 -24.024  0.00  0.00     0.002 A 
ATOM     19  C   UNL d   1      33.238  18.313 -23.874  0.00  0.00     0.000 A 
ATOM     20  C   UNL d   1      33.236  18.033 -23.090  0.00  0.00     0.000 A 
ATOM     21  C   UNL d   1      33.231  18.571 -22.468  0.00  0.00     0.000 A 
ATOM     22  C   UNL d   1      33.228  19.383 -22.613  0.00  0.00     0.002 A 
ENDBRANCH   6  17
TORSDOF 3
ENDMDL
MODEL 8
REMARK VINA RESULT:      -0.3      4.205      6.041
REMARK  3 active torsions:
REMARK  status: ('A' for Active; 'I' for Inactive)
REMARK    1  A    between atoms: C_9  and  C_5 
REMARK    2  A    between atoms: C_10  and  C_6 
REMARK    3  A    between atoms: O_16  and  C_13 
ROOT
ATOM      1  N   UNL d   1      32.810  22.311 -21.337  0.00  0.00    -0.205 N 
ATOM      2  C   UNL d   1      32.742  23.132 -21.393  0.00  0.00     0.197 A 
ATOM      3  N   UNL d   1      32.721  23.441 -20.623  0.00  0.00    -0.200 NA
ATOM      4  N   UNL d   1      32.832  22.112 -20.536  0.00  0.00    -0.144 NA
ATOM      5  C   UNL d   1      32.776  22.805 -20.097  0.00  0.00     0.184 A 
ATOM      6  C   UNL d   1      32.832  21.996 -22.104  0.00  0.00     0.092 A 
ATOM      7  S   UNL d   1      32.721  23.328 -22.203  0.00  0.00    -0.046 SA
ATOM      8  C   UNL d   1      32.777  22.621 -22.638  0.00  0.00     0.058 A 
ENDROOT
BRANCH   5   9
ATOM      9  C   UNL d   1      32.776  22.864 -19.281  0.00  0.00     0.038 A 
ATOM     10  C   UNL d   1      33.039  22.236 -18.823  0.00  0.00     0.005 A 
ATOM     11  C   UNL d   1      33.040  22.293 -17.999  0.00  0.00     0.024 A 
ATOM     12  C   UNL d   1      32.777  22.979 -17.636  0.00  0.00     0.094 A 
ATOM     13  C   UNL d   1      32.510  23.618 -18.095  0.00  0.00     0.024 A 
ATOM     14  C   UNL d   1      32.511  23.557 -18.915  0.00  0.00     0.005 A 
BRANCH  12  15
ATOM     15  O   UNL d   1      32.778  23.036 -16.812  0.00  0.00    -0.328 OA
ATOM     16  C   UNL d   1      33.240  23.617 -16.439  0.00  0.00     0.181 C 
ENDBRANCH  12  15
ENDBRANCH   5   9
BRANCH   6  17
ATOM     17  C   UNL d   1      32.898  21.192 -22.292  0.00  0.00     0.018 A 
ATOM     18  C   UNL d   1      33.041  20.633 -21.704  0.00  0.00     0.002 A 
ATOM     19  C   UNL d   1      33.106  19.834 -21.895  0.00  0.00     0.000 A 
ATOM     20  C   UNL d   1      33.027  19.586 -22.685  0.00  0.00     0.000 A 
ATOM     21  C   UNL d   1      32.884  20.143 -23.272  0.00  0.00     0.000 A 
ATOM     22  C   UNL d   1      32.818  20.944 -23.086  0.00  0.00     0.002 A 
ENDBRANCH   6  17
TORSDOF 3
ENDMDL
