MODEL 1
REMARK VINA RESULT:      -2.0      0.000      0.000
REMARK  4 active torsions:
REMARK  status: ('A' for Active; 'I' for Inactive)
REMARK    1  A    between atoms: C_2  and  N_1 
REMARK    2  A    between atoms: C_12  and  C_5 
REMARK    3  A    between atoms: O_20  and  C_12 
REMARK    4  A    between atoms: C_22  and  O_20 
ROOT
ATOM      1  N   UNL d   1      58.656   0.233  30.173  0.00  0.00    -0.237 N 
ATOM      2  C   UNL d   1      57.874   0.483  30.040  0.00  0.00     0.263 A 
ATOM      3  C   UNL d   1      58.751   0.082  30.978  0.00  0.00     0.263 A 
ATOM      4  C   UNL d   1      58.028   0.236  31.357  0.00  0.00     0.039 A 
ATOM      5  C   UNL d   1      57.487   0.485  30.770  0.00  0.00     0.039 A 
ATOM      6  C   UNL d   1      57.789   0.185  32.149  0.00  0.00     0.049 A 
ATOM      7  C   UNL d   1      56.706   0.682  30.981  0.00  0.00     0.049 A 
ATOM      8  C   UNL d   1      57.008   0.383  32.360  0.00  0.00    -0.026 A 
ATOM      9  C   UNL d   1      56.466   0.631  31.778  0.00  0.00    -0.026 A 
ATOM     10  C   UNL d   1      57.587   0.357  31.411  0.00  0.00     0.018 A 
ATOM     11  O   UNL d   1      59.416  -0.167  31.331  0.00  0.00    -0.267 OA
ATOM     12  O   UNL d   1      57.555   0.682  29.348  0.00  0.00    -0.267 OA
ENDROOT
BRANCH   1  13
ATOM     13  C   UNL d   1      59.219   0.154  29.607  0.00  0.00     0.105 A 
ATOM     14  C   UNL d   1      59.302  -0.474  29.123  0.00  0.00     0.086 A 
ATOM     15  C   UNL d   1      59.922  -0.331  28.649  0.00  0.00     0.014 A 
ATOM     16  C   UNL d   1      60.215   0.384  28.845  0.00  0.00     0.031 A 
ATOM     17  S   UNL d   1      59.782   0.682  29.435  0.00  0.00    -0.069 SA
ATOM     18  C   UNL d   1      60.847   0.674  28.457  0.00  0.00     0.007 C 
BRANCH  14  19
ATOM     19  C   UNL d   1      58.850  -1.121  29.117  0.00  0.00     0.302 C 
ATOM     20  O   UNL d   1      58.137  -1.107  28.769  0.00  0.00    -0.259 OA
BRANCH  19  21
ATOM     21  O   UNL d   1      59.107  -1.793  29.462  0.00  0.00    -0.271 OA
BRANCH  21  22
ATOM     22  C   UNL d   1      58.964  -2.445  29.027  0.00  0.00     0.126 C 
ATOM     23  C   UNL d   1      59.119  -3.161  29.330  0.00  0.00     0.029 C 
ENDBRANCH  21  22
ENDBRANCH  19  21
ENDBRANCH  14  19
ENDBRANCH   1  13
TORSDOF 4
ENDMDL
MODEL 2
REMARK VINA RESULT:      -1.7      0.140      1.116
REMARK  4 active torsions:
REMARK  status: ('A' for Active; 'I' for Inactive)
REMARK    1  A    between atoms: C_2  and  N_1 
REMARK    2  A    between atoms: C_12  and  C_5 
REMARK    3  A    between atoms: O_20  and  C_12 
REMARK    4  A    between atoms: C_22  and  O_20 
ROOT
ATOM      1  N   UNL d   1      58.713   0.261  30.252  0.00  0.00    -0.237 N 
ATOM      2  C   UNL d   1      58.798   0.131  31.069  0.00  0.00     0.263 A 
ATOM      3  C   UNL d   1      57.935   0.487  30.101  0.00  0.00     0.263 A 
ATOM      4  C   UNL d   1      57.525   0.500  30.824  0.00  0.00     0.039 A 
ATOM      5  C   UNL d   1      58.066   0.278  31.421  0.00  0.00     0.039 A 
ATOM      6  C   UNL d   1      56.740   0.682  31.019  0.00  0.00     0.049 A 
ATOM      7  C   UNL d   1      57.817   0.238  32.215  0.00  0.00     0.049 A 
ATOM      8  C   UNL d   1      56.491   0.642  31.812  0.00  0.00    -0.026 A 
ATOM      9  C   UNL d   1      57.027   0.421  32.411  0.00  0.00    -0.026 A 
ATOM     10  C   UNL d   1      57.447   0.461  31.276  0.00  0.00     0.018 A 
ATOM     11  O   UNL d   1      57.629   0.663  29.391  0.00  0.00    -0.267 OA
ATOM     12  O   UNL d   1      59.454  -0.093  31.443  0.00  0.00    -0.267 OA
ENDROOT
BRANCH   1  13
ATOM     13  C   UNL d   1      59.296   0.180  29.707  0.00  0.00     0.105 A 
ATOM     14  C   UNL d   1      59.366  -0.426  29.193  0.00  0.00     0.086 A 
ATOM     15  C   UNL d   1      60.014  -0.295  28.755  0.00  0.00     0.014 A 
ATOM     16  C   UNL d   1      60.337   0.391  29.002  0.00  0.00     0.031 A 
ATOM     17  S   UNL d   1      59.895   0.682  29.588  0.00  0.00    -0.069 SA
ATOM     18  C   UNL d   1      61.001   0.664  28.656  0.00  0.00     0.007 C 
BRANCH  14  19
ATOM     19  C   UNL d   1      58.879  -1.045  29.133  0.00  0.00     0.302 C 
ATOM     20  O   UNL d   1      58.181  -0.969  28.764  0.00  0.00    -0.259 OA
BRANCH  19  21
ATOM     21  O   UNL d   1      59.086  -1.750  29.443  0.00  0.00    -0.271 OA
BRANCH  21  22
ATOM     22  C   UNL d   1      58.747  -2.369  29.074  0.00  0.00     0.126 C 
ATOM     23  C   UNL d   1      58.929  -3.107  29.296  0.00  0.00     0.029 C 
ENDBRANCH  21  22
ENDBRANCH  19  21
ENDBRANCH  14  19
ENDBRANCH   1  13
TORSDOF 4
ENDMDL
MODEL 3
REMARK VINA RESULT:       0.7      1.632      3.833
REMARK  4 active torsions:
REMARK  status: ('A' for Active; 'I' for Inactive)
REMARK    1  A    between atoms: C_2  and  N_1 
REMARK    2  A    between atoms: C_12  and  C_5 
REMARK    3  A    between atoms: O_20  and  C_12 
REMARK    4  A    between atoms: C_22  and  O_20 
ROOT
ATOM      1  N   UNL d   1      59.116  -1.820  29.085  0.00  0.00    -0.237 N 
ATOM      2  C   UNL d   1      59.900  -1.938  29.337  0.00  0.00     0.263 A 
ATOM      3  C   UNL d   1      58.822  -2.534  28.798  0.00  0.00     0.263 A 
ATOM      4  C   UNL d   1      59.420  -3.107  28.868  0.00  0.00     0.039 A 
ATOM      5  C   UNL d   1      60.087  -2.731  29.203  0.00  0.00     0.039 A 
ATOM      6  C   UNL d   1      59.449  -3.912  28.673  0.00  0.00     0.049 A 
ATOM      7  C   UNL d   1      60.783  -3.165  29.343  0.00  0.00     0.049 A 
ATOM      8  C   UNL d   1      60.146  -4.346  28.813  0.00  0.00    -0.026 A 
ATOM      9  C   UNL d   1      60.813  -3.976  29.147  0.00  0.00    -0.026 A 
ATOM     10  C   UNL d   1      59.829  -3.292  28.967  0.00  0.00     0.018 A 
ATOM     11  O   UNL d   1      58.095  -2.657  28.506  0.00  0.00    -0.267 OA
ATOM     12  O   UNL d   1      60.379  -1.396  29.648  0.00  0.00    -0.267 OA
ENDROOT
BRANCH   1  13
ATOM     13  C   UNL d   1      58.718  -1.124  29.119  0.00  0.00     0.105 A 
ATOM     14  C   UNL d   1      58.317  -0.852  29.753  0.00  0.00     0.086 A 
ATOM     15  C   UNL d   1      58.007  -0.149  29.556  0.00  0.00     0.014 A 
ATOM     16  C   UNL d   1      58.219   0.006  28.803  0.00  0.00     0.031 A 
ATOM     17  S   UNL d   1      58.656  -0.595  28.535  0.00  0.00    -0.069 SA
ATOM     18  C   UNL d   1      57.983   0.682  28.455  0.00  0.00     0.007 C 
BRANCH  14  19
ATOM     19  C   UNL d   1      58.243  -1.217  30.449  0.00  0.00     0.302 C 
ATOM     20  O   UNL d   1      58.882  -1.357  30.896  0.00  0.00    -0.259 OA
BRANCH  19  21
ATOM     21  O   UNL d   1      57.524  -1.445  30.707  0.00  0.00    -0.271 OA
BRANCH  21  22
ATOM     22  C   UNL d   1      57.308  -1.098  31.391  0.00  0.00     0.126 C 
ATOM     23  C   UNL d   1      56.652  -1.337  31.764  0.00  0.00     0.029 C 
ENDBRANCH  21  22
ENDBRANCH  19  21
ENDBRANCH  14  19
ENDBRANCH   1  13
TORSDOF 4
ENDMDL
