MODEL 1
REMARK VINA RESULT:      33.6      0.000      0.000
REMARK  7 active torsions:
REMARK  status: ('A' for Active; 'I' for Inactive)
REMARK    1  A    between atoms: C_6  and  N_2 
REMARK    2  A    between atoms: C_7  and  C_3 
REMARK    3  A    between atoms: C_12  and  C_6 
REMARK    4  A    between atoms: C_21  and  C_7 
REMARK    5  A    between atoms: C_9  and  O_11 
REMARK    6  A    between atoms: O_11  and  C_12 
REMARK    7  A    between atoms: C_19  and  C_21 
ROOT
ATOM      1  N   UNL d   1      14.328  11.781  -2.107  0.00  0.00    -0.227 NA
ATOM      2  N   UNL d   1      14.017  13.105  -2.103  0.00  0.00    -0.287 N 
ATOM      3  C   UNL d   1      13.963  12.395  -2.542  0.00  0.00     0.148 A 
ATOM      4  C   UNL d   1      14.419  12.925  -1.391  0.00  0.00     0.083 A 
ATOM      5  C   UNL d   1      14.608  12.119  -1.396  0.00  0.00     0.099 A 
ATOM      6  C   UNL d   1      14.637  13.391  -0.743  0.00  0.00     0.019 A 
ATOM      7  C   UNL d   1      15.009  11.781  -0.761  0.00  0.00     0.021 A 
ATOM      8  C   UNL d   1      15.039  13.053  -0.107  0.00  0.00     0.002 A 
ATOM      9  C   UNL d   1      15.225  12.247  -0.116  0.00  0.00     0.002 A 
ENDROOT
BRANCH   2  10
ATOM     10  C   UNL d   1      13.731  13.843  -2.323  0.00  0.00     0.108 C 
BRANCH  10  11
ATOM     11  C   UNL d   1      14.251  14.435  -2.584  0.00  0.00     0.142 C 
BRANCH  11  12
ATOM     12  O   UNL d   1      13.962  15.070  -3.014  0.00  0.00    -0.304 OA
BRANCH  12  13
ATOM     13  C   UNL d   1      14.424  15.743  -3.114  0.00  0.00     0.100 A 
ATOM     14  C   UNL d   1      14.614  15.998  -3.870  0.00  0.00     0.025 A 
ATOM     15  C   UNL d   1      15.077  16.674  -3.973  0.00  0.00     0.002 A 
ATOM     16  C   UNL d   1      15.269  16.931  -4.733  0.00  0.00     0.000 C 
ATOM     17  C   UNL d   1      15.350  17.095  -3.312  0.00  0.00     0.000 A 
ATOM     18  C   UNL d   1      15.153  16.831  -2.549  0.00  0.00     0.002 A 
ATOM     19  C   UNL d   1      14.692  16.157  -2.450  0.00  0.00     0.025 A 
ENDBRANCH  12  13
ENDBRANCH  11  12
ENDBRANCH  10  11
ENDBRANCH   2  10
BRANCH   3  20
ATOM     20  C   UNL d   1      13.747  11.929  -3.187  0.00  0.00     0.041 C 
BRANCH  20  21
ATOM     21  C   UNL d   1      13.115  12.156  -3.665  0.00  0.00     0.049 C 
BRANCH  21  22
ATOM     22  C   UNL d   1      13.058  11.868  -4.435  0.00  0.00     0.234 C 
ATOM     23  O   UNL d   1      13.736  11.779  -4.894  0.00  0.00    -0.283 OA
ENDBRANCH  21  22
ENDBRANCH  20  21
ENDBRANCH   3  20
TORSDOF 7
ENDMDL
