MODEL 1
REMARK VINA RESULT:      48.0      0.000      0.000
REMARK  6 active torsions:
REMARK  status: ('A' for Active; 'I' for Inactive)
REMARK    1  A    between atoms: N_3  and  C_1 
REMARK       I    between atoms: C_7  and  N_3 
REMARK    2  A    between atoms: S_13  and  C_4 
REMARK    3  A    between atoms: C_20  and  C_7 
REMARK    4  A    between atoms: C_10  and  C_21 
REMARK       I    between atoms: N_12  and  C_10 
REMARK    5  A    between atoms: C_14  and  N_12 
REMARK    6  A    between atoms: C_21  and  S_13 
ROOT
ATOM      1  C   UNL d   1      13.563  15.154  -4.649  0.00  0.00     0.286 C 
ATOM      2  N   UNL d   1      14.190  15.517  -5.049  0.00  0.00    -0.207 NA
ATOM      3  O   UNL d   1      12.831  15.531  -4.590  0.00  0.00    -0.265 OA
ENDROOT
BRANCH   1   4
ATOM      4  C   UNL d   1      13.678  14.413  -4.312  0.00  0.00     0.100 C 
BRANCH   4   5
ATOM      5  S   UNL d   1      13.164  13.790  -4.499  0.00  0.00    -0.054 SA
BRANCH   5   6
ATOM      6  C   UNL d   1      13.239  13.071  -4.102  0.00  0.00     0.165 A 
ATOM      7  S   UNL d   1      13.617  12.958  -3.384  0.00  0.00    -0.019 SA
ATOM      8  C   UNL d   1      13.568  12.163  -3.182  0.00  0.00     0.219 A 
ATOM      9  N   UNL d   1      13.153  11.779  -3.786  0.00  0.00    -0.120 NA
ATOM     10  N   UNL d   1      12.950  12.339  -4.354  0.00  0.00    -0.133 NA
BRANCH   8  11
ATOM     11  N   UNL d   1      13.879  11.815  -2.498  0.00  0.00    -0.181 NA
ATOM     12  C   UNL d   1      14.147  12.300  -1.884  0.00  0.00     0.281 C 
ATOM     13  O   UNL d   1      14.104  13.117  -1.953  0.00  0.00    -0.265 OA
BRANCH  12  14
ATOM     14  C   UNL d   1      14.458  11.957  -1.200  0.00  0.00     0.058 C 
ATOM     15  C   UNL d   1      13.955  11.780  -0.568  0.00  0.00     0.005 C 
ATOM     16  C   UNL d   1      15.259  11.795  -1.153  0.00  0.00     0.005 C 
ENDBRANCH  12  14
ENDBRANCH   8  11
ENDBRANCH   5   6
ENDBRANCH   4   5
ENDBRANCH   1   4
BRANCH   2  17
ATOM     17  C   UNL d   1      14.076  16.261  -5.388  0.00  0.00     0.087 A 
ATOM     18  C   UNL d   1      14.485  16.910  -5.089  0.00  0.00     0.046 A 
ATOM     19  C   UNL d   1      14.379  17.652  -5.417  0.00  0.00     0.124 A 
ATOM     20  O   UNL d   1      14.792  18.303  -5.115  0.00  0.00    -0.301 OA
ATOM     21  C   UNL d   1      13.858  17.751  -6.052  0.00  0.00     0.123 A 
ATOM     22  C   UNL d   1      14.677  19.051  -5.454  0.00  0.00     0.149 A 
ATOM     23  C   UNL d   1      14.156  19.149  -6.090  0.00  0.00     0.149 A 
ATOM     24  O   UNL d   1      13.743  18.487  -6.389  0.00  0.00    -0.301 OA
ATOM     25  C   UNL d   1      13.448  17.098  -6.351  0.00  0.00     0.028 A 
ATOM     26  C   UNL d   1      13.557  16.352  -6.018  0.00  0.00     0.021 A 
ENDBRANCH   2  17
TORSDOF 6
ENDMDL
MODEL 2
REMARK VINA RESULT:      49.9      1.584      5.232
REMARK  6 active torsions:
REMARK  status: ('A' for Active; 'I' for Inactive)
REMARK    1  A    between atoms: N_3  and  C_1 
REMARK       I    between atoms: C_7  and  N_3 
REMARK    2  A    between atoms: S_13  and  C_4 
REMARK    3  A    between atoms: C_20  and  C_7 
REMARK    4  A    between atoms: C_10  and  C_21 
REMARK       I    between atoms: N_12  and  C_10 
REMARK    5  A    between atoms: C_14  and  N_12 
REMARK    6  A    between atoms: C_21  and  S_13 
ROOT
ATOM      1  C   UNL d   1      13.683  12.019  -3.251  0.00  0.00     0.286 C 
ATOM      2  N   UNL d   1      13.387  12.013  -2.479  0.00  0.00    -0.207 NA
ATOM      3  O   UNL d   1      14.458  12.262  -3.400  0.00  0.00    -0.265 OA
ENDROOT
BRANCH   1   4
ATOM      4  C   UNL d   1      13.196  11.780  -3.869  0.00  0.00     0.100 C 
BRANCH   4   5
ATOM      5  S   UNL d   1      12.769  12.345  -4.301  0.00  0.00    -0.054 SA
BRANCH   5   6
ATOM      6  C   UNL d   1      13.171  12.846  -4.818  0.00  0.00     0.165 A 
ATOM      7  S   UNL d   1      13.154  13.665  -4.802  0.00  0.00    -0.019 SA
ATOM      8  C   UNL d   1      13.627  13.951  -5.410  0.00  0.00     0.219 A 
ATOM      9  N   UNL d   1      13.941  13.297  -5.807  0.00  0.00    -0.120 NA
ATOM     10  N   UNL d   1      13.660  12.615  -5.442  0.00  0.00    -0.133 NA
BRANCH   8  11
ATOM     11  N   UNL d   1      13.762  14.748  -5.587  0.00  0.00    -0.181 NA
ATOM     12  C   UNL d   1      14.047  15.252  -4.995  0.00  0.00     0.281 C 
ATOM     13  O   UNL d   1      14.193  14.962  -4.241  0.00  0.00    -0.265 OA
BRANCH  12  14
ATOM     14  C   UNL d   1      14.183  16.048  -5.168  0.00  0.00     0.058 C 
ATOM     15  C   UNL d   1      14.773  16.458  -4.760  0.00  0.00     0.005 C 
ATOM     16  C   UNL d   1      13.732  16.423  -5.741  0.00  0.00     0.005 C 
ENDBRANCH  12  14
ENDBRANCH   8  11
ENDBRANCH   5   6
ENDBRANCH   4   5
ENDBRANCH   1   4
BRANCH   2  17
ATOM     17  C   UNL d   1      13.876  12.252  -1.858  0.00  0.00     0.087 A 
ATOM     18  C   UNL d   1      14.278  12.970  -1.912  0.00  0.00     0.046 A 
ATOM     19  C   UNL d   1      14.765  13.217  -1.303  0.00  0.00     0.124 A 
ATOM     20  O   UNL d   1      15.167  13.937  -1.359  0.00  0.00    -0.301 OA
ATOM     21  C   UNL d   1      14.854  12.745  -0.629  0.00  0.00     0.123 A 
ATOM     22  C   UNL d   1      15.659  14.180  -0.736  0.00  0.00     0.149 A 
ATOM     23  C   UNL d   1      15.748  13.706  -0.063  0.00  0.00     0.149 A 
ATOM     24  O   UNL d   1      15.338  12.980  -0.014  0.00  0.00    -0.301 OA
ATOM     25  C   UNL d   1      14.450  12.025  -0.577  0.00  0.00     0.028 A 
ATOM     26  C   UNL d   1      13.960  11.779  -1.192  0.00  0.00     0.021 A 
ENDBRANCH   2  17
TORSDOF 6
ENDMDL
