MODEL 1
REMARK VINA RESULT:      18.3      0.000      0.000
REMARK  1 active torsions:
REMARK  status: ('A' for Active; 'I' for Inactive)
REMARK    1  A    between atoms: C_8  and  C_3 
ROOT
ATOM      1  C   UNL d   1      13.574  12.054  -1.941  0.00  0.00     0.199 A 
ATOM      2  C   UNL d   1      14.727  12.554  -2.415  0.00  0.00     0.199 A 
ATOM      3  C   UNL d   1      13.946  12.348  -2.610  0.00  0.00     0.078 A 
ATOM      4  C   UNL d   1      14.103  12.066  -1.310  0.00  0.00     0.042 A 
ATOM      5  C   UNL d   1      14.818  12.376  -1.604  0.00  0.00     0.042 A 
ATOM      6  O   UNL d   1      15.309  12.881  -2.944  0.00  0.00    -0.286 OA
ATOM      7  O   UNL d   1      12.769  11.779  -1.898  0.00  0.00    -0.286 OA
ATOM      8  C   UNL d   1      15.473  12.464  -1.111  0.00  0.00     0.003 A 
ATOM      9  C   UNL d   1      14.049  11.846  -0.525  0.00  0.00     0.003 A 
ATOM     10  C   UNL d   1      15.409  12.238  -0.314  0.00  0.00     0.000 A 
ATOM     11  C   UNL d   1      14.694  11.928  -0.019  0.00  0.00     0.000 A 
ENDROOT
BRANCH   3  12
ATOM     12  C   UNL d   1      13.583  12.418  -3.347  0.00  0.00     0.009 A 
ATOM     13  C   UNL d   1      13.279  13.147  -3.583  0.00  0.00     0.021 A 
ATOM     14  C   UNL d   1      12.919  13.216  -4.314  0.00  0.00     0.099 A 
ATOM     15  N   UNL d   1      12.844  12.588  -4.831  0.00  0.00    -0.242 NA
ATOM     16  C   UNL d   1      13.160  11.850  -4.573  0.00  0.00     0.099 A 
ATOM     17  C   UNL d   1      13.524  11.779  -3.835  0.00  0.00     0.021 A 
ENDBRANCH   3  12
TORSDOF 1
ENDMDL
