MODEL 1
REMARK VINA RESULT:     103.1      0.000      0.000
REMARK  7 active torsions:
REMARK  status: ('A' for Active; 'I' for Inactive)
REMARK    1  A    between atoms: C_7  and  N_1 
REMARK    2  A    between atoms: C_6  and  C_4 
REMARK    3  A    between atoms: C_9  and  C_6 
REMARK    4  A    between atoms: C_8  and  C_7 
REMARK       I    between atoms: N_12  and  C_8 
REMARK    5  A    between atoms: C_10  and  C_9 
REMARK    6  A    between atoms: C_16  and  C_10 
REMARK    7  A    between atoms: C_15  and  N_12 
ROOT
ATOM      1  N   UNL d   1     -57.173-100.194 -44.499  0.00  0.00    -0.230 N 
ATOM      2  C   UNL d   1     -56.701 -99.524 -44.615  0.00  0.00     0.299 A 
ATOM      3  C   UNL d   1     -56.672-100.832 -44.346  0.00  0.00     0.274 A 
ATOM      4  C   UNL d   1     -55.890-100.557 -44.368  0.00  0.00     0.090 A 
ATOM      5  S   UNL d   1     -55.917 -99.750 -44.535  0.00  0.00    -0.022 SA
ATOM      6  O   UNL d   1     -56.981 -98.764 -44.783  0.00  0.00    -0.259 OA
ATOM      7  O   UNL d   1     -56.909-101.613 -44.197  0.00  0.00    -0.266 OA
ENDROOT
BRANCH   1   8
ATOM      8  C   UNL d   1     -57.996-100.227 -44.528  0.00  0.00     0.149 C 
BRANCH   8   9
ATOM      9  C   UNL d   1     -58.446-100.046 -43.859  0.00  0.00     0.297 C 
ATOM     10  N   UNL d   1     -58.166 -99.489 -43.321  0.00  0.00    -0.207 NA
ATOM     11  O   UNL d   1     -59.166-100.419 -43.737  0.00  0.00    -0.264 OA
BRANCH  10  12
ATOM     12  C   UNL d   1     -58.617 -99.306 -42.649  0.00  0.00     0.085 A 
ATOM     13  C   UNL d   1     -58.269 -99.354 -41.898  0.00  0.00     0.022 A 
ATOM     14  C   UNL d   1     -58.719 -99.172 -41.236  0.00  0.00     0.044 A 
ATOM     15  C   UNL d   1     -59.511 -98.942 -41.311  0.00  0.00     0.196 A 
ATOM     16  C   UNL d   1     -59.851 -98.897 -42.066  0.00  0.00     0.044 A 
ATOM     17  O   UNL d   1     -59.956 -98.761 -40.643  0.00  0.00    -0.287 OA
ATOM     18  C   UNL d   1     -59.403 -99.079 -42.736  0.00  0.00     0.022 A 
ENDBRANCH  10  12
ENDBRANCH   8   9
ENDBRANCH   1   8
BRANCH   4  19
ATOM     19  C   UNL d   1     -55.219-101.010 -44.246  0.00  0.00     0.011 C 
BRANCH  19  20
ATOM     20  C   UNL d   1     -55.084-101.358 -43.513  0.00  0.00     0.001 C 
ATOM     21  C   UNL d   1     -54.768-102.123 -43.467  0.00  0.00     0.000 C 
BRANCH  20  22
ATOM     22  C   UNL d   1     -55.260-100.951 -42.817  0.00  0.00     0.000 C 
BRANCH  22  23
ATOM     23  C   UNL d   1     -55.258-101.341 -42.093  0.00  0.00     0.000 A 
ATOM     24  C   UNL d   1     -54.740-101.089 -41.488  0.00  0.00     0.000 A 
ATOM     25  C   UNL d   1     -54.736-101.475 -40.767  0.00  0.00     0.000 A 
ATOM     26  C   UNL d   1     -55.247-102.113 -40.641  0.00  0.00     0.000 A 
ATOM     27  C   UNL d   1     -55.759-102.362 -41.236  0.00  0.00     0.000 A 
ATOM     28  C   UNL d   1     -55.760-101.973 -41.957  0.00  0.00     0.000 A 
ENDBRANCH  22  23
ENDBRANCH  20  22
ENDBRANCH  19  20
ENDBRANCH   4  19
TORSDOF 7
ENDMDL
MODEL 2
REMARK VINA RESULT:     104.7      2.804      4.727
REMARK  7 active torsions:
REMARK  status: ('A' for Active; 'I' for Inactive)
REMARK    1  A    between atoms: C_7  and  N_1 
REMARK    2  A    between atoms: C_6  and  C_4 
REMARK    3  A    between atoms: C_9  and  C_6 
REMARK    4  A    between atoms: C_8  and  C_7 
REMARK       I    between atoms: N_12  and  C_8 
REMARK    5  A    between atoms: C_10  and  C_9 
REMARK    6  A    between atoms: C_16  and  C_10 
REMARK    7  A    between atoms: C_15  and  N_12 
ROOT
ATOM      1  N   UNL d   1     -56.179-102.629 -40.962  0.00  0.00    -0.230 N 
ATOM      2  C   UNL d   1     -55.429-102.759 -40.637  0.00  0.00     0.299 A 
ATOM      3  C   UNL d   1     -56.713-102.537 -40.340  0.00  0.00     0.274 A 
ATOM      4  C   UNL d   1     -56.294-102.609 -39.628  0.00  0.00     0.090 A 
ATOM      5  S   UNL d   1     -55.504-102.746 -39.820  0.00  0.00    -0.022 SA
ATOM      6  O   UNL d   1     -54.733-102.879 -41.067  0.00  0.00    -0.259 OA
ATOM      7  O   UNL d   1     -57.527-102.396 -40.413  0.00  0.00    -0.266 OA
ENDROOT
BRANCH   1   8
ATOM      8  C   UNL d   1     -56.368-102.596 -41.764  0.00  0.00     0.149 C 
BRANCH   8   9
ATOM      9  C   UNL d   1     -56.166-101.934 -42.214  0.00  0.00     0.297 C 
ATOM     10  N   UNL d   1     -55.959-102.028 -43.006  0.00  0.00    -0.207 NA
ATOM     11  O   UNL d   1     -56.173-101.188 -41.871  0.00  0.00    -0.264 OA
BRANCH  10  12
ATOM     12  C   UNL d   1     -55.756-101.363 -43.458  0.00  0.00     0.085 A 
ATOM     13  C   UNL d   1     -55.212-101.442 -44.079  0.00  0.00     0.022 A 
ATOM     14  C   UNL d   1     -55.014-100.782 -44.524  0.00  0.00     0.044 A 
ATOM     15  C   UNL d   1     -55.351-100.043 -44.360  0.00  0.00     0.196 A 
ATOM     16  C   UNL d   1     -55.894 -99.972 -43.738  0.00  0.00     0.044 A 
ATOM     17  O   UNL d   1     -55.148 -99.385 -44.811  0.00  0.00    -0.287 OA
ATOM     18  C   UNL d   1     -56.097-100.634 -43.286  0.00  0.00     0.022 A 
ENDBRANCH  10  12
ENDBRANCH   8   9
ENDBRANCH   1   8
BRANCH   4  19
ATOM     19  C   UNL d   1     -56.613-102.554 -38.876  0.00  0.00     0.011 C 
BRANCH  19  20
ATOM     20  C   UNL d   1     -56.205-102.154 -38.284  0.00  0.00     0.001 C 
ATOM     21  C   UNL d   1     -56.266-102.404 -37.495  0.00  0.00     0.000 C 
BRANCH  20  22
ATOM     22  C   UNL d   1     -55.733-101.503 -38.466  0.00  0.00     0.000 C 
BRANCH  22  23
ATOM     23  C   UNL d   1     -55.531-100.956 -37.885  0.00  0.00     0.000 A 
ATOM     24  C   UNL d   1     -55.513-101.192 -37.083  0.00  0.00     0.000 A 
ATOM     25  C   UNL d   1     -55.313-100.651 -36.503  0.00  0.00     0.000 A 
ATOM     26  C   UNL d   1     -55.128 -99.873 -36.715  0.00  0.00     0.000 A 
ATOM     27  C   UNL d   1     -55.145 -99.640 -37.505  0.00  0.00     0.000 A 
ATOM     28  C   UNL d   1     -55.347-100.184 -38.083  0.00  0.00     0.000 A 
ENDBRANCH  22  23
ENDBRANCH  20  22
ENDBRANCH  19  20
ENDBRANCH   4  19
TORSDOF 7
ENDMDL
