MODEL 1
REMARK VINA RESULT:       1.7      0.000      0.000
REMARK  0 active torsions:
REMARK  status: ('A' for Active; 'I' for Inactive)
ROOT
ATOM      1  C   UNL d   1      46.403 -18.908  42.813  0.00  0.00     0.063 A 
ATOM      2  N   UNL d   1      46.597 -20.218  42.671  0.00  0.00    -0.204 NA
ATOM      3  C   UNL d   1      46.496 -19.610  43.223  0.00  0.00     0.099 A 
ATOM      4  C   UNL d   1      46.566 -19.890  41.947  0.00  0.00     0.318 A 
ATOM      5  C   UNL d   1      46.447 -19.076  42.004  0.00  0.00     0.254 A 
ATOM      6  C   UNL d   1      46.478 -19.618  44.032  0.00  0.00     0.076 A 
ATOM      7  C   UNL d   1      46.365 -18.910  44.451  0.00  0.00     0.024 A 
ATOM      8  C   UNL d   1      46.293 -18.213  43.211  0.00  0.00     0.016 A 
ATOM      9  O   UNL d   1      46.647 -20.328  41.243  0.00  0.00    -0.262 OA
ATOM     10  C   UNL d   1      46.273 -18.208  44.041  0.00  0.00     0.059 A 
ATOM     11  O   UNL d   1      46.382 -18.531  41.391  0.00  0.00    -0.281 OA
ATOM     12 CL   UNL d   1      46.571 -20.329  44.447  0.00  0.00    -0.081 Cl
ATOM     13 CL   UNL d   1      46.157 -17.478  44.465  0.00  0.00    -0.082 Cl
ENDROOT
TORSDOF 0
ENDMDL
MODEL 2
REMARK VINA RESULT:       2.9      5.342      6.140
REMARK  0 active torsions:
REMARK  status: ('A' for Active; 'I' for Inactive)
ROOT
ATOM      1  C   UNL d   1      45.246 -13.776  43.861  0.00  0.00     0.063 A 
ATOM      2  N   UNL d   1      46.140 -13.960  44.831  0.00  0.00    -0.204 NA
ATOM      3  C   UNL d   1      45.760 -13.390  44.367  0.00  0.00     0.099 A 
ATOM      4  C   UNL d   1      45.860 -14.671  44.611  0.00  0.00     0.318 A 
ATOM      5  C   UNL d   1      45.302 -14.588  44.009  0.00  0.00     0.254 A 
ATOM      6  C   UNL d   1      45.825 -12.584  44.348  0.00  0.00     0.076 A 
ATOM      7  C   UNL d   1      45.367 -12.143  43.814  0.00  0.00     0.024 A 
ATOM      8  C   UNL d   1      44.795 -13.356  43.337  0.00  0.00     0.016 A 
ATOM      9  O   UNL d   1      46.111 -15.388  44.955  0.00  0.00    -0.262 OA
ATOM     10  C   UNL d   1      44.853 -12.529  43.309  0.00  0.00     0.059 A 
ATOM     11  O   UNL d   1      44.881 -15.182  43.625  0.00  0.00    -0.281 OA
ATOM     12 CL   UNL d   1      46.346 -12.192  44.861  0.00  0.00    -0.081 Cl
ATOM     13 CL   UNL d   1      44.380 -12.083  42.758  0.00  0.00    -0.082 Cl
ENDROOT
TORSDOF 0
ENDMDL
