MODEL 1
REMARK VINA RESULT:       3.3      0.000      0.000
REMARK  3 active torsions:
REMARK  status: ('A' for Active; 'I' for Inactive)
REMARK    1  A    between atoms: C_3  and  C_9 
REMARK    2  A    between atoms: C_6  and  C_4 
REMARK    3  A    between atoms: C_9  and  C_6 
ROOT
ATOM      1  C   UNL d   1      43.948 -16.321  36.433  0.00  0.00     0.199 A 
ATOM      2  C   UNL d   1      43.141 -16.395  36.342  0.00  0.00     0.084 A 
ATOM      3  C   UNL d   1      44.283 -15.586  36.601  0.00  0.00     0.039 A 
ATOM      4  C   UNL d   1      43.807 -14.936  36.677  0.00  0.00     0.006 A 
ATOM      5  C   UNL d   1      42.664 -15.732  36.420  0.00  0.00     0.199 A 
ATOM      6  O   UNL d   1      44.428 -16.991  36.353  0.00  0.00    -0.286 OA
ATOM      7  C   UNL d   1      43.000 -14.998  36.589  0.00  0.00     0.042 A 
ATOM      8  O   UNL d   1      41.858 -15.806  36.330  0.00  0.00    -0.286 OA
ENDROOT
BRANCH   3   9
ATOM      9  C   UNL d   1      45.101 -15.516  36.692  0.00  0.00     0.009 C 
BRANCH   9  10
ATOM     10  C   UNL d   1      45.424 -14.817  36.987  0.00  0.00     0.070 C 
BRANCH  10  11
ATOM     11  C   UNL d   1      46.244 -14.731  37.038  0.00  0.00     0.211 C 
ATOM     12  O   UNL d   1      46.647 -14.318  36.455  0.00  0.00    -0.644 OA
ATOM     13  O   UNL d   1      46.646 -15.053  37.659  0.00  0.00    -0.644 OA
ENDBRANCH  10  11
ENDBRANCH   9  10
ENDBRANCH   3   9
TORSDOF 3
ENDMDL
MODEL 2
REMARK VINA RESULT:       4.0      7.274      8.067
REMARK  3 active torsions:
REMARK  status: ('A' for Active; 'I' for Inactive)
REMARK    1  A    between atoms: C_3  and  C_9 
REMARK    2  A    between atoms: C_6  and  C_4 
REMARK    3  A    between atoms: C_9  and  C_6 
ROOT
ATOM      1  C   UNL d   1      44.770 -14.384  44.740  0.00  0.00     0.199 A 
ATOM      2  C   UNL d   1      44.963 -15.156  44.916  0.00  0.00     0.084 A 
ATOM      3  C   UNL d   1      45.335 -13.876  44.418  0.00  0.00     0.039 A 
ATOM      4  C   UNL d   1      46.084 -14.148  44.276  0.00  0.00     0.006 A 
ATOM      5  C   UNL d   1      45.724 -15.425  44.771  0.00  0.00     0.199 A 
ATOM      6  O   UNL d   1      44.001 -14.115  44.888  0.00  0.00    -0.286 OA
ATOM      7  C   UNL d   1      46.289 -14.917  44.448  0.00  0.00     0.042 A 
ATOM      8  O   UNL d   1      45.917 -16.197  44.947  0.00  0.00    -0.286 OA
ENDROOT
BRANCH   3   9
ATOM      9  C   UNL d   1      45.135 -13.095  44.241  0.00  0.00     0.009 C 
BRANCH   9  10
ATOM     10  C   UNL d   1      45.477 -12.719  43.591  0.00  0.00     0.070 C 
BRANCH  10  11
ATOM     11  C   UNL d   1      45.002 -12.306  43.057  0.00  0.00     0.211 C 
ATOM     12  O   UNL d   1      45.297 -12.111  42.316  0.00  0.00    -0.644 OA
ATOM     13  O   UNL d   1      44.251 -12.095  43.263  0.00  0.00    -0.644 OA
ENDBRANCH  10  11
ENDBRANCH   9  10
ENDBRANCH   3   9
TORSDOF 3
ENDMDL
MODEL 3
REMARK VINA RESULT:       5.8      0.847      1.214
REMARK  3 active torsions:
REMARK  status: ('A' for Active; 'I' for Inactive)
REMARK    1  A    between atoms: C_3  and  C_9 
REMARK    2  A    between atoms: C_6  and  C_4 
REMARK    3  A    between atoms: C_9  and  C_6 
ROOT
ATOM      1  C   UNL d   1      43.448 -15.070  37.244  0.00  0.00     0.199 A 
ATOM      2  C   UNL d   1      42.745 -15.459  37.104  0.00  0.00     0.084 A 
ATOM      3  C   UNL d   1      44.154 -15.358  36.930  0.00  0.00     0.039 A 
ATOM      4  C   UNL d   1      44.148 -16.030  36.479  0.00  0.00     0.006 A 
ATOM      5  C   UNL d   1      42.746 -16.140  36.646  0.00  0.00     0.199 A 
ATOM      6  O   UNL d   1      43.445 -14.383  37.706  0.00  0.00    -0.286 OA
ATOM      7  C   UNL d   1      43.452 -16.427  36.332  0.00  0.00     0.042 A 
ATOM      8  O   UNL d   1      42.044 -16.528  36.506  0.00  0.00    -0.286 OA
ENDROOT
BRANCH   3   9
ATOM      9  C   UNL d   1      44.863 -14.960  37.075  0.00  0.00     0.009 C 
BRANCH   9  10
ATOM     10  C   UNL d   1      45.572 -15.262  36.780  0.00  0.00     0.070 C 
BRANCH  10  11
ATOM     11  C   UNL d   1      46.289 -14.918  37.001  0.00  0.00     0.211 C 
ATOM     12  O   UNL d   1      46.637 -14.354  36.517  0.00  0.00    -0.644 OA
ATOM     13  O   UNL d   1      46.646 -15.138  37.691  0.00  0.00    -0.644 OA
ENDBRANCH  10  11
ENDBRANCH   9  10
ENDBRANCH   3   9
TORSDOF 3
ENDMDL
