MODEL 1
REMARK VINA RESULT:      -3.1      0.000      0.000
REMARK  1 active torsions:
REMARK  status: ('A' for Active; 'I' for Inactive)
REMARK    1  A    between atoms: C_5  and  C_1 
ROOT
ATOM      1  C   UNL d   1      45.506 -13.429  44.358  0.00  0.00     0.169 A 
ATOM      2  N   UNL d   1      45.898 -12.747  44.610  0.00  0.00    -0.142 NA
ATOM      3  C   UNL d   1      45.109 -13.253  43.654  0.00  0.00     0.048 A 
ATOM      4  N   UNL d   1      45.737 -12.158  44.058  0.00  0.00    -0.148 NA
ATOM      5  C   UNL d   1      45.250 -12.481  43.473  0.00  0.00     0.105 A 
ATOM      6  C   UNL d   1      44.957 -12.081  42.812  0.00  0.00     0.023 C 
ENDROOT
BRANCH   1   7
ATOM      7  C   UNL d   1      45.514 -14.155  44.745  0.00  0.00     0.231 C 
ATOM      8  O   UNL d   1      44.807 -14.538  44.924  0.00  0.00    -0.643 OA
ATOM      9  O   UNL d   1      46.233 -14.501  44.954  0.00  0.00    -0.643 OA
ENDBRANCH   1   7
TORSDOF 1
ENDMDL
MODEL 2
REMARK VINA RESULT:      -3.1      1.592      2.306
REMARK  1 active torsions:
REMARK  status: ('A' for Active; 'I' for Inactive)
REMARK    1  A    between atoms: C_5  and  C_1 
ROOT
ATOM      1  C   UNL d   1      45.316 -12.869  43.685  0.00  0.00     0.169 A 
ATOM      2  N   UNL d   1      45.852 -12.586  44.246  0.00  0.00    -0.142 NA
ATOM      3  C   UNL d   1      45.114 -13.645  43.890  0.00  0.00     0.048 A 
ATOM      4  N   UNL d   1      45.973 -13.191  44.791  0.00  0.00    -0.148 NA
ATOM      5  C   UNL d   1      45.514 -13.839  44.562  0.00  0.00     0.105 A 
ATOM      6  C   UNL d   1      45.471 -14.564  44.955  0.00  0.00     0.023 C 
ENDROOT
BRANCH   1   7
ATOM      7  C   UNL d   1      45.036 -12.447  43.037  0.00  0.00     0.231 C 
ATOM      8  O   UNL d   1      45.489 -12.391  42.351  0.00  0.00    -0.643 OA
ATOM      9  O   UNL d   1      44.299 -12.080  43.074  0.00  0.00    -0.643 OA
ENDBRANCH   1   7
TORSDOF 1
ENDMDL
MODEL 3
REMARK VINA RESULT:      -2.7      7.585      7.922
REMARK  1 active torsions:
REMARK  status: ('A' for Active; 'I' for Inactive)
REMARK    1  A    between atoms: C_5  and  C_1 
ROOT
ATOM      1  C   UNL d   1      45.252 -15.251  36.822  0.00  0.00     0.169 A 
ATOM      2  N   UNL d   1      45.149 -15.866  37.363  0.00  0.00    -0.142 NA
ATOM      3  C   UNL d   1      44.559 -15.184  36.374  0.00  0.00     0.048 A 
ATOM      4  N   UNL d   1      44.394 -16.171  37.242  0.00  0.00    -0.148 NA
ATOM      5  C   UNL d   1      44.039 -15.743  36.630  0.00  0.00     0.105 A 
ATOM      6  C   UNL d   1      43.280 -15.867  36.330  0.00  0.00     0.023 C 
ENDROOT
BRANCH   1   7
ATOM      7  C   UNL d   1      45.928 -14.789  36.746  0.00  0.00     0.231 C 
ATOM      8  O   UNL d   1      45.958 -14.039  37.084  0.00  0.00    -0.643 OA
ATOM      9  O   UNL d   1      46.578 -15.079  36.330  0.00  0.00    -0.643 OA
ENDBRANCH   1   7
TORSDOF 1
ENDMDL
MODEL 4
REMARK VINA RESULT:      -2.6      6.332      6.769
REMARK  1 active torsions:
REMARK  status: ('A' for Active; 'I' for Inactive)
REMARK    1  A    between atoms: C_5  and  C_1 
ROOT
ATOM      1  C   UNL d   1      46.617 -19.390  42.837  0.00  0.00     0.169 A 
ATOM      2  N   UNL d   1      46.605 -18.712  43.308  0.00  0.00    -0.142 NA
ATOM      3  C   UNL d   1      46.613 -20.051  43.336  0.00  0.00     0.048 A 
ATOM      4  N   UNL d   1      46.594 -18.962  44.092  0.00  0.00    -0.148 NA
ATOM      5  C   UNL d   1      46.599 -19.788  44.098  0.00  0.00     0.105 A 
ATOM      6  C   UNL d   1      46.592 -20.267  44.771  0.00  0.00     0.023 C 
ENDROOT
BRANCH   1   7
ATOM      7  C   UNL d   1      46.630 -19.402  42.015  0.00  0.00     0.231 C 
ATOM      8  O   UNL d   1      46.643 -20.119  41.610  0.00  0.00    -0.643 OA
ATOM      9  O   UNL d   1      46.631 -18.692  41.595  0.00  0.00    -0.643 OA
ENDBRANCH   1   7
TORSDOF 1
ENDMDL
MODEL 5
REMARK VINA RESULT:      -2.4      6.354      6.576
REMARK  1 active torsions:
REMARK  status: ('A' for Active; 'I' for Inactive)
REMARK    1  A    between atoms: C_5  and  C_1 
ROOT
ATOM      1  C   UNL d   1      46.461 -19.630  43.552  0.00  0.00     0.169 A 
ATOM      2  N   UNL d   1      46.225 -20.314  43.153  0.00  0.00    -0.142 NA
ATOM      3  C   UNL d   1      46.644 -19.053  42.988  0.00  0.00     0.048 A 
ATOM      4  N   UNL d   1      46.266 -20.151  42.348  0.00  0.00    -0.148 NA
ATOM      5  C   UNL d   1      46.525 -19.371  42.256  0.00  0.00     0.105 A 
ATOM      6  C   UNL d   1      46.643 -18.981  41.538  0.00  0.00     0.023 C 
ENDROOT
BRANCH   1   7
ATOM      7  C   UNL d   1      46.503 -19.544  44.369  0.00  0.00     0.231 C 
ATOM      8  O   UNL d   1      46.404 -20.196  44.861  0.00  0.00    -0.643 OA
ATOM      9  O   UNL d   1      46.646 -18.800  44.695  0.00  0.00    -0.643 OA
ENDBRANCH   1   7
TORSDOF 1
ENDMDL
MODEL 6
REMARK VINA RESULT:      -2.3      7.733      7.938
REMARK  1 active torsions:
REMARK  status: ('A' for Active; 'I' for Inactive)
REMARK    1  A    between atoms: C_5  and  C_1 
ROOT
ATOM      1  C   UNL d   1      44.572 -15.374  36.697  0.00  0.00     0.169 A 
ATOM      2  N   UNL d   1      44.562 -14.644  37.083  0.00  0.00    -0.142 NA
ATOM      3  C   UNL d   1      45.357 -15.558  36.513  0.00  0.00     0.048 A 
ATOM      4  N   UNL d   1      45.343 -14.387  37.133  0.00  0.00    -0.148 NA
ATOM      5  C   UNL d   1      45.824 -14.957  36.779  0.00  0.00     0.105 A 
ATOM      6  C   UNL d   1      46.646 -14.920  36.708  0.00  0.00     0.023 C 
ENDROOT
BRANCH   1   7
ATOM      7  C   UNL d   1      43.911 -15.834  36.527  0.00  0.00     0.231 C 
ATOM      8  O   UNL d   1      43.998 -16.629  36.330  0.00  0.00    -0.643 OA
ATOM      9  O   UNL d   1      43.159 -15.497  36.554  0.00  0.00    -0.643 OA
ENDBRANCH   1   7
TORSDOF 1
ENDMDL
MODEL 7
REMARK VINA RESULT:      -0.8      7.540      7.823
REMARK  1 active torsions:
REMARK  status: ('A' for Active; 'I' for Inactive)
REMARK    1  A    between atoms: C_5  and  C_1 
ROOT
ATOM      1  C   UNL d   1      44.581 -15.428  36.846  0.00  0.00     0.169 A 
ATOM      2  N   UNL d   1      45.110 -16.000  36.572  0.00  0.00    -0.142 NA
ATOM      3  C   UNL d   1      44.998 -14.722  36.957  0.00  0.00     0.048 A 
ATOM      4  N   UNL d   1      45.848 -15.639  36.518  0.00  0.00    -0.148 NA
ATOM      5  C   UNL d   1      45.768 -14.852  36.757  0.00  0.00     0.105 A 
ATOM      6  C   UNL d   1      46.373 -14.291  36.788  0.00  0.00     0.023 C 
ENDROOT
BRANCH   1   7
ATOM      7  C   UNL d   1      43.778 -15.546  36.983  0.00  0.00     0.231 C 
ATOM      8  O   UNL d   1      43.457 -15.398  37.727  0.00  0.00    -0.643 OA
ATOM      9  O   UNL d   1      43.293 -15.813  36.372  0.00  0.00    -0.643 OA
ENDBRANCH   1   7
TORSDOF 1
ENDMDL
