MODEL 1
REMARK VINA RESULT:      -4.5      0.000      0.000
REMARK  3 active torsions:
REMARK  status: ('A' for Active; 'I' for Inactive)
REMARK    1  A    between atoms: N_3  and  S_1 
REMARK    2  A    between atoms: C_11  and  S_1 
REMARK    3  A    between atoms: C_2  and  N_3 
ROOT
ATOM      1  C   UNL d   1      58.556  -0.040  29.955  0.00  0.00     0.095 A 
ATOM      2  C   UNL d   1      58.934  -0.419  29.316  0.00  0.00     0.032 A 
ATOM      3  C   UNL d   1      59.744  -0.426  29.280  0.00  0.00     0.098 A 
ATOM      4  C   UNL d   1      60.197  -0.063  29.871  0.00  0.00     0.206 A 
ATOM      5  C   UNL d   1      59.825   0.307  30.498  0.00  0.00     0.041 A 
ATOM      6  C   UNL d   1      59.012   0.324  30.548  0.00  0.00     0.023 A 
ATOM      7 CL   UNL d   1      60.122  -0.805  28.641  0.00  0.00    -0.079 Cl
ATOM      8  O   UNL d   1      61.022  -0.088  29.807  0.00  0.00    -0.286 OA
ATOM      9  C   UNL d   1      58.504  -0.783  28.721  0.00  0.00     0.003 C 
ATOM     10  C   UNL d   1      60.286   0.672  31.091  0.00  0.00     0.003 C 
ENDROOT
BRANCH   1  11
ATOM     11  N   UNL d   1      57.740  -0.025  30.004  0.00  0.00    -0.158 NA
BRANCH  11  12
ATOM     12  S   UNL d   1      57.367  -0.126  30.724  0.00  0.00     0.285 S 
ATOM     13  O   UNL d   1      57.227   0.682  30.789  0.00  0.00    -0.198 OA
ATOM     14  O   UNL d   1      57.495  -0.955  30.687  0.00  0.00    -0.198 OA
BRANCH  12  15
ATOM     15  C   UNL d   1      56.984  -0.242  31.468  0.00  0.00     0.105 A 
ATOM     16  C   UNL d   1      56.823  -0.987  31.754  0.00  0.00     0.013 A 
ATOM     17  C   UNL d   1      56.451  -1.099  32.476  0.00  0.00     0.001 A 
ATOM     18  C   UNL d   1      56.232  -0.439  32.930  0.00  0.00     0.000 A 
ATOM     19  C   UNL d   1      56.393   0.306  32.644  0.00  0.00     0.001 A 
ATOM     20  C   UNL d   1      56.767   0.415  31.917  0.00  0.00     0.013 A 
ENDBRANCH  12  15
ENDBRANCH  11  12
ENDBRANCH   1  11
TORSDOF 3
ENDMDL
MODEL 2
REMARK VINA RESULT:      -4.0      1.073      1.590
REMARK  3 active torsions:
REMARK  status: ('A' for Active; 'I' for Inactive)
REMARK    1  A    between atoms: N_3  and  S_1 
REMARK    2  A    between atoms: C_11  and  S_1 
REMARK    3  A    between atoms: C_2  and  N_3 
ROOT
ATOM      1  C   UNL d   1      58.807  -0.217  29.540  0.00  0.00     0.095 A 
ATOM      2  C   UNL d   1      59.554  -0.076  29.197  0.00  0.00     0.032 A 
ATOM      3  C   UNL d   1      59.982  -0.700  28.907  0.00  0.00     0.098 A 
ATOM      4  C   UNL d   1      59.686  -1.473  28.949  0.00  0.00     0.206 A 
ATOM      5  C   UNL d   1      58.954  -1.610  29.286  0.00  0.00     0.041 A 
ATOM      6  C   UNL d   1      58.511  -0.994  29.582  0.00  0.00     0.023 A 
ATOM      7 CL   UNL d   1      60.729  -0.559  28.563  0.00  0.00    -0.079 Cl
ATOM      8  O   UNL d   1      60.148  -2.089  28.644  0.00  0.00    -0.286 OA
ATOM      9  C   UNL d   1      59.864   0.680  29.146  0.00  0.00     0.003 C 
ATOM     10  C   UNL d   1      58.661  -2.390  29.326  0.00  0.00     0.003 C 
ENDROOT
BRANCH   1  11
ATOM     11  N   UNL d   1      58.364   0.403  29.837  0.00  0.00    -0.158 NA
BRANCH  11  12
ATOM     12  S   UNL d   1      58.019   0.347  30.576  0.00  0.00     0.285 S 
ATOM     13  O   UNL d   1      58.734   0.516  30.945  0.00  0.00    -0.198 OA
ATOM     14  O   UNL d   1      57.275   0.173  30.229  0.00  0.00    -0.198 OA
BRANCH  12  15
ATOM     15  C   UNL d   1      57.653   0.287  31.335  0.00  0.00     0.105 A 
ATOM     16  C   UNL d   1      56.976  -0.150  31.449  0.00  0.00     0.013 A 
ATOM     17  C   UNL d   1      56.621  -0.208  32.186  0.00  0.00     0.001 A 
ATOM     18  C   UNL d   1      56.956   0.188  32.833  0.00  0.00     0.000 A 
ATOM     19  C   UNL d   1      57.632   0.626  32.720  0.00  0.00     0.001 A 
ATOM     20  C   UNL d   1      57.988   0.682  31.977  0.00  0.00     0.013 A 
ENDBRANCH  12  15
ENDBRANCH  11  12
ENDBRANCH   1  11
TORSDOF 3
ENDMDL
MODEL 3
REMARK VINA RESULT:      -3.7      0.802      1.494
REMARK  3 active torsions:
REMARK  status: ('A' for Active; 'I' for Inactive)
REMARK    1  A    between atoms: N_3  and  S_1 
REMARK    2  A    between atoms: C_11  and  S_1 
REMARK    3  A    between atoms: C_2  and  N_3 
ROOT
ATOM      1  C   UNL d   1      58.626   0.149  30.257  0.00  0.00     0.095 A 
ATOM      2  C   UNL d   1      59.459   0.172  30.219  0.00  0.00     0.032 A 
ATOM      3  C   UNL d   1      59.847  -0.320  29.706  0.00  0.00     0.098 A 
ATOM      4  C   UNL d   1      59.426  -0.844  29.221  0.00  0.00     0.206 A 
ATOM      5  C   UNL d   1      58.610  -0.865  29.259  0.00  0.00     0.041 A 
ATOM      6  C   UNL d   1      58.204  -0.377  29.769  0.00  0.00     0.023 A 
ATOM      7 CL   UNL d   1      60.680  -0.298  29.668  0.00  0.00    -0.079 Cl
ATOM      8  O   UNL d   1      59.852  -1.334  28.707  0.00  0.00    -0.286 OA
ATOM      9  C   UNL d   1      59.893   0.682  30.691  0.00  0.00     0.003 C 
ATOM     10  C   UNL d   1      58.190  -1.395  28.768  0.00  0.00     0.003 C 
ENDROOT
BRANCH   1  11
ATOM     11  N   UNL d   1      58.221   0.640  30.770  0.00  0.00    -0.158 NA
BRANCH  11  12
ATOM     12  S   UNL d   1      57.652   0.334  31.271  0.00  0.00     0.285 S 
ATOM     13  O   UNL d   1      58.220   0.139  31.832  0.00  0.00    -0.198 OA
ATOM     14  O   UNL d   1      57.048   0.522  30.718  0.00  0.00    -0.198 OA
BRANCH  12  15
ATOM     15  C   UNL d   1      57.055   0.021  31.781  0.00  0.00     0.105 A 
ATOM     16  C   UNL d   1      56.872  -0.772  31.787  0.00  0.00     0.013 A 
ATOM     17  C   UNL d   1      56.292  -1.075  32.282  0.00  0.00     0.001 A 
ATOM     18  C   UNL d   1      55.881  -0.564  32.790  0.00  0.00     0.000 A 
ATOM     19  C   UNL d   1      56.064   0.229  32.784  0.00  0.00     0.001 A 
ATOM     20  C   UNL d   1      56.647   0.531  32.285  0.00  0.00     0.013 A 
ENDBRANCH  12  15
ENDBRANCH  11  12
ENDBRANCH   1  11
TORSDOF 3
ENDMDL
MODEL 4
REMARK VINA RESULT:      -3.3      2.263      4.100
REMARK  3 active torsions:
REMARK  status: ('A' for Active; 'I' for Inactive)
REMARK    1  A    between atoms: N_3  and  S_1 
REMARK    2  A    between atoms: C_11  and  S_1 
REMARK    3  A    between atoms: C_2  and  N_3 
ROOT
ATOM      1  C   UNL d   1      56.530   0.100  32.650  0.00  0.00     0.095 A 
ATOM      2  C   UNL d   1      55.931   0.105  33.230  0.00  0.00     0.032 A 
ATOM      3  C   UNL d   1      56.120   0.298  33.994  0.00  0.00     0.098 A 
ATOM      4  C   UNL d   1      56.898   0.489  34.203  0.00  0.00     0.206 A 
ATOM      5  C   UNL d   1      57.484   0.484  33.633  0.00  0.00     0.041 A 
ATOM      6  C   UNL d   1      57.312   0.292  32.860  0.00  0.00     0.023 A 
ATOM      7 CL   UNL d   1      55.521   0.303  34.575  0.00  0.00    -0.079 Cl
ATOM      8  O   UNL d   1      57.059   0.682  34.992  0.00  0.00    -0.286 OA
ATOM      9  C   UNL d   1      55.155  -0.081  33.044  0.00  0.00     0.003 C 
ATOM     10  C   UNL d   1      58.268   0.678  33.849  0.00  0.00     0.003 C 
ENDROOT
BRANCH   1  11
ATOM     11  N   UNL d   1      56.354  -0.093  31.875  0.00  0.00    -0.158 NA
BRANCH  11  12
ATOM     12  S   UNL d   1      56.941  -0.091  31.305  0.00  0.00     0.285 S 
ATOM     13  O   UNL d   1      57.184  -0.846  31.524  0.00  0.00    -0.198 OA
ATOM     14  O   UNL d   1      56.717   0.680  31.059  0.00  0.00    -0.198 OA
BRANCH  12  15
ATOM     15  C   UNL d   1      57.545  -0.079  30.714  0.00  0.00     0.105 A 
ATOM     16  C   UNL d   1      57.758   0.610  30.336  0.00  0.00     0.013 A 
ATOM     17  C   UNL d   1      58.344   0.621  29.762  0.00  0.00     0.001 A 
ATOM     18  C   UNL d   1      58.731  -0.085  29.560  0.00  0.00     0.000 A 
ATOM     19  C   UNL d   1      58.517  -0.773  29.937  0.00  0.00     0.001 A 
ATOM     20  C   UNL d   1      57.928  -0.782  30.514  0.00  0.00     0.013 A 
ENDBRANCH  12  15
ENDBRANCH  11  12
ENDBRANCH   1  11
TORSDOF 3
ENDMDL
