MODEL 1
REMARK VINA RESULT:      23.5      0.000      0.000
REMARK  4 active torsions:
REMARK  status: ('A' for Active; 'I' for Inactive)
REMARK       I    between atoms: C_5  and  N_1 
REMARK    1  A    between atoms: N_3  and  C_8 
REMARK    2  A    between atoms: C_7  and  C_5 
REMARK    3  A    between atoms: C_11  and  C_7 
REMARK    4  A    between atoms: C_15  and  C_11 
ROOT
ATOM      1  N   UNL d   1      13.568  11.818  -2.050  0.00  0.00    -0.256 N 
ATOM      2  C   UNL d   1      12.853  11.801  -1.626  0.00  0.00     0.185 A 
ATOM      3  N   UNL d   1      13.061  11.786  -0.843  0.00  0.00    -0.224 NA
ATOM      4  C   UNL d   1      13.653  11.838  -2.885  0.00  0.00     0.266 C 
ATOM      5  C   UNL d   1      14.180  11.812  -1.507  0.00  0.00     0.086 A 
ATOM      6  C   UNL d   1      13.871  11.792  -0.757  0.00  0.00     0.099 A 
ATOM      7  O   UNL d   1      14.409  11.853  -3.244  0.00  0.00    -0.267 OA
ATOM      8  C   UNL d   1      15.003  11.822  -1.619  0.00  0.00     0.019 A 
ATOM      9  C   UNL d   1      14.362  11.782  -0.105  0.00  0.00     0.021 A 
ATOM     10  C   UNL d   1      15.520  11.813  -0.963  0.00  0.00     0.002 A 
ATOM     11  C   UNL d   1      15.192  11.792  -0.175  0.00  0.00     0.002 A 
ENDROOT
BRANCH   4  12
ATOM     12  C   UNL d   1      12.987  11.842  -3.364  0.00  0.00     0.061 C 
BRANCH  12  13
ATOM     13  C   UNL d   1      13.077  11.785  -4.182  0.00  0.00     0.005 C 
BRANCH  13  14
ATOM     14  C   UNL d   1      13.229  12.469  -4.617  0.00  0.00     0.002 A 
ATOM     15  C   UNL d   1      13.047  13.217  -4.284  0.00  0.00     0.024 A 
ATOM     16  C   UNL d   1      13.196  13.894  -4.709  0.00  0.00     0.127 A 
ATOM     17  C   UNL d   1      13.525  13.847  -5.469  0.00  0.00     0.024 A 
ATOM     18  C   UNL d   1      13.701  13.109  -5.792  0.00  0.00     0.002 A 
ATOM     19  C   UNL d   1      13.555  12.413  -5.370  0.00  0.00     0.000 A 
BRANCH  16  20
ATOM     20  N   UNL d   1      13.030  14.644  -4.414  0.00  0.00    -0.114 N 
ATOM     21  O   UNL d   1      13.129  14.798  -3.599  0.00  0.00    -0.532 OA
ATOM     22  O   UNL d   1      12.772  15.234  -4.911  0.00  0.00    -0.532 OA
ENDBRANCH  16  20
ENDBRANCH  13  14
ENDBRANCH  12  13
ENDBRANCH   4  12
TORSDOF 4
ENDMDL
