MODEL 1
REMARK VINA RESULT:     -10.7      0.000      0.000
REMARK  3 active torsions:
REMARK  status: ('A' for Active; 'I' for Inactive)
REMARK    1  A    between atoms: C_13  and  N_2 
REMARK    2  A    between atoms: N_5  and  C_14 
REMARK    3  A    between atoms: C_14  and  C_13 
ROOT
ATOM      1  C   UNL d   1      52.997  32.091  53.560  0.00  0.00     0.166 A 
ATOM      2  N   UNL d   1      52.848  32.911  53.482  0.00  0.00    -0.288 N 
ATOM      3  C   UNL d   1      53.620  31.989  54.097  0.00  0.00     0.117 A 
ATOM      4  N   UNL d   1      52.629  31.437  53.199  0.00  0.00    -0.225 NA
ATOM      5  N   UNL d   1      53.879  31.232  54.276  0.00  0.00    -0.241 NA
ATOM      6  C   UNL d   1      53.860  32.749  54.354  0.00  0.00     0.037 A 
ATOM      7  C   UNL d   1      53.384  33.302  53.973  0.00  0.00     0.067 A 
ATOM      8  C   UNL d   1      52.886  30.673  53.375  0.00  0.00     0.101 A 
ATOM      9  C   UNL d   1      53.510  30.571  53.913  0.00  0.00     0.099 A 
ATOM     10  C   UNL d   1      54.464  32.984  54.895  0.00  0.00     0.003 A 
ATOM     11  C   UNL d   1      53.507  34.125  54.132  0.00  0.00     0.018 A 
ATOM     12  C   UNL d   1      52.521  30.009  53.016  0.00  0.00     0.021 A 
ATOM     13  C   UNL d   1      53.748  29.817  54.073  0.00  0.00     0.021 A 
ATOM     14  C   UNL d   1      54.582  33.778  55.047  0.00  0.00     0.000 A 
ATOM     15  C   UNL d   1      54.107  34.338  54.668  0.00  0.00     0.002 A 
ATOM     16  C   UNL d   1      53.402  29.148  53.729  0.00  0.00     0.002 A 
ATOM     17  C   UNL d   1      52.777  29.249  53.192  0.00  0.00     0.002 A 
ENDROOT
BRANCH   2  18
ATOM     18  C   UNL d   1      52.449  33.569  53.175  0.00  0.00     0.101 C 
BRANCH  18  19
ATOM     19  C   UNL d   1      51.626  33.562  53.114  0.00  0.00     0.104 C 
BRANCH  19  20
ATOM     20  N   UNL d   1      51.261  33.986  52.508  0.00  0.00    -0.250 N 
ATOM     21  C   UNL d   1      51.436  34.184  51.892  0.00  0.00     0.378 A 
ATOM     22  O   UNL d   1      50.919  34.521  51.628  0.00  0.00    -0.258 OA
ATOM     23  O   UNL d   1      52.021  34.068  51.592  0.00  0.00    -0.237 OA
ATOM     24  C   UNL d   1      50.426  34.529  52.084  0.00  0.00     0.121 A 
ATOM     25  C   UNL d   1      50.638  34.199  52.628  0.00  0.00     0.092 A 
ATOM     26  C   UNL d   1      49.807  34.796  52.077  0.00  0.00     0.026 A 
ATOM     27  C   UNL d   1      50.240  34.131  53.162  0.00  0.00     0.020 A 
ATOM     28  C   UNL d   1      49.622  34.400  53.151  0.00  0.00     0.002 A 
ATOM     29  C   UNL d   1      49.410  34.729  52.611  0.00  0.00     0.002 A 
ENDBRANCH  19  20
ENDBRANCH  18  19
ENDBRANCH   2  18
TORSDOF 3
ENDMDL
MODEL 2
REMARK VINA RESULT:     -10.5      1.461      4.333
REMARK  3 active torsions:
REMARK  status: ('A' for Active; 'I' for Inactive)
REMARK    1  A    between atoms: C_13  and  N_2 
REMARK    2  A    between atoms: N_5  and  C_14 
REMARK    3  A    between atoms: C_14  and  C_13 
ROOT
ATOM      1  C   UNL d   1      52.523  33.036  53.655  0.00  0.00     0.166 A 
ATOM      2  N   UNL d   1      53.128  32.504  53.881  0.00  0.00    -0.288 N 
ATOM      3  C   UNL d   1      52.726  33.792  53.928  0.00  0.00     0.117 A 
ATOM      4  N   UNL d   1      51.817  32.907  53.232  0.00  0.00    -0.225 NA
ATOM      5  N   UNL d   1      52.223  34.423  53.780  0.00  0.00    -0.241 NA
ATOM      6  C   UNL d   1      53.460  33.729  54.326  0.00  0.00     0.037 A 
ATOM      7  C   UNL d   1      53.694  32.941  54.290  0.00  0.00     0.067 A 
ATOM      8  C   UNL d   1      51.308  33.539  53.080  0.00  0.00     0.101 A 
ATOM      9  C   UNL d   1      51.512  34.296  53.355  0.00  0.00     0.099 A 
ATOM     10  C   UNL d   1      53.931  34.313  54.713  0.00  0.00     0.003 A 
ATOM     11  C   UNL d   1      54.427  32.716  54.653  0.00  0.00     0.018 A 
ATOM     12  C   UNL d   1      50.595  33.418  52.655  0.00  0.00     0.021 A 
ATOM     13  C   UNL d   1      51.003  34.901  53.198  0.00  0.00     0.021 A 
ATOM     14  C   UNL d   1      54.636  34.096  55.062  0.00  0.00     0.000 A 
ATOM     15  C   UNL d   1      54.877  33.306  55.030  0.00  0.00     0.002 A 
ATOM     16  C   UNL d   1      50.294  34.803  52.780  0.00  0.00     0.002 A 
ATOM     17  C   UNL d   1      50.090  34.046  52.505  0.00  0.00     0.002 A 
ENDROOT
BRANCH   2  18
ATOM     18  C   UNL d   1      53.484  31.756  53.922  0.00  0.00     0.101 C 
BRANCH  18  19
ATOM     19  C   UNL d   1      53.019  31.081  54.012  0.00  0.00     0.104 C 
BRANCH  19  20
ATOM     20  N   UNL d   1      53.316  30.350  53.772  0.00  0.00    -0.250 N 
ATOM     21  C   UNL d   1      53.601  30.111  53.214  0.00  0.00     0.378 A 
ATOM     22  O   UNL d   1      53.741  29.462  53.315  0.00  0.00    -0.258 OA
ATOM     23  O   UNL d   1      53.725  30.455  52.656  0.00  0.00    -0.237 OA
ATOM     24  C   UNL d   1      53.541  29.304  53.937  0.00  0.00     0.121 A 
ATOM     25  C   UNL d   1      53.278  29.852  54.218  0.00  0.00     0.092 A 
ATOM     26  C   UNL d   1      53.563  28.728  54.287  0.00  0.00     0.026 A 
ATOM     27  C   UNL d   1      53.038  29.833  54.843  0.00  0.00     0.020 A 
ATOM     28  C   UNL d   1      53.061  29.256  55.190  0.00  0.00     0.002 A 
ATOM     29  C   UNL d   1      53.322  28.709  54.911  0.00  0.00     0.002 A 
ENDBRANCH  19  20
ENDBRANCH  18  19
ENDBRANCH   2  18
TORSDOF 3
ENDMDL
MODEL 3
REMARK VINA RESULT:      -9.2      0.702      2.686
REMARK  3 active torsions:
REMARK  status: ('A' for Active; 'I' for Inactive)
REMARK    1  A    between atoms: C_13  and  N_2 
REMARK    2  A    between atoms: N_5  and  C_14 
REMARK    3  A    between atoms: C_14  and  C_13 
ROOT
ATOM      1  C   UNL d   1      53.236  33.117  53.818  0.00  0.00     0.166 A 
ATOM      2  N   UNL d   1      52.609  32.901  53.308  0.00  0.00    -0.288 N 
ATOM      3  C   UNL d   1      53.669  32.434  54.001  0.00  0.00     0.117 A 
ATOM      4  N   UNL d   1      53.452  33.859  54.129  0.00  0.00    -0.225 NA
ATOM      5  N   UNL d   1      54.321  32.490  54.497  0.00  0.00    -0.241 NA
ATOM      6  C   UNL d   1      53.309  31.791  53.603  0.00  0.00     0.037 A 
ATOM      7  C   UNL d   1      52.666  32.087  53.185  0.00  0.00     0.067 A 
ATOM      8  C   UNL d   1      54.106  33.921  54.628  0.00  0.00     0.101 A 
ATOM      9  C   UNL d   1      54.540  33.237  54.811  0.00  0.00     0.099 A 
ATOM     10  C   UNL d   1      53.509  30.971  53.585  0.00  0.00     0.003 A 
ATOM     11  C   UNL d   1      52.195  31.552  52.726  0.00  0.00     0.018 A 
ATOM     12  C   UNL d   1      54.330  34.664  54.945  0.00  0.00     0.021 A 
ATOM     13  C   UNL d   1      55.176  33.316  55.300  0.00  0.00     0.021 A 
ATOM     14  C   UNL d   1      53.055  30.456  53.143  0.00  0.00     0.000 A 
ATOM     15  C   UNL d   1      52.408  30.747  52.721  0.00  0.00     0.002 A 
ATOM     16  C   UNL d   1      55.414  34.040  55.624  0.00  0.00     0.002 A 
ATOM     17  C   UNL d   1      54.980  34.724  55.441  0.00  0.00     0.002 A 
ENDROOT
BRANCH   2  18
ATOM     18  C   UNL d   1      51.941  33.058  52.843  0.00  0.00     0.101 C 
BRANCH  18  19
ATOM     19  C   UNL d   1      51.488  33.733  52.982  0.00  0.00     0.104 C 
BRANCH  19  20
ATOM     20  N   UNL d   1      51.006  34.028  52.382  0.00  0.00    -0.250 N 
ATOM     21  C   UNL d   1      51.048  34.074  51.715  0.00  0.00     0.378 A 
ATOM     22  O   UNL d   1      50.489  34.369  51.492  0.00  0.00    -0.258 OA
ATOM     23  O   UNL d   1      51.557  33.864  51.337  0.00  0.00    -0.237 OA
ATOM     24  C   UNL d   1      50.102  34.505  52.024  0.00  0.00     0.121 A 
ATOM     25  C   UNL d   1      50.422  34.294  52.574  0.00  0.00     0.092 A 
ATOM     26  C   UNL d   1      49.496  34.795  52.082  0.00  0.00     0.026 A 
ATOM     27  C   UNL d   1      50.145  34.369  53.179  0.00  0.00     0.020 A 
ATOM     28  C   UNL d   1      49.539  34.659  53.233  0.00  0.00     0.002 A 
ATOM     29  C   UNL d   1      49.220  34.869  52.687  0.00  0.00     0.002 A 
ENDBRANCH  19  20
ENDBRANCH  18  19
ENDBRANCH   2  18
TORSDOF 3
ENDMDL
MODEL 4
REMARK VINA RESULT:      -8.5      1.408      4.346
REMARK  3 active torsions:
REMARK  status: ('A' for Active; 'I' for Inactive)
REMARK    1  A    between atoms: C_13  and  N_2 
REMARK    2  A    between atoms: N_5  and  C_14 
REMARK    3  A    between atoms: C_14  and  C_13 
ROOT
ATOM      1  C   UNL d   1      53.145  33.084  53.866  0.00  0.00     0.166 A 
ATOM      2  N   UNL d   1      52.646  32.570  53.434  0.00  0.00    -0.288 N 
ATOM      3  C   UNL d   1      52.817  33.846  53.843  0.00  0.00     0.117 A 
ATOM      4  N   UNL d   1      53.857  32.936  54.272  0.00  0.00    -0.225 NA
ATOM      5  N   UNL d   1      53.199  34.462  54.226  0.00  0.00    -0.241 NA
ATOM      6  C   UNL d   1      52.111  33.803  53.394  0.00  0.00     0.037 A 
ATOM      7  C   UNL d   1      52.018  33.022  53.152  0.00  0.00     0.067 A 
ATOM      8  C   UNL d   1      54.246  33.553  54.659  0.00  0.00     0.101 A 
ATOM      9  C   UNL d   1      53.916  34.315  54.636  0.00  0.00     0.099 A 
ATOM     10  C   UNL d   1      51.551  34.400  53.188  0.00  0.00     0.003 A 
ATOM     11  C   UNL d   1      51.341  32.819  52.684  0.00  0.00     0.018 A 
ATOM     12  C   UNL d   1      54.962  33.411  55.070  0.00  0.00     0.021 A 
ATOM     13  C   UNL d   1      54.309  34.905  55.019  0.00  0.00     0.021 A 
ATOM     14  C   UNL d   1      50.899  34.203  52.737  0.00  0.00     0.000 A 
ATOM     15  C   UNL d   1      50.799  33.421  52.490  0.00  0.00     0.002 A 
ATOM     16  C   UNL d   1      55.018  34.787  55.431  0.00  0.00     0.002 A 
ATOM     17  C   UNL d   1      55.348  34.025  55.455  0.00  0.00     0.002 A 
ENDROOT
BRANCH   2  18
ATOM     18  C   UNL d   1      52.428  31.833  53.124  0.00  0.00     0.101 C 
BRANCH  18  19
ATOM     19  C   UNL d   1      52.463  31.158  53.596  0.00  0.00     0.104 C 
BRANCH  19  20
ATOM     20  N   UNL d   1      52.757  30.456  53.278  0.00  0.00    -0.250 N 
ATOM     21  C   UNL d   1      52.875  30.225  52.659  0.00  0.00     0.378 A 
ATOM     22  O   UNL d   1      53.122  29.603  52.714  0.00  0.00    -0.258 OA
ATOM     23  O   UNL d   1      52.768  30.554  52.088  0.00  0.00    -0.237 OA
ATOM     24  C   UNL d   1      53.154  29.452  53.368  0.00  0.00     0.121 A 
ATOM     25  C   UNL d   1      52.929  29.980  53.716  0.00  0.00     0.092 A 
ATOM     26  C   UNL d   1      53.361  28.901  53.696  0.00  0.00     0.026 A 
ATOM     27  C   UNL d   1      52.908  29.963  54.385  0.00  0.00     0.020 A 
ATOM     28  C   UNL d   1      53.115  29.409  54.710  0.00  0.00     0.002 A 
ATOM     29  C   UNL d   1      53.339  28.884  54.365  0.00  0.00     0.002 A 
ENDBRANCH  19  20
ENDBRANCH  18  19
ENDBRANCH   2  18
TORSDOF 3
ENDMDL
MODEL 5
REMARK VINA RESULT:      -8.3      9.736     11.096
REMARK  3 active torsions:
REMARK  status: ('A' for Active; 'I' for Inactive)
REMARK    1  A    between atoms: C_13  and  N_2 
REMARK    2  A    between atoms: N_5  and  C_14 
REMARK    3  A    between atoms: C_14  and  C_13 
ROOT
ATOM      1  C   UNL d   1      44.736  29.938  59.647  0.00  0.00     0.166 A 
ATOM      2  N   UNL d   1      44.859  29.495  58.948  0.00  0.00    -0.288 N 
ATOM      3  C   UNL d   1      44.589  30.726  59.434  0.00  0.00     0.117 A 
ATOM      4  N   UNL d   1      44.742  29.703  60.447  0.00  0.00    -0.225 NA
ATOM      5  N   UNL d   1      44.449  31.283  60.020  0.00  0.00    -0.241 NA
ATOM      6  C   UNL d   1      44.622  30.773  58.599  0.00  0.00     0.037 A 
ATOM      7  C   UNL d   1      44.787  30.019  58.314  0.00  0.00     0.067 A 
ATOM      8  C   UNL d   1      44.601  30.259  61.039  0.00  0.00     0.101 A 
ATOM      9  C   UNL d   1      44.455  31.048  60.826  0.00  0.00     0.099 A 
ATOM     10  C   UNL d   1      44.518  31.429  58.078  0.00  0.00     0.003 A 
ATOM     11  C   UNL d   1      44.852  29.904  57.477  0.00  0.00     0.018 A 
ATOM     12  C   UNL d   1      44.606  30.030  61.846  0.00  0.00     0.021 A 
ATOM     13  C   UNL d   1      44.319  31.578  61.418  0.00  0.00     0.021 A 
ATOM     14  C   UNL d   1      44.581  31.317  57.271  0.00  0.00     0.000 A 
ATOM     15  C   UNL d   1      44.746  30.562  56.979  0.00  0.00     0.002 A 
ATOM     16  C   UNL d   1      44.320  31.373  62.221  0.00  0.00     0.002 A 
ATOM     17  C   UNL d   1      44.466  30.584  62.435  0.00  0.00     0.002 A 
ENDROOT
BRANCH   2  18
ATOM     18  C   UNL d   1      45.019  28.800  58.526  0.00  0.00     0.101 C 
BRANCH  18  19
ATOM     19  C   UNL d   1      45.124  28.087  58.928  0.00  0.00     0.104 C 
BRANCH  19  20
ATOM     20  N   UNL d   1      45.272  27.399  58.498  0.00  0.00    -0.250 N 
ATOM     21  C   UNL d   1      45.637  27.242  57.958  0.00  0.00     0.378 A 
ATOM     22  O   UNL d   1      45.560  26.586  57.840  0.00  0.00    -0.258 OA
ATOM     23  O   UNL d   1      46.012  27.663  57.600  0.00  0.00    -0.237 OA
ATOM     24  C   UNL d   1      45.147  26.340  58.309  0.00  0.00     0.121 A 
ATOM     25  C   UNL d   1      44.969  26.842  58.716  0.00  0.00     0.092 A 
ATOM     26  C   UNL d   1      44.907  25.720  58.421  0.00  0.00     0.026 A 
ATOM     27  C   UNL d   1      44.555  26.734  59.231  0.00  0.00     0.020 A 
ATOM     28  C   UNL d   1      44.317  26.112  59.339  0.00  0.00     0.002 A 
ATOM     29  C   UNL d   1      44.494  25.612  58.936  0.00  0.00     0.002 A 
ENDBRANCH  19  20
ENDBRANCH  18  19
ENDBRANCH   2  18
TORSDOF 3
ENDMDL
MODEL 6
REMARK VINA RESULT:      -8.0      9.597     10.613
REMARK  3 active torsions:
REMARK  status: ('A' for Active; 'I' for Inactive)
REMARK    1  A    between atoms: C_13  and  N_2 
REMARK    2  A    between atoms: N_5  and  C_14 
REMARK    3  A    between atoms: C_14  and  C_13 
ROOT
ATOM      1  C   UNL d   1      44.922  29.468  58.457  0.00  0.00     0.166 A 
ATOM      2  N   UNL d   1      44.781  30.167  58.894  0.00  0.00    -0.288 N 
ATOM      3  C   UNL d   1      44.873  29.651  57.650  0.00  0.00     0.117 A 
ATOM      4  N   UNL d   1      45.089  28.692  58.712  0.00  0.00    -0.225 NA
ATOM      5  N   UNL d   1      44.990  29.059  57.094  0.00  0.00    -0.241 NA
ATOM      6  C   UNL d   1      44.701  30.468  57.586  0.00  0.00     0.037 A 
ATOM      7  C   UNL d   1      44.647  30.771  58.349  0.00  0.00     0.067 A 
ATOM      8  C   UNL d   1      45.207  28.094  58.157  0.00  0.00     0.101 A 
ATOM      9  C   UNL d   1      45.158  28.278  57.348  0.00  0.00     0.099 A 
ATOM     10  C   UNL d   1      44.589  30.957  56.907  0.00  0.00     0.003 A 
ATOM     11  C   UNL d   1      44.475  31.595  58.450  0.00  0.00     0.018 A 
ATOM     12  C   UNL d   1      45.375  27.311  58.405  0.00  0.00     0.021 A 
ATOM     13  C   UNL d   1      45.276  27.680  56.820  0.00  0.00     0.021 A 
ATOM     14  C   UNL d   1      44.423  31.751  57.005  0.00  0.00     0.000 A 
ATOM     15  C   UNL d   1      44.368  32.061  57.769  0.00  0.00     0.002 A 
ATOM     16  C   UNL d   1      45.443  26.900  57.044  0.00  0.00     0.002 A 
ATOM     17  C   UNL d   1      45.493  26.716  57.852  0.00  0.00     0.002 A 
ENDROOT
BRANCH   2  18
ATOM     18  C   UNL d   1      44.699  30.602  59.595  0.00  0.00     0.101 C 
BRANCH  18  19
ATOM     19  C   UNL d   1      44.943  30.280  60.314  0.00  0.00     0.104 C 
BRANCH  19  20
ATOM     20  N   UNL d   1      44.689  30.624  61.019  0.00  0.00    -0.250 N 
ATOM     21  C   UNL d   1      44.487  31.235  61.206  0.00  0.00     0.378 A 
ATOM     22  O   UNL d   1      44.340  31.213  61.860  0.00  0.00    -0.258 OA
ATOM     23  O   UNL d   1      44.438  31.772  60.812  0.00  0.00    -0.237 OA
ATOM     24  C   UNL d   1      44.453  30.587  62.075  0.00  0.00     0.121 A 
ATOM     25  C   UNL d   1      44.669  30.223  61.555  0.00  0.00     0.092 A 
ATOM     26  C   UNL d   1      44.388  30.297  62.680  0.00  0.00     0.026 A 
ATOM     27  C   UNL d   1      44.820  29.575  61.631  0.00  0.00     0.020 A 
ATOM     28  C   UNL d   1      44.754  29.288  62.238  0.00  0.00     0.002 A 
ATOM     29  C   UNL d   1      44.539  29.649  62.756  0.00  0.00     0.002 A 
ENDBRANCH  19  20
ENDBRANCH  18  19
ENDBRANCH   2  18
TORSDOF 3
ENDMDL
