MODEL 1
REMARK VINA RESULT:      -1.0      0.000      0.000
REMARK  4 active torsions:
REMARK  status: ('A' for Active; 'I' for Inactive)
REMARK    1  A    between atoms: N_2  and  S_1 
REMARK    2  A    between atoms: C_3  and  S_1 
REMARK    3  A    between atoms: C_5  and  N_4 
REMARK    4  A    between atoms: O_17  and  C_14 
ROOT
ATOM      1  N   UNL d   1      30.862  16.688 -24.564  0.00  0.00    -0.226 N 
ATOM      2  N   UNL d   1      31.808  17.918 -24.042  0.00  0.00    -0.299 N 
ATOM      3  C   UNL d   1      30.966  17.358 -25.040  0.00  0.00     0.111 A 
ATOM      4  C   UNL d   1      31.231  16.636 -23.830  0.00  0.00     0.111 A 
ATOM      5  C   UNL d   1      31.444  17.975 -24.773  0.00  0.00     0.100 A 
ATOM      6  C   UNL d   1      31.707  17.258 -23.571  0.00  0.00     0.100 A 
ENDROOT
BRANCH   1   7
ATOM      7  S   UNL d   1      30.385  16.068 -24.827  0.00  0.00     0.272 S 
ATOM      8  O   UNL d   1      29.916  15.453 -25.089  0.00  0.00    -0.200 OA
ATOM      9  O   UNL d   1      31.056  15.672 -25.097  0.00  0.00    -0.200 OA
BRANCH   7  10
ATOM     10  C   UNL d   1      29.718  16.471 -24.554  0.00  0.00     0.106 A 
ATOM     11  C   UNL d   1      29.300  16.192 -23.897  0.00  0.00     0.037 A 
ATOM     12  C   UNL d   1      28.635  16.600 -23.630  0.00  0.00     0.095 A 
ATOM     13  C   UNL d   1      28.387  17.287 -24.020  0.00  0.00     0.024 A 
ATOM     14  C   UNL d   1      28.806  17.562 -24.675  0.00  0.00     0.003 A 
ATOM     15  C   UNL d   1      29.471  17.154 -24.941  0.00  0.00     0.013 A 
BRANCH  12  16
ATOM     16  O   UNL d   1      28.217  16.326 -22.977  0.00  0.00    -0.328 OA
ATOM     17  C   UNL d   1      27.397  16.239 -23.016  0.00  0.00     0.181 C 
ENDBRANCH  12  16
ENDBRANCH   7  10
ENDBRANCH   1   7
BRANCH   2  18
ATOM     18  C   UNL d   1      32.286  18.535 -23.776  0.00  0.00     0.092 A 
ATOM     19  C   UNL d   1      32.434  18.619 -22.973  0.00  0.00     0.156 A 
ATOM     20  F   UNL d   1      32.084  18.061 -22.469  0.00  0.00    -0.203 F 
ATOM     21  C   UNL d   1      32.911  19.233 -22.694  0.00  0.00     0.031 A 
ATOM     22  C   UNL d   1      33.241  19.769 -23.239  0.00  0.00     0.002 A 
ATOM     23  C   UNL d   1      33.091  19.684 -24.048  0.00  0.00     0.002 A 
ATOM     24  C   UNL d   1      32.613  19.066 -24.314  0.00  0.00     0.020 A 
ENDBRANCH   2  18
TORSDOF 4
ENDMDL
MODEL 2
REMARK VINA RESULT:       1.3      2.035      3.063
REMARK  4 active torsions:
REMARK  status: ('A' for Active; 'I' for Inactive)
REMARK    1  A    between atoms: N_2  and  S_1 
REMARK    2  A    between atoms: C_3  and  S_1 
REMARK    3  A    between atoms: C_5  and  N_4 
REMARK    4  A    between atoms: O_17  and  C_14 
ROOT
ATOM      1  N   UNL d   1      32.788  18.514 -22.996  0.00  0.00    -0.226 N 
ATOM      2  N   UNL d   1      32.951  20.107 -23.335  0.00  0.00    -0.299 N 
ATOM      3  C   UNL d   1      33.161  18.749 -23.697  0.00  0.00     0.111 A 
ATOM      4  C   UNL d   1      32.499  19.075 -22.468  0.00  0.00     0.111 A 
ATOM      5  C   UNL d   1      33.241  19.553 -23.864  0.00  0.00     0.100 A 
ATOM      6  C   UNL d   1      32.583  19.877 -22.642  0.00  0.00     0.100 A 
ENDROOT
BRANCH   1   7
ATOM      7  S   UNL d   1      32.706  17.710 -22.825  0.00  0.00     0.272 S 
ATOM      8  O   UNL d   1      32.627  16.916 -22.653  0.00  0.00    -0.200 OA
ATOM      9  O   UNL d   1      33.181  17.808 -22.157  0.00  0.00    -0.200 OA
BRANCH   7  10
ATOM     10  C   UNL d   1      32.232  17.621 -23.495  0.00  0.00     0.106 A 
ATOM     11  C   UNL d   1      31.410  17.696 -23.439  0.00  0.00     0.037 A 
ATOM     12  C   UNL d   1      30.943  17.605 -24.113  0.00  0.00     0.095 A 
ATOM     13  C   UNL d   1      31.298  17.439 -24.842  0.00  0.00     0.024 A 
ATOM     14  C   UNL d   1      32.117  17.365 -24.894  0.00  0.00     0.003 A 
ATOM     15  C   UNL d   1      32.584  17.456 -24.221  0.00  0.00     0.013 A 
BRANCH  12  16
ATOM     16  O   UNL d   1      30.125  17.679 -24.061  0.00  0.00    -0.328 OA
ATOM     17  C   UNL d   1      29.652  17.515 -24.718  0.00  0.00     0.181 C 
ENDBRANCH  12  16
ENDBRANCH   7  10
ENDBRANCH   1   7
BRANCH   2  18
ATOM     18  C   UNL d   1      33.032  20.911 -23.502  0.00  0.00     0.092 A 
ATOM     19  C   UNL d   1      33.024  21.168 -24.281  0.00  0.00     0.156 A 
ATOM     20  F   UNL d   1      32.933  20.586 -24.865  0.00  0.00    -0.203 F 
ATOM     21  C   UNL d   1      33.103  21.970 -24.461  0.00  0.00     0.031 A 
ATOM     22  C   UNL d   1      33.192  22.518 -23.840  0.00  0.00     0.002 A 
ATOM     23  C   UNL d   1      33.199  22.257 -23.055  0.00  0.00     0.002 A 
ATOM     24  C   UNL d   1      33.119  21.453 -22.888  0.00  0.00     0.020 A 
ENDBRANCH   2  18
TORSDOF 4
ENDMDL
MODEL 3
REMARK VINA RESULT:       1.4      1.442      2.238
REMARK  4 active torsions:
REMARK  status: ('A' for Active; 'I' for Inactive)
REMARK    1  A    between atoms: N_2  and  S_1 
REMARK    2  A    between atoms: C_3  and  S_1 
REMARK    3  A    between atoms: C_5  and  N_4 
REMARK    4  A    between atoms: O_17  and  C_14 
ROOT
ATOM      1  N   UNL d   1      32.546  18.176 -24.137  0.00  0.00    -0.226 N 
ATOM      2  N   UNL d   1      32.782  19.483 -23.180  0.00  0.00    -0.299 N 
ATOM      3  C   UNL d   1      32.495  18.098 -23.314  0.00  0.00     0.111 A 
ATOM      4  C   UNL d   1      32.714  18.906 -24.477  0.00  0.00     0.111 A 
ATOM      5  C   UNL d   1      32.615  18.759 -22.835  0.00  0.00     0.100 A 
ATOM      6  C   UNL d   1      32.833  19.563 -23.992  0.00  0.00     0.100 A 
ENDROOT
BRANCH   1   7
ATOM      7  S   UNL d   1      32.427  17.517 -24.619  0.00  0.00     0.272 S 
ATOM      8  O   UNL d   1      32.313  16.864 -25.097  0.00  0.00    -0.200 OA
ATOM      9  O   UNL d   1      33.241  17.380 -24.626  0.00  0.00    -0.200 OA
BRANCH   7  10
ATOM     10  C   UNL d   1      31.615  17.661 -24.608  0.00  0.00     0.106 A 
ATOM     11  C   UNL d   1      31.119  17.223 -24.112  0.00  0.00     0.037 A 
ATOM     12  C   UNL d   1      30.307  17.372 -24.107  0.00  0.00     0.095 A 
ATOM     13  C   UNL d   1      29.992  17.960 -24.597  0.00  0.00     0.024 A 
ATOM     14  C   UNL d   1      30.489  18.394 -25.091  0.00  0.00     0.003 A 
ATOM     15  C   UNL d   1      31.300  18.245 -25.096  0.00  0.00     0.013 A 
BRANCH  12  16
ATOM     16  O   UNL d   1      29.811  16.938 -23.614  0.00  0.00    -0.328 OA
ATOM     17  C   UNL d   1      29.098  16.641 -23.904  0.00  0.00     0.181 C 
ENDBRANCH  12  16
ENDBRANCH   7  10
ENDBRANCH   1   7
BRANCH   2  18
ATOM     18  C   UNL d   1      32.901  20.144 -22.701  0.00  0.00     0.092 A 
ATOM     19  C   UNL d   1      33.086  20.045 -21.907  0.00  0.00     0.156 A 
ATOM     20  F   UNL d   1      33.141  19.264 -21.632  0.00  0.00    -0.203 F 
ATOM     21  C   UNL d   1      33.208  20.699 -21.417  0.00  0.00     0.031 A 
ATOM     22  C   UNL d   1      33.141  21.463 -21.739  0.00  0.00     0.002 A 
ATOM     23  C   UNL d   1      32.955  21.562 -22.539  0.00  0.00     0.002 A 
ATOM     24  C   UNL d   1      32.836  20.901 -23.018  0.00  0.00     0.020 A 
ENDBRANCH   2  18
TORSDOF 4
ENDMDL
MODEL 4
REMARK VINA RESULT:       1.9      1.600      4.007
REMARK  4 active torsions:
REMARK  status: ('A' for Active; 'I' for Inactive)
REMARK    1  A    between atoms: N_2  and  S_1 
REMARK    2  A    between atoms: C_3  and  S_1 
REMARK    3  A    between atoms: C_5  and  N_4 
REMARK    4  A    between atoms: O_17  and  C_14 
ROOT
ATOM      1  N   UNL d   1      31.651  16.189 -24.490  0.00  0.00    -0.226 N 
ATOM      2  N   UNL d   1      30.065  16.180 -24.083  0.00  0.00    -0.299 N 
ATOM      3  C   UNL d   1      31.090  16.501 -25.013  0.00  0.00     0.111 A 
ATOM      4  C   UNL d   1      31.417  15.875 -23.766  0.00  0.00     0.111 A 
ATOM      5  C   UNL d   1      30.292  16.495 -24.804  0.00  0.00     0.100 A 
ATOM      6  C   UNL d   1      30.617  15.872 -23.564  0.00  0.00     0.100 A 
ENDROOT
BRANCH   1   7
ATOM      7  S   UNL d   1      32.450  16.194 -24.695  0.00  0.00     0.272 S 
ATOM      8  O   UNL d   1      33.241  16.195 -24.900  0.00  0.00    -0.200 OA
ATOM      9  O   UNL d   1      32.360  15.452 -25.045  0.00  0.00    -0.200 OA
BRANCH   7  10
ATOM     10  C   UNL d   1      32.532  16.935 -24.343  0.00  0.00     0.106 A 
ATOM     11  C   UNL d   1      32.480  17.624 -24.798  0.00  0.00     0.037 A 
ATOM     12  C   UNL d   1      32.563  18.362 -24.439  0.00  0.00     0.095 A 
ATOM     13  C   UNL d   1      32.699  18.411 -23.624  0.00  0.00     0.024 A 
ATOM     14  C   UNL d   1      32.750  17.724 -23.172  0.00  0.00     0.003 A 
ATOM     15  C   UNL d   1      32.667  16.986 -23.532  0.00  0.00     0.013 A 
BRANCH  12  16
ATOM     16  O   UNL d   1      32.512  19.049 -24.889  0.00  0.00    -0.328 OA
ATOM     17  C   UNL d   1      33.055  19.660 -24.776  0.00  0.00     0.181 C 
ENDBRANCH  12  16
ENDBRANCH   7  10
ENDBRANCH   1   7
BRANCH   2  18
ATOM     18  C   UNL d   1      29.267  16.174 -23.874  0.00  0.00     0.092 A 
ATOM     19  C   UNL d   1      28.856  16.881 -23.811  0.00  0.00     0.156 A 
ATOM     20  F   UNL d   1      29.284  17.576 -23.966  0.00  0.00    -0.203 F 
ATOM     21  C   UNL d   1      28.057  16.888 -23.602  0.00  0.00     0.031 A 
ATOM     22  C   UNL d   1      27.671  16.165 -23.456  0.00  0.00     0.002 A 
ATOM     23  C   UNL d   1      28.086  15.453 -23.520  0.00  0.00     0.002 A 
ATOM     24  C   UNL d   1      28.884  15.459 -23.729  0.00  0.00     0.020 A 
ENDBRANCH   2  18
TORSDOF 4
ENDMDL
