MODEL 1
REMARK VINA RESULT:     126.6      0.000      0.000
REMARK  7 active torsions:
REMARK  status: ('A' for Active; 'I' for Inactive)
REMARK    1  A    between atoms: N_5  and  S_1 
REMARK    2  A    between atoms: C_8  and  S_1 
REMARK    3  A    between atoms: C_2  and  C_11 
REMARK    4  A    between atoms: C_9  and  N_5 
REMARK    5  A    between atoms: C_10  and  C_9 
REMARK       I    between atoms: N_14  and  C_10 
REMARK    6  A    between atoms: C_24  and  N_14 
REMARK    7  A    between atoms: C_15  and  C_16 
ROOT
ATOM      1  C   UNL d   1     -54.990-100.904 -41.858  0.00  0.00     0.299 C 
ATOM      2  N   UNL d   1     -54.990-101.663 -41.568  0.00  0.00    -0.207 NA
ATOM      3  O   UNL d   1     -55.050-100.257 -41.342  0.00  0.00    -0.263 OA
ENDROOT
BRANCH   1   4
ATOM      4  C   UNL d   1     -54.929-100.763 -42.678  0.00  0.00     0.174 C 
BRANCH   4   5
ATOM      5  N   UNL d   1     -55.397-101.198 -43.188  0.00  0.00    -0.152 NA
BRANCH   5   6
ATOM      6  S   UNL d   1     -55.690-100.839 -43.882  0.00  0.00     0.285 S 
ATOM      7  O   UNL d   1     -56.251-100.435 -43.430  0.00  0.00    -0.198 OA
ATOM      8  O   UNL d   1     -55.127-101.245 -44.329  0.00  0.00    -0.198 OA
BRANCH   6   9
ATOM      9  C   UNL d   1     -55.977-100.486 -44.570  0.00  0.00     0.105 A 
ATOM     10  C   UNL d   1     -56.706-100.113 -44.569  0.00  0.00     0.013 A 
ATOM     11  C   UNL d   1     -56.994 -99.759 -45.256  0.00  0.00    -0.004 A 
ATOM     12  C   UNL d   1     -56.543 -99.782 -45.950  0.00  0.00    -0.023 A 
ATOM     13  C   UNL d   1     -55.805-100.161 -45.947  0.00  0.00    -0.004 A 
ATOM     14  C   UNL d   1     -55.527-100.509 -45.262  0.00  0.00     0.013 A 
BRANCH  12  15
ATOM     15  C   UNL d   1     -56.824 -99.431 -46.642  0.00  0.00     0.019 C 
ATOM     16  C   UNL d   1     -57.358 -98.993 -46.198  0.00  0.00     0.004 C 
ATOM     17  C   UNL d   1     -56.283 -99.875 -47.087  0.00  0.00     0.004 C 
ATOM     18  C   UNL d   1     -57.108 -99.077 -47.331  0.00  0.00     0.004 C 
ENDBRANCH  12  15
ENDBRANCH   6   9
ENDBRANCH   5   6
ENDBRANCH   4   5
ENDBRANCH   1   4
BRANCH   2  19
ATOM     19  C   UNL d   1     -55.050-101.794 -40.756  0.00  0.00     0.085 A 
ATOM     20  C   UNL d   1     -55.408-101.225 -40.282  0.00  0.00     0.019 A 
ATOM     21  C   UNL d   1     -55.476-101.344 -39.460  0.00  0.00     0.004 A 
ATOM     22  C   UNL d   1     -55.185-102.033 -39.119  0.00  0.00     0.024 A 
ATOM     23  C   UNL d   1     -54.825-102.605 -39.594  0.00  0.00     0.004 A 
ATOM     24  C   UNL d   1     -54.755-102.492 -40.409  0.00  0.00     0.019 A 
BRANCH  22  25
ATOM     25  C   UNL d   1     -55.259-102.140 -38.299  0.00  0.00     0.111 A 
ATOM     26  N   UNL d   1     -54.801-101.734 -37.754  0.00  0.00    -0.239 NA
ATOM     27  C   UNL d   1     -55.021-101.975 -36.996  0.00  0.00     0.088 A 
ATOM     28  C   UNL d   1     -54.756-101.759 -36.246  0.00  0.00     0.020 A 
ATOM     29  C   UNL d   1     -55.620-102.535 -37.076  0.00  0.00     0.049 A 
ATOM     30  C   UNL d   1     -55.091-102.104 -35.578  0.00  0.00     0.002 A 
ATOM     31  C   UNL d   1     -55.690-102.664 -35.659  0.00  0.00     0.001 A 
ATOM     32  C   UNL d   1     -55.956-102.880 -36.407  0.00  0.00     0.008 A 
ATOM     33  S   UNL d   1     -55.767-102.637 -37.884  0.00  0.00    -0.066 SA
ENDBRANCH  22  25
ENDBRANCH   2  19
TORSDOF 7
ENDMDL
