MODEL 1
REMARK VINA RESULT:      -6.9      0.000      0.000
REMARK  6 active torsions:
REMARK  status: ('A' for Active; 'I' for Inactive)
REMARK    1  A    between atoms: C_2  and  S_1 
REMARK    2  A    between atoms: N_3  and  S_1 
REMARK    3  A    between atoms: C_10  and  N_3 
REMARK    4  A    between atoms: O_15  and  C_5 
REMARK    5  A    between atoms: C_13  and  C_10 
REMARK    6  A    between atoms: C_17  and  O_15 
ROOT
ATOM      1  S   UNL d   1     -46.353  12.921  22.871  0.00  0.00     0.285 S 
ATOM      2  O   UNL d   1     -46.352  13.015  23.696  0.00  0.00    -0.198 OA
ATOM      3  O   UNL d   1     -46.355  12.827  22.053  0.00  0.00    -0.198 OA
ENDROOT
BRANCH   1   4
ATOM      4  C   UNL d   1     -46.975  13.459  22.811  0.00  0.00     0.107 A 
ATOM      5  C   UNL d   1     -47.757  13.194  22.863  0.00  0.00     0.038 A 
ATOM      6  C   UNL d   1     -48.385  13.738  22.802  0.00  0.00     0.111 A 
ATOM      7  C   UNL d   1     -48.226  14.542  22.689  0.00  0.00     0.081 A 
ATOM      8  C   UNL d   1     -47.447  14.804  22.638  0.00  0.00     0.014 A 
ATOM      9 CL   UNL d   1     -48.848  15.081  22.629  0.00  0.00    -0.080 Cl
ATOM     10  C   UNL d   1     -46.819  14.260  22.699  0.00  0.00     0.014 A 
BRANCH   6  11
ATOM     11  O   UNL d   1     -49.165  13.476  22.853  0.00  0.00    -0.304 OA
BRANCH  11  12
ATOM     12  C   UNL d   1     -49.359  12.870  23.374  0.00  0.00     0.123 C 
ATOM     13  C   UNL d   1     -50.131  12.583  23.399  0.00  0.00     0.029 C 
ENDBRANCH  11  12
ENDBRANCH   6  11
ENDBRANCH   1   4
BRANCH   1  14
ATOM     14  N   UNL d   1     -45.731  12.382  22.932  0.00  0.00    -0.155 NA
BRANCH  14  15
ATOM     15  C   UNL d   1     -45.806  11.720  23.421  0.00  0.00     0.131 C 
BRANCH  15  16
ATOM     16  C   UNL d   1     -45.202  11.158  23.448  0.00  0.00     0.101 A 
ATOM     17  N   UNL d   1     -44.430  11.373  23.257  0.00  0.00    -0.242 NA
ATOM     18  C   UNL d   1     -43.826  10.812  23.284  0.00  0.00     0.099 A 
ATOM     19  C   UNL d   1     -43.994  10.036  23.503  0.00  0.00     0.021 A 
ATOM     20  C   UNL d   1     -44.768   9.818  23.695  0.00  0.00     0.003 A 
ATOM     21  C   UNL d   1     -45.372  10.379  23.668  0.00  0.00     0.021 A 
ENDBRANCH  15  16
ENDBRANCH  14  15
ENDBRANCH   1  14
TORSDOF 6
ENDMDL
MODEL 2
REMARK VINA RESULT:      -6.5      2.364      4.965
REMARK  6 active torsions:
REMARK  status: ('A' for Active; 'I' for Inactive)
REMARK    1  A    between atoms: C_2  and  S_1 
REMARK    2  A    between atoms: N_3  and  S_1 
REMARK    3  A    between atoms: C_10  and  N_3 
REMARK    4  A    between atoms: O_15  and  C_5 
REMARK    5  A    between atoms: C_13  and  C_10 
REMARK    6  A    between atoms: C_17  and  O_15 
ROOT
ATOM      1  S   UNL d   1     -48.070  13.241  22.961  0.00  0.00     0.285 S 
ATOM      2  O   UNL d   1     -48.453  12.654  22.516  0.00  0.00    -0.198 OA
ATOM      3  O   UNL d   1     -47.689  13.823  23.403  0.00  0.00    -0.198 OA
ENDROOT
BRANCH   1   4
ATOM      4  C   UNL d   1     -47.453  12.716  23.121  0.00  0.00     0.107 A 
ATOM      5  C   UNL d   1     -46.686  12.890  22.865  0.00  0.00     0.038 A 
ATOM      6  C   UNL d   1     -46.063  12.361  23.027  0.00  0.00     0.111 A 
ATOM      7  C   UNL d   1     -46.214  11.662  23.444  0.00  0.00     0.081 A 
ATOM      8  C   UNL d   1     -46.978  11.491  23.698  0.00  0.00     0.014 A 
ATOM      9 CL   UNL d   1     -45.597  11.138  23.604  0.00  0.00    -0.080 Cl
ATOM     10  C   UNL d   1     -47.600  12.021  23.536  0.00  0.00     0.014 A 
BRANCH   6  11
ATOM     11  O   UNL d   1     -45.299  12.532  22.772  0.00  0.00    -0.304 OA
BRANCH  11  12
ATOM     12  C   UNL d   1     -45.183  12.909  22.049  0.00  0.00     0.123 C 
ATOM     13  C   UNL d   1     -44.417  13.055  21.782  0.00  0.00     0.029 C 
ENDBRANCH  11  12
ENDBRANCH   6  11
ENDBRANCH   1   4
BRANCH   1  14
ATOM     14  N   UNL d   1     -48.686  13.765  22.800  0.00  0.00    -0.155 NA
BRANCH  14  15
ATOM     15  C   UNL d   1     -49.156  14.050  23.418  0.00  0.00     0.131 C 
BRANCH  15  16
ATOM     16  C   UNL d   1     -49.792  14.549  23.254  0.00  0.00     0.101 A 
ATOM     17  N   UNL d   1     -50.384  14.307  22.734  0.00  0.00    -0.242 NA
ATOM     18  C   UNL d   1     -51.020  14.806  22.571  0.00  0.00     0.099 A 
ATOM     19  C   UNL d   1     -51.064  15.547  22.927  0.00  0.00     0.021 A 
ATOM     20  C   UNL d   1     -50.472  15.793  23.449  0.00  0.00     0.003 A 
ATOM     21  C   UNL d   1     -49.836  15.293  23.613  0.00  0.00     0.021 A 
ENDBRANCH  15  16
ENDBRANCH  14  15
ENDBRANCH   1  14
TORSDOF 6
ENDMDL
MODEL 3
REMARK VINA RESULT:      -6.3      1.387      1.694
REMARK  6 active torsions:
REMARK  status: ('A' for Active; 'I' for Inactive)
REMARK    1  A    between atoms: C_2  and  S_1 
REMARK    2  A    between atoms: N_3  and  S_1 
REMARK    3  A    between atoms: C_10  and  N_3 
REMARK    4  A    between atoms: O_15  and  C_5 
REMARK    5  A    between atoms: C_13  and  C_10 
REMARK    6  A    between atoms: C_17  and  O_15 
ROOT
ATOM      1  S   UNL d   1     -46.393  13.550  22.760  0.00  0.00     0.285 S 
ATOM      2  O   UNL d   1     -46.242  13.804  23.536  0.00  0.00    -0.198 OA
ATOM      3  O   UNL d   1     -46.544  13.298  21.990  0.00  0.00    -0.198 OA
ENDROOT
BRANCH   1   4
ATOM      4  C   UNL d   1     -47.165  13.837  22.817  0.00  0.00     0.107 A 
ATOM      5  C   UNL d   1     -47.776  13.333  23.059  0.00  0.00     0.038 A 
ATOM      6  C   UNL d   1     -48.555  13.622  23.116  0.00  0.00     0.111 A 
ATOM      7  C   UNL d   1     -48.716  14.413  22.932  0.00  0.00     0.081 A 
ATOM      8  C   UNL d   1     -48.107  14.912  22.692  0.00  0.00     0.014 A 
ATOM      9 CL   UNL d   1     -49.488  14.699  22.989  0.00  0.00    -0.080 Cl
ATOM     10  C   UNL d   1     -47.328  14.622  22.634  0.00  0.00     0.014 A 
BRANCH   6  11
ATOM     11  O   UNL d   1     -49.164  13.123  23.356  0.00  0.00    -0.304 OA
BRANCH  11  12
ATOM     12  C   UNL d   1     -49.143  12.325  23.153  0.00  0.00     0.123 C 
ATOM     13  C   UNL d   1     -49.710  11.810  23.458  0.00  0.00     0.029 C 
ENDBRANCH  11  12
ENDBRANCH   6  11
ENDBRANCH   1   4
BRANCH   1  14
ATOM     14  N   UNL d   1     -45.622  13.263  22.703  0.00  0.00    -0.155 NA
BRANCH  14  15
ATOM     15  C   UNL d   1     -45.329  13.011  21.972  0.00  0.00     0.131 C 
BRANCH  15  16
ATOM     16  C   UNL d   1     -44.544  12.765  21.907  0.00  0.00     0.101 A 
ATOM     17  N   UNL d   1     -44.270  12.133  22.359  0.00  0.00    -0.242 NA
ATOM     18  C   UNL d   1     -43.485  11.887  22.293  0.00  0.00     0.099 A 
ATOM     19  C   UNL d   1     -42.975  12.274  21.775  0.00  0.00     0.021 A 
ATOM     20  C   UNL d   1     -43.247  12.908  21.320  0.00  0.00     0.003 A 
ATOM     21  C   UNL d   1     -44.032  13.154  21.386  0.00  0.00     0.021 A 
ENDBRANCH  15  16
ENDBRANCH  14  15
ENDBRANCH   1  14
TORSDOF 6
ENDMDL
MODEL 4
REMARK VINA RESULT:      -6.2      2.159      4.682
REMARK  6 active torsions:
REMARK  status: ('A' for Active; 'I' for Inactive)
REMARK    1  A    between atoms: C_2  and  S_1 
REMARK    2  A    between atoms: N_3  and  S_1 
REMARK    3  A    between atoms: C_10  and  N_3 
REMARK    4  A    between atoms: O_15  and  C_5 
REMARK    5  A    between atoms: C_13  and  C_10 
REMARK    6  A    between atoms: C_17  and  O_15 
ROOT
ATOM      1  S   UNL d   1     -47.537  13.555  22.841  0.00  0.00     0.285 S 
ATOM      2  O   UNL d   1     -47.249  14.158  23.333  0.00  0.00    -0.198 OA
ATOM      3  O   UNL d   1     -47.824  12.957  22.353  0.00  0.00    -0.198 OA
ENDROOT
BRANCH   1   4
ATOM      4  C   UNL d   1     -46.765  13.305  22.696  0.00  0.00     0.107 A 
ATOM      5  C   UNL d   1     -46.467  12.637  23.083  0.00  0.00     0.038 A 
ATOM      6  C   UNL d   1     -45.687  12.384  22.936  0.00  0.00     0.111 A 
ATOM      7  C   UNL d   1     -45.212  12.801  22.402  0.00  0.00     0.081 A 
ATOM      8  C   UNL d   1     -45.510  13.465  22.018  0.00  0.00     0.014 A 
ATOM      9 CL   UNL d   1     -44.439  12.550  22.257  0.00  0.00    -0.080 Cl
ATOM     10  C   UNL d   1     -46.290  13.718  22.165  0.00  0.00     0.014 A 
BRANCH   6  11
ATOM     11  O   UNL d   1     -45.389  11.720  23.321  0.00  0.00    -0.304 OA
BRANCH  11  12
ATOM     12  C   UNL d   1     -45.899  11.113  23.545  0.00  0.00     0.123 C 
ATOM     13  C   UNL d   1     -45.598  10.361  23.698  0.00  0.00     0.029 C 
ENDBRANCH  11  12
ENDBRANCH   6  11
ENDBRANCH   1   4
BRANCH   1  14
ATOM     14  N   UNL d   1     -48.310  13.806  22.987  0.00  0.00    -0.155 NA
BRANCH  14  15
ATOM     15  C   UNL d   1     -48.668  14.352  22.480  0.00  0.00     0.131 C 
BRANCH  15  16
ATOM     16  C   UNL d   1     -49.437  14.611  22.632  0.00  0.00     0.101 A 
ATOM     17  N   UNL d   1     -50.071  14.285  22.220  0.00  0.00    -0.242 NA
ATOM     18  C   UNL d   1     -50.840  14.544  22.372  0.00  0.00     0.099 A 
ATOM     19  C   UNL d   1     -50.973  15.129  22.936  0.00  0.00     0.021 A 
ATOM     20  C   UNL d   1     -50.338  15.457  23.351  0.00  0.00     0.003 A 
ATOM     21  C   UNL d   1     -49.570  15.198  23.199  0.00  0.00     0.021 A 
ENDBRANCH  15  16
ENDBRANCH  14  15
ENDBRANCH   1  14
TORSDOF 6
ENDMDL
MODEL 5
REMARK VINA RESULT:      -6.1      1.412      2.085
REMARK  6 active torsions:
REMARK  status: ('A' for Active; 'I' for Inactive)
REMARK    1  A    between atoms: C_2  and  S_1 
REMARK    2  A    between atoms: N_3  and  S_1 
REMARK    3  A    between atoms: C_10  and  N_3 
REMARK    4  A    between atoms: O_15  and  C_5 
REMARK    5  A    between atoms: C_13  and  C_10 
REMARK    6  A    between atoms: C_17  and  O_15 
ROOT
ATOM      1  S   UNL d   1     -47.867  14.008  22.566  0.00  0.00     0.285 S 
ATOM      2  O   UNL d   1     -48.137  13.589  21.902  0.00  0.00    -0.198 OA
ATOM      3  O   UNL d   1     -47.599  14.423  23.225  0.00  0.00    -0.198 OA
ENDROOT
BRANCH   1   4
ATOM      4  C   UNL d   1     -48.632  14.283  22.703  0.00  0.00     0.107 A 
ATOM      5  C   UNL d   1     -49.221  13.759  22.954  0.00  0.00     0.038 A 
ATOM      6  C   UNL d   1     -49.994  14.037  23.093  0.00  0.00     0.111 A 
ATOM      7  C   UNL d   1     -50.172  14.837  22.980  0.00  0.00     0.081 A 
ATOM      8  C   UNL d   1     -49.584  15.357  22.731  0.00  0.00     0.014 A 
ATOM      9 CL   UNL d   1     -50.937  15.113  23.117  0.00  0.00    -0.080 Cl
ATOM     10  C   UNL d   1     -48.811  15.079  22.592  0.00  0.00     0.014 A 
BRANCH   6  11
ATOM     11  O   UNL d   1     -50.582  13.516  23.342  0.00  0.00    -0.304 OA
BRANCH  11  12
ATOM     12  C   UNL d   1     -50.379  12.755  23.583  0.00  0.00     0.123 C 
ATOM     13  C   UNL d   1     -50.969  12.192  23.698  0.00  0.00     0.029 C 
ENDBRANCH  11  12
ENDBRANCH   6  11
ENDBRANCH   1   4
BRANCH   1  14
ATOM     14  N   UNL d   1     -47.102  13.732  22.428  0.00  0.00    -0.155 NA
BRANCH  14  15
ATOM     15  C   UNL d   1     -46.717  13.280  23.004  0.00  0.00     0.131 C 
BRANCH  15  16
ATOM     16  C   UNL d   1     -46.009  12.897  22.821  0.00  0.00     0.101 A 
ATOM     17  N   UNL d   1     -45.818  12.185  23.188  0.00  0.00    -0.242 NA
ATOM     18  C   UNL d   1     -45.110  11.802  23.005  0.00  0.00     0.099 A 
ATOM     19  C   UNL d   1     -44.594  12.132  22.455  0.00  0.00     0.021 A 
ATOM     20  C   UNL d   1     -44.783  12.847  22.086  0.00  0.00     0.003 A 
ATOM     21  C   UNL d   1     -45.491  13.230  22.269  0.00  0.00     0.021 A 
ENDBRANCH  15  16
ENDBRANCH  14  15
ENDBRANCH   1  14
TORSDOF 6
ENDMDL
MODEL 6
REMARK VINA RESULT:      -5.3      7.969      8.839
REMARK  6 active torsions:
REMARK  status: ('A' for Active; 'I' for Inactive)
REMARK    1  A    between atoms: C_2  and  S_1 
REMARK    2  A    between atoms: N_3  and  S_1 
REMARK    3  A    between atoms: C_10  and  N_3 
REMARK    4  A    between atoms: O_15  and  C_5 
REMARK    5  A    between atoms: C_13  and  C_10 
REMARK    6  A    between atoms: C_17  and  O_15 
ROOT
ATOM      1  S   UNL d   1     -40.047  14.570  19.238  0.00  0.00     0.285 S 
ATOM      2  O   UNL d   1     -40.504  13.903  19.049  0.00  0.00    -0.198 OA
ATOM      3  O   UNL d   1     -39.594  15.232  19.425  0.00  0.00    -0.198 OA
ENDROOT
BRANCH   1   4
ATOM      4  C   UNL d   1     -40.220  14.896  18.500  0.00  0.00     0.107 A 
ATOM      5  C   UNL d   1     -39.811  14.638  17.828  0.00  0.00     0.038 A 
ATOM      6  C   UNL d   1     -39.985  14.967  17.083  0.00  0.00     0.111 A 
ATOM      7  C   UNL d   1     -40.566  15.552  17.016  0.00  0.00     0.081 A 
ATOM      8  C   UNL d   1     -40.971  15.807  17.685  0.00  0.00     0.014 A 
ATOM      9 CL   UNL d   1     -40.738  15.878  16.278  0.00  0.00    -0.080 Cl
ATOM     10  C   UNL d   1     -40.798  15.478  18.430  0.00  0.00     0.014 A 
BRANCH   6  11
ATOM     11  O   UNL d   1     -39.578  14.711  16.414  0.00  0.00    -0.304 OA
BRANCH  11  12
ATOM     12  C   UNL d   1     -38.803  14.443  16.483  0.00  0.00     0.123 C 
ATOM     13  C   UNL d   1     -38.424  14.115  15.829  0.00  0.00     0.029 C 
ENDBRANCH  11  12
ENDBRANCH   6  11
ENDBRANCH   1   4
BRANCH   1  14
ATOM     14  N   UNL d   1     -39.875  14.244  19.976  0.00  0.00    -0.155 NA
BRANCH  14  15
ATOM     15  C   UNL d   1     -39.175  14.451  20.364  0.00  0.00     0.131 C 
BRANCH  15  16
ATOM     16  C   UNL d   1     -38.946  14.042  21.043  0.00  0.00     0.101 A 
ATOM     17  N   UNL d   1     -38.308  13.521  21.015  0.00  0.00    -0.242 NA
ATOM     18  C   UNL d   1     -38.078  13.112  21.693  0.00  0.00     0.099 A 
ATOM     19  C   UNL d   1     -38.486  13.223  22.400  0.00  0.00     0.021 A 
ATOM     20  C   UNL d   1     -39.126  13.746  22.431  0.00  0.00     0.003 A 
ATOM     21  C   UNL d   1     -39.356  14.155  21.752  0.00  0.00     0.021 A 
ENDBRANCH  15  16
ENDBRANCH  14  15
ENDBRANCH   1  14
TORSDOF 6
ENDMDL
MODEL 7
REMARK VINA RESULT:      -4.9      7.925      9.114
REMARK  6 active torsions:
REMARK  status: ('A' for Active; 'I' for Inactive)
REMARK    1  A    between atoms: C_2  and  S_1 
REMARK    2  A    between atoms: N_3  and  S_1 
REMARK    3  A    between atoms: C_10  and  N_3 
REMARK    4  A    between atoms: O_15  and  C_5 
REMARK    5  A    between atoms: C_13  and  C_10 
REMARK    6  A    between atoms: C_17  and  O_15 
ROOT
ATOM      1  S   UNL d   1     -39.832  14.526  18.416  0.00  0.00     0.285 S 
ATOM      2  O   UNL d   1     -40.544  14.143  18.230  0.00  0.00    -0.198 OA
ATOM      3  O   UNL d   1     -39.125  14.907  18.602  0.00  0.00    -0.198 OA
ENDROOT
BRANCH   1   4
ATOM      4  C   UNL d   1     -40.191  14.874  19.073  0.00  0.00     0.107 A 
ATOM      5  C   UNL d   1     -40.010  14.605  19.834  0.00  0.00     0.038 A 
ATOM      6  C   UNL d   1     -40.372  14.956  20.496  0.00  0.00     0.111 A 
ATOM      7  C   UNL d   1     -40.913  15.574  20.392  0.00  0.00     0.081 A 
ATOM      8  C   UNL d   1     -41.091  15.841  19.634  0.00  0.00     0.014 A 
ATOM      9 CL   UNL d   1     -41.272  15.922  21.049  0.00  0.00    -0.080 Cl
ATOM     10  C   UNL d   1     -40.728  15.489  18.972  0.00  0.00     0.014 A 
BRANCH   6  11
ATOM     11  O   UNL d   1     -40.194  14.689  21.255  0.00  0.00    -0.304 OA
BRANCH  11  12
ATOM     12  C   UNL d   1     -39.740  14.009  21.353  0.00  0.00     0.123 C 
ATOM     13  C   UNL d   1     -39.288  13.913  22.036  0.00  0.00     0.029 C 
ENDBRANCH  11  12
ENDBRANCH   6  11
ENDBRANCH   1   4
BRANCH   1  14
ATOM     14  N   UNL d   1     -39.473  14.179  17.760  0.00  0.00    -0.155 NA
BRANCH  14  15
ATOM     15  C   UNL d   1     -38.806  14.530  17.421  0.00  0.00     0.131 C 
BRANCH  15  16
ATOM     16  C   UNL d   1     -38.517  14.253  16.699  0.00  0.00     0.101 A 
ATOM     17  N   UNL d   1     -38.451  14.764  16.057  0.00  0.00    -0.242 NA
ATOM     18  C   UNL d   1     -38.162  14.487  15.335  0.00  0.00     0.099 A 
ATOM     19  C   UNL d   1     -37.940  13.698  15.257  0.00  0.00     0.021 A 
ATOM     20  C   UNL d   1     -38.005  13.182  15.900  0.00  0.00     0.003 A 
ATOM     21  C   UNL d   1     -38.294  13.460  16.621  0.00  0.00     0.021 A 
ENDBRANCH  15  16
ENDBRANCH  14  15
ENDBRANCH   1  14
TORSDOF 6
ENDMDL
MODEL 8
REMARK VINA RESULT:      -4.3      8.616      9.564
REMARK  6 active torsions:
REMARK  status: ('A' for Active; 'I' for Inactive)
REMARK    1  A    between atoms: C_2  and  S_1 
REMARK    2  A    between atoms: N_3  and  S_1 
REMARK    3  A    between atoms: C_10  and  N_3 
REMARK    4  A    between atoms: O_15  and  C_5 
REMARK    5  A    between atoms: C_13  and  C_10 
REMARK    6  A    between atoms: C_17  and  O_15 
ROOT
ATOM      1  S   UNL d   1     -38.564  14.640  19.161  0.00  0.00     0.285 S 
ATOM      2  O   UNL d   1     -38.043  15.259  18.974  0.00  0.00    -0.198 OA
ATOM      3  O   UNL d   1     -39.080  14.025  19.346  0.00  0.00    -0.198 OA
ENDROOT
BRANCH   1   4
ATOM      4  C   UNL d   1     -38.619  14.445  18.361  0.00  0.00     0.107 A 
ATOM      5  C   UNL d   1     -39.226  14.766  17.899  0.00  0.00     0.038 A 
ATOM      6  C   UNL d   1     -39.282  14.570  17.091  0.00  0.00     0.111 A 
ATOM      7  C   UNL d   1     -38.731  14.054  16.752  0.00  0.00     0.081 A 
ATOM      8  C   UNL d   1     -38.128  13.736  17.214  0.00  0.00     0.014 A 
ATOM      9 CL   UNL d   1     -38.786  13.859  15.953  0.00  0.00    -0.080 Cl
ATOM     10  C   UNL d   1     -38.072  13.933  18.021  0.00  0.00     0.014 A 
BRANCH   6  11
ATOM     11  O   UNL d   1     -39.886  14.888  16.630  0.00  0.00    -0.304 OA
BRANCH  11  12
ATOM     12  C   UNL d   1     -40.610  15.075  16.975  0.00  0.00     0.123 C 
ATOM     13  C   UNL d   1     -41.186  15.463  16.532  0.00  0.00     0.029 C 
ENDBRANCH  11  12
ENDBRANCH   6  11
ENDBRANCH   1   4
BRANCH   1  14
ATOM     14  N   UNL d   1     -38.508  14.835  19.960  0.00  0.00    -0.155 NA
BRANCH  14  15
ATOM     15  C   UNL d   1     -39.047  15.367  20.293  0.00  0.00     0.131 C 
BRANCH  15  16
ATOM     16  C   UNL d   1     -39.002  15.549  21.097  0.00  0.00     0.101 A 
ATOM     17  N   UNL d   1     -38.269  15.684  21.449  0.00  0.00    -0.242 NA
ATOM     18  C   UNL d   1     -38.224  15.866  22.252  0.00  0.00     0.099 A 
ATOM     19  C   UNL d   1     -38.911  15.913  22.703  0.00  0.00     0.021 A 
ATOM     20  C   UNL d   1     -39.647  15.777  22.353  0.00  0.00     0.003 A 
ATOM     21  C   UNL d   1     -39.693  15.595  21.549  0.00  0.00     0.021 A 
ENDBRANCH  15  16
ENDBRANCH  14  15
ENDBRANCH   1  14
TORSDOF 6
ENDMDL
MODEL 9
REMARK VINA RESULT:      -4.3      8.189      9.058
REMARK  6 active torsions:
REMARK  status: ('A' for Active; 'I' for Inactive)
REMARK    1  A    between atoms: C_2  and  S_1 
REMARK    2  A    between atoms: N_3  and  S_1 
REMARK    3  A    between atoms: C_10  and  N_3 
REMARK    4  A    between atoms: O_15  and  C_5 
REMARK    5  A    between atoms: C_13  and  C_10 
REMARK    6  A    between atoms: C_17  and  O_15 
ROOT
ATOM      1  S   UNL d   1     -39.709  14.660  19.995  0.00  0.00     0.285 S 
ATOM      2  O   UNL d   1     -40.398  14.299  20.284  0.00  0.00    -0.198 OA
ATOM      3  O   UNL d   1     -39.025  15.018  19.709  0.00  0.00    -0.198 OA
ENDROOT
BRANCH   1   4
ATOM      4  C   UNL d   1     -39.286  14.367  20.640  0.00  0.00     0.107 A 
ATOM      5  C   UNL d   1     -39.367  14.723  21.383  0.00  0.00     0.038 A 
ATOM      6  C   UNL d   1     -38.940  14.428  22.034  0.00  0.00     0.111 A 
ATOM      7  C   UNL d   1     -38.435  13.779  21.937  0.00  0.00     0.081 A 
ATOM      8  C   UNL d   1     -38.356  13.427  21.197  0.00  0.00     0.014 A 
ATOM      9 CL   UNL d   1     -38.011  13.487  22.582  0.00  0.00    -0.080 Cl
ATOM     10  C   UNL d   1     -38.783  13.723  20.546  0.00  0.00     0.014 A 
BRANCH   6  11
ATOM     11  O   UNL d   1     -39.019  14.780  22.775  0.00  0.00    -0.304 OA
BRANCH  11  12
ATOM     12  C   UNL d   1     -38.752  15.550  22.892  0.00  0.00     0.123 C 
ATOM     13  C   UNL d   1     -38.868  15.917  23.620  0.00  0.00     0.029 C 
ENDBRANCH  11  12
ENDBRANCH   6  11
ENDBRANCH   1   4
BRANCH   1  14
ATOM     14  N   UNL d   1     -40.132  14.952  19.350  0.00  0.00    -0.155 NA
BRANCH  14  15
ATOM     15  C   UNL d   1     -39.856  14.820  18.582  0.00  0.00     0.131 C 
BRANCH  15  16
ATOM     16  C   UNL d   1     -40.282  15.108  17.937  0.00  0.00     0.101 A 
ATOM     17  N   UNL d   1     -40.905  15.634  18.055  0.00  0.00    -0.242 NA
ATOM     18  C   UNL d   1     -41.331  15.922  17.410  0.00  0.00     0.099 A 
ATOM     19  C   UNL d   1     -41.135  15.683  16.647  0.00  0.00     0.021 A 
ATOM     20  C   UNL d   1     -40.510  15.155  16.525  0.00  0.00     0.003 A 
ATOM     21  C   UNL d   1     -40.084  14.867  17.171  0.00  0.00     0.021 A 
ENDBRANCH  15  16
ENDBRANCH  14  15
ENDBRANCH   1  14
TORSDOF 6
ENDMDL
