MODEL 1
REMARK VINA RESULT:      -1.2      0.000      0.000
REMARK  7 active torsions:
REMARK  status: ('A' for Active; 'I' for Inactive)
REMARK    1  A    between atoms: C_6  and  N_2 
REMARK    2  A    between atoms: C_7  and  C_3 
REMARK    3  A    between atoms: C_15  and  C_6 
REMARK    4  A    between atoms: C_21  and  C_7 
REMARK    5  A    between atoms: C_8  and  O_14 
REMARK    6  A    between atoms: O_14  and  C_15 
REMARK    7  A    between atoms: C_19  and  C_21 
ROOT
ATOM      1  N   UNL d   1     -41.790-121.834 -50.275  0.00  0.00    -0.227 NA
ATOM      2  N   UNL d   1     -41.887-122.825 -51.202  0.00  0.00    -0.287 N 
ATOM      3  C   UNL d   1     -41.566-122.069 -51.046  0.00  0.00     0.148 A 
ATOM      4  C   UNL d   1     -42.313-123.058 -50.519  0.00  0.00     0.083 A 
ATOM      5  C   UNL d   1     -42.252-122.455 -49.957  0.00  0.00     0.099 A 
ATOM      6  C   UNL d   1     -42.746-123.742 -50.340  0.00  0.00     0.019 A 
ATOM      7  C   UNL d   1     -42.620-122.529 -49.222  0.00  0.00     0.021 A 
ATOM      8  C   UNL d   1     -43.114-123.817 -49.605  0.00  0.00     0.002 A 
ATOM      9  C   UNL d   1     -43.051-123.211 -49.046  0.00  0.00     0.002 A 
ENDROOT
BRANCH   2  10
ATOM     10  C   UNL d   1     -41.804-123.263 -51.892  0.00  0.00     0.108 C 
BRANCH  10  11
ATOM     11  C   UNL d   1     -42.022-122.937 -52.625  0.00  0.00     0.142 C 
BRANCH  11  12
ATOM     12  O   UNL d   1     -41.865-123.349 -53.317  0.00  0.00    -0.304 OA
BRANCH  12  13
ATOM     13  C   UNL d   1     -41.851-122.953 -54.038  0.00  0.00     0.100 A 
ATOM     14  C   UNL d   1     -42.469-122.440 -54.235  0.00  0.00     0.025 A 
ATOM     15  C   UNL d   1     -42.455-122.044 -54.955  0.00  0.00     0.002 A 
ATOM     16  C   UNL d   1     -41.823-122.157 -55.484  0.00  0.00     0.000 A 
ATOM     17  C   UNL d   1     -41.207-122.673 -55.279  0.00  0.00     0.002 A 
ATOM     18  C   UNL d   1     -41.815-121.759 -56.203  0.00  0.00     0.000 C 
ATOM     19  C   UNL d   1     -41.224-123.070 -54.554  0.00  0.00     0.025 A 
ENDBRANCH  12  13
ENDBRANCH  11  12
ENDBRANCH  10  11
ENDBRANCH   2  10
BRANCH   3  20
ATOM     20  C   UNL d   1     -41.136-121.388 -51.222  0.00  0.00     0.041 C 
BRANCH  20  21
ATOM     21  C   UNL d   1     -41.532-120.680 -51.372  0.00  0.00     0.049 C 
BRANCH  21  22
ATOM     22  C   UNL d   1     -41.123-120.042 -51.698  0.00  0.00     0.234 C 
ATOM     23  O   UNL d   1     -41.288-119.275 -51.449  0.00  0.00    -0.283 OA
ENDBRANCH  21  22
ENDBRANCH  20  21
ENDBRANCH   3  20
TORSDOF 7
ENDMDL
MODEL 2
REMARK VINA RESULT:      -0.7      1.218      4.286
REMARK  7 active torsions:
REMARK  status: ('A' for Active; 'I' for Inactive)
REMARK    1  A    between atoms: C_6  and  N_2 
REMARK    2  A    between atoms: C_7  and  C_3 
REMARK    3  A    between atoms: C_15  and  C_6 
REMARK    4  A    between atoms: C_21  and  C_7 
REMARK    5  A    between atoms: C_8  and  O_14 
REMARK    6  A    between atoms: O_14  and  C_15 
REMARK    7  A    between atoms: C_19  and  C_21 
ROOT
ATOM      1  N   UNL d   1     -41.610-121.639 -53.694  0.00  0.00    -0.227 NA
ATOM      2  N   UNL d   1     -41.361-122.793 -53.016  0.00  0.00    -0.287 N 
ATOM      3  C   UNL d   1     -41.309-121.960 -52.981  0.00  0.00     0.148 A 
ATOM      4  C   UNL d   1     -41.699-122.989 -53.757  0.00  0.00     0.083 A 
ATOM      5  C   UNL d   1     -41.849-122.287 -54.167  0.00  0.00     0.099 A 
ATOM      6  C   UNL d   1     -41.887-123.716 -54.108  0.00  0.00     0.019 A 
ATOM      7  C   UNL d   1     -42.184-122.306 -54.921  0.00  0.00     0.021 A 
ATOM      8  C   UNL d   1     -42.222-123.736 -54.862  0.00  0.00     0.002 A 
ATOM      9  C   UNL d   1     -42.370-123.031 -55.268  0.00  0.00     0.002 A 
ENDROOT
BRANCH   2  10
ATOM     10  C   UNL d   1     -41.128-123.326 -52.435  0.00  0.00     0.108 C 
BRANCH  10  11
ATOM     11  C   UNL d   1     -41.589-123.432 -51.752  0.00  0.00     0.142 C 
BRANCH  11  12
ATOM     12  O   UNL d   1     -41.271-123.817 -51.101  0.00  0.00    -0.304 OA
BRANCH  12  13
ATOM     13  C   UNL d   1     -41.631-123.747 -50.365  0.00  0.00     0.100 A 
ATOM     14  C   UNL d   1     -41.167-123.621 -49.692  0.00  0.00     0.025 A 
ATOM     15  C   UNL d   1     -41.527-123.551 -48.956  0.00  0.00     0.002 A 
ATOM     16  C   UNL d   1     -42.354-123.607 -48.888  0.00  0.00     0.000 A 
ATOM     17  C   UNL d   1     -42.813-123.733 -49.567  0.00  0.00     0.002 A 
ATOM     18  C   UNL d   1     -42.709-123.536 -48.149  0.00  0.00     0.000 C 
ATOM     19  C   UNL d   1     -42.448-123.802 -50.305  0.00  0.00     0.025 A 
ENDBRANCH  12  13
ENDBRANCH  11  12
ENDBRANCH  10  11
ENDBRANCH   2  10
BRANCH   3  20
ATOM     20  C   UNL d   1     -41.123-121.235 -52.634  0.00  0.00     0.041 C 
BRANCH  20  21
ATOM     21  C   UNL d   1     -41.645-120.892 -52.095  0.00  0.00     0.049 C 
BRANCH  21  22
ATOM     22  C   UNL d   1     -41.450-120.175 -51.735  0.00  0.00     0.234 C 
ATOM     23  O   UNL d   1     -41.469-120.109 -50.914  0.00  0.00    -0.283 OA
ENDBRANCH  21  22
ENDBRANCH  20  21
ENDBRANCH   3  20
TORSDOF 7
ENDMDL
MODEL 3
REMARK VINA RESULT:       1.6      1.407      4.616
REMARK  7 active torsions:
REMARK  status: ('A' for Active; 'I' for Inactive)
REMARK    1  A    between atoms: C_6  and  N_2 
REMARK    2  A    between atoms: C_7  and  C_3 
REMARK    3  A    between atoms: C_15  and  C_6 
REMARK    4  A    between atoms: C_21  and  C_7 
REMARK    5  A    between atoms: C_8  and  O_14 
REMARK    6  A    between atoms: O_14  and  C_15 
REMARK    7  A    between atoms: C_19  and  C_21 
ROOT
ATOM      1  N   UNL d   1     -41.172-121.552 -52.916  0.00  0.00    -0.227 NA
ATOM      2  N   UNL d   1     -41.146-122.407 -51.858  0.00  0.00    -0.287 N 
ATOM      3  C   UNL d   1     -41.153-122.358 -52.692  0.00  0.00     0.148 A 
ATOM      4  C   UNL d   1     -41.162-121.623 -51.564  0.00  0.00     0.083 A 
ATOM      5  C   UNL d   1     -41.178-121.105 -52.209  0.00  0.00     0.099 A 
ATOM      6  C   UNL d   1     -41.164-121.317 -50.793  0.00  0.00     0.019 A 
ATOM      7  C   UNL d   1     -41.195-120.289 -52.089  0.00  0.00     0.021 A 
ATOM      8  C   UNL d   1     -41.181-120.501 -50.673  0.00  0.00     0.002 A 
ATOM      9  C   UNL d   1     -41.197-119.987 -51.321  0.00  0.00     0.002 A 
ENDROOT
BRANCH   2  10
ATOM     10  C   UNL d   1     -41.128-123.093 -51.404  0.00  0.00     0.108 C 
BRANCH  10  11
ATOM     11  C   UNL d   1     -41.635-123.178 -50.751  0.00  0.00     0.142 C 
BRANCH  11  12
ATOM     12  O   UNL d   1     -41.507-123.784 -50.213  0.00  0.00    -0.304 OA
BRANCH  12  13
ATOM     13  C   UNL d   1     -41.847-123.748 -49.465  0.00  0.00     0.100 A 
ATOM     14  C   UNL d   1     -41.367-123.808 -48.794  0.00  0.00     0.025 A 
ATOM     15  C   UNL d   1     -41.706-123.771 -48.046  0.00  0.00     0.002 A 
ATOM     16  C   UNL d   1     -42.528-123.675 -47.963  0.00  0.00     0.000 A 
ATOM     17  C   UNL d   1     -43.003-123.616 -48.640  0.00  0.00     0.002 A 
ATOM     18  C   UNL d   1     -42.862-123.640 -47.212  0.00  0.00     0.000 C 
ATOM     19  C   UNL d   1     -42.659-123.653 -49.391  0.00  0.00     0.025 A 
ENDBRANCH  12  13
ENDBRANCH  11  12
ENDBRANCH  10  11
ENDBRANCH   2  10
BRANCH   3  20
ATOM     20  C   UNL d   1     -41.151-122.660 -53.460  0.00  0.00     0.041 C 
BRANCH  20  21
ATOM     21  C   UNL d   1     -41.826-122.589 -53.930  0.00  0.00     0.049 C 
BRANCH  21  22
ATOM     22  C   UNL d   1     -41.864-122.982 -54.654  0.00  0.00     0.234 C 
ATOM     23  O   UNL d   1     -41.471-123.699 -54.756  0.00  0.00    -0.283 OA
ENDBRANCH  21  22
ENDBRANCH  20  21
ENDBRANCH   3  20
TORSDOF 7
ENDMDL
