MODEL 1
REMARK VINA RESULT:      -4.0      0.000      0.000
REMARK  4 active torsions:
REMARK  status: ('A' for Active; 'I' for Inactive)
REMARK    1  A    between atoms: C_6  and  N_1 
REMARK    2  A    between atoms: C_9  and  C_2 
REMARK    3  A    between atoms: O_14  and  C_10 
REMARK    4  A    between atoms: C_15  and  O_14 
ROOT
ATOM      1  C   UNL d   1     -41.747-123.265 -50.526  0.00  0.00     0.086 A 
ATOM      2  C   UNL d   1     -41.138-123.571 -50.065  0.00  0.00     0.021 A 
ATOM      3  C   UNL d   1     -42.475-123.094 -50.186  0.00  0.00     0.021 A 
ATOM      4  C   UNL d   1     -41.984-123.538 -48.916  0.00  0.00     0.100 A 
ATOM      5  C   UNL d   1     -42.594-123.231 -49.380  0.00  0.00     0.026 A 
ATOM      6  C   UNL d   1     -41.256-123.708 -49.260  0.00  0.00     0.026 A 
ENDROOT
BRANCH   1   7
ATOM      7  N   UNL d   1     -41.629-123.128 -51.331  0.00  0.00    -0.191 N 
ATOM      8  C   UNL d   1     -41.437-122.408 -51.679  0.00  0.00     0.200 A 
ATOM      9  N   UNL d   1     -41.370-122.523 -52.497  0.00  0.00    -0.107 NA
ATOM     10  N   UNL d   1     -41.520-123.306 -52.652  0.00  0.00    -0.022 NA
ATOM     11  N   UNL d   1     -41.681-123.686 -51.932  0.00  0.00    -0.039 NA
BRANCH   8  12
ATOM     12  C   UNL d   1     -41.326-121.683 -51.284  0.00  0.00     0.109 C 
ATOM     13 CL   UNL d   1     -41.123-120.928 -51.561  0.00  0.00    -0.078 Cl
ENDBRANCH   8  12
ENDBRANCH   1   7
BRANCH   4  14
ATOM     14  O   UNL d   1     -42.102-123.674 -48.115  0.00  0.00    -0.305 OA
BRANCH  14  15
ATOM     15  C   UNL d   1     -42.108-123.043 -47.586  0.00  0.00     0.123 C 
ATOM     16  C   UNL d   1     -42.037-123.183 -46.771  0.00  0.00     0.029 C 
ENDBRANCH  14  15
ENDBRANCH   4  14
TORSDOF 4
ENDMDL
MODEL 2
REMARK VINA RESULT:      -3.9      2.302      3.792
REMARK  4 active torsions:
REMARK  status: ('A' for Active; 'I' for Inactive)
REMARK    1  A    between atoms: C_6  and  N_1 
REMARK    2  A    between atoms: C_9  and  C_2 
REMARK    3  A    between atoms: O_14  and  C_10 
REMARK    4  A    between atoms: C_15  and  O_14 
ROOT
ATOM      1  C   UNL d   1     -41.531-122.906 -50.339  0.00  0.00     0.086 A 
ATOM      2  C   UNL d   1     -41.662-122.136 -50.599  0.00  0.00     0.021 A 
ATOM      3  C   UNL d   1     -41.265-123.479 -50.864  0.00  0.00     0.021 A 
ATOM      4  C   UNL d   1     -41.259-122.508 -51.917  0.00  0.00     0.100 A 
ATOM      5  C   UNL d   1     -41.129-123.279 -51.654  0.00  0.00     0.026 A 
ATOM      6  C   UNL d   1     -41.526-121.937 -51.388  0.00  0.00     0.026 A 
ENDROOT
BRANCH   1   7
ATOM      7  N   UNL d   1     -41.667-123.105 -49.550  0.00  0.00    -0.191 N 
ATOM      8  C   UNL d   1     -42.372-123.386 -49.233  0.00  0.00     0.200 A 
ATOM      9  N   UNL d   1     -42.261-123.513 -48.422  0.00  0.00    -0.107 NA
ATOM     10  N   UNL d   1     -41.496-123.313 -48.240  0.00  0.00    -0.022 NA
ATOM     11  N   UNL d   1     -41.123-123.059 -48.935  0.00  0.00    -0.039 NA
BRANCH   8  12
ATOM     12  C   UNL d   1     -43.080-123.522 -49.651  0.00  0.00     0.109 C 
ATOM     13 CL   UNL d   1     -43.823-123.797 -49.404  0.00  0.00    -0.078 Cl
ENDBRANCH   8  12
ENDBRANCH   1   7
BRANCH   4  14
ATOM     14  O   UNL d   1     -41.124-122.310 -52.702  0.00  0.00    -0.305 OA
BRANCH  14  15
ATOM     15  C   UNL d   1     -41.386-122.807 -53.305  0.00  0.00     0.123 C 
ATOM     16  C   UNL d   1     -41.360-122.553 -54.094  0.00  0.00     0.029 C 
ENDBRANCH  14  15
ENDBRANCH   4  14
TORSDOF 4
ENDMDL
MODEL 3
REMARK VINA RESULT:      -3.2      1.888      2.675
REMARK  4 active torsions:
REMARK  status: ('A' for Active; 'I' for Inactive)
REMARK    1  A    between atoms: C_6  and  N_1 
REMARK    2  A    between atoms: C_9  and  C_2 
REMARK    3  A    between atoms: O_14  and  C_10 
REMARK    4  A    between atoms: C_15  and  O_14 
ROOT
ATOM      1  C   UNL d   1     -41.356-123.026 -52.987  0.00  0.00     0.086 A 
ATOM      2  C   UNL d   1     -41.464-123.682 -52.503  0.00  0.00     0.021 A 
ATOM      3  C   UNL d   1     -41.186-122.293 -52.657  0.00  0.00     0.021 A 
ATOM      4  C   UNL d   1     -41.231-122.874 -51.349  0.00  0.00     0.100 A 
ATOM      5  C   UNL d   1     -41.123-122.217 -51.837  0.00  0.00     0.026 A 
ATOM      6  C   UNL d   1     -41.402-123.606 -51.683  0.00  0.00     0.026 A 
ENDROOT
BRANCH   1   7
ATOM      7  N   UNL d   1     -41.418-123.101 -53.807  0.00  0.00    -0.191 N 
ATOM      8  C   UNL d   1     -41.788-122.573 -54.318  0.00  0.00     0.200 A 
ATOM      9  N   UNL d   1     -41.720-122.866 -55.089  0.00  0.00    -0.107 NA
ATOM     10  N   UNL d   1     -41.312-123.567 -55.056  0.00  0.00    -0.022 NA
ATOM     11  N   UNL d   1     -41.123-123.718 -54.263  0.00  0.00    -0.039 NA
BRANCH   8  12
ATOM     12  C   UNL d   1     -42.169-121.864 -54.102  0.00  0.00     0.109 C 
ATOM     13 CL   UNL d   1     -42.638-121.335 -54.537  0.00  0.00    -0.078 Cl
ENDBRANCH   8  12
ENDBRANCH   1   7
BRANCH   4  14
ATOM     14  O   UNL d   1     -41.169-122.799 -50.534  0.00  0.00    -0.305 OA
BRANCH  14  15
ATOM     15  C   UNL d   1     -41.722-123.162 -50.042  0.00  0.00     0.123 C 
ATOM     16  C   UNL d   1     -41.649-123.101 -49.218  0.00  0.00     0.029 C 
ENDBRANCH  14  15
ENDBRANCH   4  14
TORSDOF 4
ENDMDL
MODEL 4
REMARK VINA RESULT:      -2.8      2.638      4.328
REMARK  4 active torsions:
REMARK  status: ('A' for Active; 'I' for Inactive)
REMARK    1  A    between atoms: C_6  and  N_1 
REMARK    2  A    between atoms: C_9  and  C_2 
REMARK    3  A    between atoms: O_14  and  C_10 
REMARK    4  A    between atoms: C_15  and  O_14 
ROOT
ATOM      1  C   UNL d   1     -41.438-122.981 -52.568  0.00  0.00     0.086 A 
ATOM      2  C   UNL d   1     -41.123-123.519 -53.105  0.00  0.00     0.021 A 
ATOM      3  C   UNL d   1     -41.857-122.328 -52.836  0.00  0.00     0.021 A 
ATOM      4  C   UNL d   1     -41.644-122.750 -54.188  0.00  0.00     0.100 A 
ATOM      5  C   UNL d   1     -41.960-122.212 -53.648  0.00  0.00     0.026 A 
ATOM      6  C   UNL d   1     -41.225-123.403 -53.915  0.00  0.00     0.026 A 
ENDROOT
BRANCH   1   7
ATOM      7  N   UNL d   1     -41.336-123.097 -51.757  0.00  0.00    -0.191 N 
ATOM      8  C   UNL d   1     -41.191-122.513 -51.196  0.00  0.00     0.200 A 
ATOM      9  N   UNL d   1     -41.125-122.875 -50.454  0.00  0.00    -0.107 NA
ATOM     10  N   UNL d   1     -41.228-123.674 -50.555  0.00  0.00    -0.022 NA
ATOM     11  N   UNL d   1     -41.358-123.817 -51.362  0.00  0.00    -0.039 NA
BRANCH   8  12
ATOM     12  C   UNL d   1     -41.123-121.696 -51.343  0.00  0.00     0.109 C 
ATOM     13 CL   UNL d   1     -41.200-121.037 -50.844  0.00  0.00    -0.078 Cl
ENDBRANCH   8  12
ENDBRANCH   1   7
BRANCH   4  14
ATOM     14  O   UNL d   1     -41.746-122.634 -54.995  0.00  0.00    -0.305 OA
BRANCH  14  15
ATOM     15  C   UNL d   1     -42.067-121.928 -55.274  0.00  0.00     0.123 C 
ATOM     16  C   UNL d   1     -42.198-121.823 -56.086  0.00  0.00     0.029 C 
ENDBRANCH  14  15
ENDBRANCH   4  14
TORSDOF 4
ENDMDL
