MODEL 1
REMARK VINA RESULT:      -2.7      0.000      0.000
REMARK  4 active torsions:
REMARK  status: ('A' for Active; 'I' for Inactive)
REMARK    1  A    between atoms: C_2  and  S_1 
REMARK    2  A    between atoms: N_3  and  S_1 
REMARK    3  A    between atoms: O_13  and  C_7 
REMARK    4  A    between atoms: O_14  and  C_11 
ROOT
ATOM      1  S   UNL d   1     -41.811-122.666 -50.739  0.00  0.00     0.273 S 
ATOM      2  O   UNL d   1     -41.256-122.994 -50.220  0.00  0.00    -0.200 OA
ATOM      3  O   UNL d   1     -42.589-122.536 -50.483  0.00  0.00    -0.200 OA
ENDROOT
BRANCH   1   4
ATOM      4  C   UNL d   1     -42.027-122.863 -49.974  0.00  0.00     0.128 A 
ATOM      5  C   UNL d   1     -41.485-123.203 -49.453  0.00  0.00     0.039 A 
ATOM      6  C   UNL d   1     -41.704-123.401 -48.683  0.00  0.00     0.095 A 
ATOM      7  C   UNL d   1     -42.473-123.255 -48.438  0.00  0.00     0.026 A 
ATOM      8  C   UNL d   1     -43.018-122.918 -48.946  0.00  0.00     0.027 A 
ATOM      9  C   UNL d   1     -42.798-122.721 -49.714  0.00  0.00     0.106 A 
BRANCH   6  10
ATOM     10  O   UNL d   1     -41.155-123.741 -48.172  0.00  0.00    -0.328 OA
ATOM     11  C   UNL d   1     -41.248-123.666 -47.357  0.00  0.00     0.181 C 
ENDBRANCH   6  10
BRANCH   9  12
ATOM     12  O   UNL d   1     -43.343-122.383 -50.227  0.00  0.00    -0.327 OA
ATOM     13  C   UNL d   1     -44.138-122.333 -50.004  0.00  0.00     0.181 C 
ENDBRANCH   9  12
ENDBRANCH   1   4
BRANCH   1  14
ATOM     14  N   UNL d   1     -41.583-122.469 -51.512  0.00  0.00    -0.232 N 
ATOM     15  C   UNL d   1     -41.350-121.694 -51.681  0.00  0.00     0.075 A 
ATOM     16  C   UNL d   1     -41.123-121.498 -52.454  0.00  0.00     0.018 A 
ATOM     17  C   UNL d   1     -41.341-121.118 -51.090  0.00  0.00     0.020 C 
ATOM     18  C   UNL d   1     -41.132-122.073 -53.044  0.00  0.00     0.003 A 
ATOM     19  C   UNL d   1     -41.368-122.852 -52.868  0.00  0.00     0.018 A 
ATOM     20  C   UNL d   1     -41.595-123.051 -52.098  0.00  0.00     0.075 A 
ATOM     21  C   UNL d   1     -41.829-123.817 -51.920  0.00  0.00     0.020 C 
ENDBRANCH   1  14
TORSDOF 4
ENDMDL
