MODEL 1
REMARK VINA RESULT:      -8.4      0.000      0.000
REMARK  1 active torsions:
REMARK  status: ('A' for Active; 'I' for Inactive)
REMARK    1  A    between atoms: N_4  and  C_1 
ROOT
ATOM      1  C   UNL d   1      53.679  31.627  53.920  0.00  0.00     0.735 A 
ATOM      2  N   UNL d   1      54.230  32.114  53.517  0.00  0.00    -0.059 NA
ATOM      3  N   UNL d   1      53.626  31.949  54.697  0.00  0.00    -0.059 NA
ATOM      4  C   UNL d   1      54.490  32.691  54.019  0.00  0.00     0.118 A 
ATOM      5  C   UNL d   1      54.117  32.589  54.749  0.00  0.00     0.118 A 
ATOM      6  C   UNL d   1      55.037  33.315  53.898  0.00  0.00     0.021 A 
ATOM      7  C   UNL d   1      54.287  33.110  55.366  0.00  0.00     0.021 A 
ATOM      8  C   UNL d   1      55.192  33.827  54.537  0.00  0.00     0.002 A 
ATOM      9  C   UNL d   1      54.819  33.725  55.266  0.00  0.00     0.002 A 
ENDROOT
BRANCH   1  10
ATOM     10  N   UNL d   1      53.301  30.986  53.583  0.00  0.00    -0.133 N 
ATOM     11  C   UNL d   1      52.827  30.886  52.952  0.00  0.00     0.125 A 
ATOM     12  C   UNL d   1      52.527  30.149  52.750  0.00  0.00     0.142 A 
ATOM     13  O   UNL d   1      52.706  29.485  53.196  0.00  0.00    -0.300 OA
ATOM     14  C   UNL d   1      53.220  29.591  53.882  0.00  0.00     0.142 A 
ATOM     15  C   UNL d   1      53.501  30.329  54.055  0.00  0.00     0.125 A 
ENDBRANCH   1  10
TORSDOF 1
ENDMDL
MODEL 2
REMARK VINA RESULT:      -8.2      2.093      3.571
REMARK  1 active torsions:
REMARK  status: ('A' for Active; 'I' for Inactive)
REMARK    1  A    between atoms: N_4  and  C_1 
ROOT
ATOM      1  C   UNL d   1      53.178  32.986  53.753  0.00  0.00     0.735 A 
ATOM      2  N   UNL d   1      52.649  32.571  53.251  0.00  0.00    -0.059 NA
ATOM      3  N   UNL d   1      53.721  32.403  54.031  0.00  0.00    -0.059 NA
ATOM      4  C   UNL d   1      52.861  31.791  53.229  0.00  0.00     0.118 A 
ATOM      5  C   UNL d   1      53.523  31.687  53.711  0.00  0.00     0.118 A 
ATOM      6  C   UNL d   1      52.522  31.144  52.817  0.00  0.00     0.021 A 
ATOM      7  C   UNL d   1      53.854  30.936  53.787  0.00  0.00     0.021 A 
ATOM      8  C   UNL d   1      52.874  30.395  52.910  0.00  0.00     0.002 A 
ATOM      9  C   UNL d   1      53.537  30.291  53.393  0.00  0.00     0.002 A 
ENDROOT
BRANCH   1  10
ATOM     10  N   UNL d   1      53.132  33.786  53.906  0.00  0.00    -0.133 N 
ATOM     11  C   UNL d   1      52.905  34.423  53.486  0.00  0.00     0.125 A 
ATOM     12  C   UNL d   1      52.923  35.179  53.805  0.00  0.00     0.142 A 
ATOM     13  O   UNL d   1      53.176  35.306  54.574  0.00  0.00    -0.300 OA
ATOM     14  C   UNL d   1      53.423  34.616  55.033  0.00  0.00     0.142 A 
ATOM     15  C   UNL d   1      53.395  33.884  54.691  0.00  0.00     0.125 A 
ENDBRANCH   1  10
TORSDOF 1
ENDMDL
MODEL 3
REMARK VINA RESULT:      -7.9      2.708      3.124
REMARK  1 active torsions:
REMARK  status: ('A' for Active; 'I' for Inactive)
REMARK    1  A    between atoms: N_4  and  C_1 
ROOT
ATOM      1  C   UNL d   1      52.392  33.635  53.523  0.00  0.00     0.735 A 
ATOM      2  N   UNL d   1      52.680  34.036  54.201  0.00  0.00    -0.059 NA
ATOM      3  N   UNL d   1      53.009  33.102  53.304  0.00  0.00    -0.059 NA
ATOM      4  C   UNL d   1      53.420  33.763  54.377  0.00  0.00     0.118 A 
ATOM      5  C   UNL d   1      53.623  33.186  53.823  0.00  0.00     0.118 A 
ATOM      6  C   UNL d   1      53.948  33.976  54.992  0.00  0.00     0.021 A 
ATOM      7  C   UNL d   1      54.358  32.814  53.877  0.00  0.00     0.021 A 
ATOM      8  C   UNL d   1      54.684  33.586  55.026  0.00  0.00     0.002 A 
ATOM      9  C   UNL d   1      54.888  33.009  54.471  0.00  0.00     0.002 A 
ENDROOT
BRANCH   1  10
ATOM     10  N   UNL d   1      51.661  33.769  53.186  0.00  0.00    -0.133 N 
ATOM     11  C   UNL d   1      50.910  33.625  53.406  0.00  0.00     0.125 A 
ATOM     12  C   UNL d   1      50.274  33.833  52.931  0.00  0.00     0.142 A 
ATOM     13  O   UNL d   1      50.391  34.198  52.206  0.00  0.00    -0.300 OA
ATOM     14  C   UNL d   1      51.205  34.355  51.965  0.00  0.00     0.142 A 
ATOM     15  C   UNL d   1      51.811  34.139  52.454  0.00  0.00     0.125 A 
ENDBRANCH   1  10
TORSDOF 1
ENDMDL
MODEL 4
REMARK VINA RESULT:      -7.7      2.800      3.807
REMARK  1 active torsions:
REMARK  status: ('A' for Active; 'I' for Inactive)
REMARK    1  A    between atoms: N_4  and  C_1 
ROOT
ATOM      1  C   UNL d   1      52.901  33.748  53.743  0.00  0.00     0.735 A 
ATOM      2  N   UNL d   1      52.155  33.439  53.969  0.00  0.00    -0.059 NA
ATOM      3  N   UNL d   1      52.756  34.178  53.032  0.00  0.00    -0.059 NA
ATOM      4  C   UNL d   1      51.599  33.669  53.430  0.00  0.00     0.118 A 
ATOM      5  C   UNL d   1      51.970  34.126  52.850  0.00  0.00     0.118 A 
ATOM      6  C   UNL d   1      50.776  33.513  53.394  0.00  0.00     0.021 A 
ATOM      7  C   UNL d   1      51.523  34.432  52.229  0.00  0.00     0.021 A 
ATOM      8  C   UNL d   1      50.346  33.833  52.756  0.00  0.00     0.002 A 
ATOM      9  C   UNL d   1      50.717  34.290  52.177  0.00  0.00     0.002 A 
ENDROOT
BRANCH   1  10
ATOM     10  N   UNL d   1      53.593  33.628  54.160  0.00  0.00    -0.133 N 
ATOM     11  C   UNL d   1      53.878  33.888  54.856  0.00  0.00     0.125 A 
ATOM     12  C   UNL d   1      54.616  33.660  55.132  0.00  0.00     0.142 A 
ATOM     13  O   UNL d   1      55.090  33.152  54.697  0.00  0.00    -0.300 OA
ATOM     14  C   UNL d   1      54.784  32.867  53.942  0.00  0.00     0.142 A 
ATOM     15  C   UNL d   1      54.052  33.110  53.696  0.00  0.00     0.125 A 
ENDBRANCH   1  10
TORSDOF 1
ENDMDL
