MODEL 1
REMARK VINA RESULT:      -5.5      0.000      0.000
REMARK  4 active torsions:
REMARK  status: ('A' for Active; 'I' for Inactive)
REMARK       I    between atoms: N_3  and  C_1 
REMARK    1  A    between atoms: C_13  and  C_1 
REMARK    2  A    between atoms: C_2  and  N_5 
REMARK    3  A    between atoms: C_14  and  N_3 
REMARK    4  A    between atoms: C_4  and  C_14 
REMARK       I    between atoms: N_5  and  C_4 
ROOT
ATOM      1  C   UNL d   1     -41.620-122.724 -51.084  0.00  0.00     0.299 C 
ATOM      2  N   UNL d   1     -41.890-122.366 -50.393  0.00  0.00    -0.207 NA
ATOM      3  O   UNL d   1     -41.555-123.545 -51.136  0.00  0.00    -0.263 OA
ENDROOT
BRANCH   1   4
ATOM      4  C   UNL d   1     -41.411-122.257 -51.731  0.00  0.00     0.165 C 
BRANCH   4   5
ATOM      5  N   UNL d   1     -41.636-122.487 -52.494  0.00  0.00    -0.201 NA
ATOM      6  C   UNL d   1     -41.517-121.960 -53.121  0.00  0.00     0.279 C 
ATOM      7  O   UNL d   1     -41.180-121.219 -52.984  0.00  0.00    -0.265 OA
BRANCH   6   8
ATOM      8  C   UNL d   1     -41.739-122.181 -53.890  0.00  0.00     0.058 A 
ATOM      9  C   UNL d   1     -42.237-121.695 -54.332  0.00  0.00     0.005 A 
ATOM     10  C   UNL d   1     -42.450-121.919 -55.088  0.00  0.00     0.000 A 
ATOM     11  C   UNL d   1     -42.170-122.626 -55.408  0.00  0.00     0.000 A 
ATOM     12  C   UNL d   1     -41.677-123.109 -54.974  0.00  0.00     0.000 A 
ATOM     13  C   UNL d   1     -41.459-122.887 -54.211  0.00  0.00     0.005 A 
ENDBRANCH   6   8
ENDBRANCH   4   5
ENDBRANCH   1   4
BRANCH   2  14
ATOM     14  C   UNL d   1     -42.098-122.839 -49.747  0.00  0.00     0.086 A 
ATOM     15  C   UNL d   1     -41.526-123.052 -49.192  0.00  0.00     0.031 A 
ATOM     16  C   UNL d   1     -41.746-123.524 -48.552  0.00  0.00     0.060 A 
ATOM     17 CL   UNL d   1     -41.160-123.698 -48.051  0.00  0.00    -0.082 Cl
ATOM     18  C   UNL d   1     -42.523-123.781 -48.462  0.00  0.00     0.023 A 
ATOM     19  C   UNL d   1     -43.093-123.561 -49.025  0.00  0.00     0.060 A 
ATOM     20  C   UNL d   1     -42.881-123.090 -49.669  0.00  0.00     0.031 A 
ATOM     21 CL   UNL d   1     -43.876-123.816 -48.942  0.00  0.00    -0.082 Cl
ENDBRANCH   2  14
TORSDOF 4
ENDMDL
MODEL 2
REMARK VINA RESULT:      -4.9      2.249      5.029
REMARK  4 active torsions:
REMARK  status: ('A' for Active; 'I' for Inactive)
REMARK       I    between atoms: N_3  and  C_1 
REMARK    1  A    between atoms: C_13  and  C_1 
REMARK    2  A    between atoms: C_2  and  N_5 
REMARK    3  A    between atoms: C_14  and  N_3 
REMARK    4  A    between atoms: C_4  and  C_14 
REMARK       I    between atoms: N_5  and  C_4 
ROOT
ATOM      1  C   UNL d   1     -41.593-122.477 -52.366  0.00  0.00     0.299 C 
ATOM      2  N   UNL d   1     -41.288-122.033 -52.988  0.00  0.00    -0.207 NA
ATOM      3  O   UNL d   1     -42.092-123.118 -52.510  0.00  0.00    -0.263 OA
ENDROOT
BRANCH   1   4
ATOM      4  C   UNL d   1     -41.398-122.279 -51.589  0.00  0.00     0.165 C 
BRANCH   4   5
ATOM      5  N   UNL d   1     -41.728-122.704 -50.960  0.00  0.00    -0.201 NA
ATOM      6  C   UNL d   1     -41.659-122.401 -50.193  0.00  0.00     0.279 C 
ATOM      7  O   UNL d   1     -41.266-121.688 -50.061  0.00  0.00    -0.265 OA
BRANCH   6   8
ATOM      8  C   UNL d   1     -41.987-122.820 -49.555  0.00  0.00     0.058 A 
ATOM      9  C   UNL d   1     -42.789-122.746 -49.382  0.00  0.00     0.005 A 
ATOM     10  C   UNL d   1     -43.104-123.161 -48.753  0.00  0.00     0.000 A 
ATOM     11  C   UNL d   1     -42.625-123.651 -48.294  0.00  0.00     0.000 A 
ATOM     12  C   UNL d   1     -41.831-123.726 -48.463  0.00  0.00     0.000 A 
ATOM     13  C   UNL d   1     -41.508-123.310 -49.096  0.00  0.00     0.005 A 
ENDBRANCH   6   8
ENDBRANCH   4   5
ENDBRANCH   1   4
BRANCH   2  14
ATOM     14  C   UNL d   1     -41.486-122.235 -53.766  0.00  0.00     0.086 A 
ATOM     15  C   UNL d   1     -41.209-122.941 -54.091  0.00  0.00     0.031 A 
ATOM     16  C   UNL d   1     -41.414-123.131 -54.867  0.00  0.00     0.060 A 
ATOM     17 CL   UNL d   1     -41.123-123.817 -55.128  0.00  0.00    -0.082 Cl
ATOM     18  C   UNL d   1     -41.887-122.628 -55.316  0.00  0.00     0.023 A 
ATOM     19  C   UNL d   1     -42.161-121.920 -54.981  0.00  0.00     0.060 A 
ATOM     20  C   UNL d   1     -41.961-121.722 -54.205  0.00  0.00     0.031 A 
ATOM     21 CL   UNL d   1     -42.637-121.409 -55.426  0.00  0.00    -0.082 Cl
ENDBRANCH   2  14
TORSDOF 4
ENDMDL
