MODEL 1
REMARK VINA RESULT:      79.3      0.000      0.000
REMARK  6 active torsions:
REMARK  status: ('A' for Active; 'I' for Inactive)
REMARK    1  A    between atoms: N_2  and  S_1 
REMARK    2  A    between atoms: C_6  and  S_1 
REMARK    3  A    between atoms: N_4  and  C_3 
REMARK       I    between atoms: C_5  and  N_4 
REMARK       I    between atoms: N_10  and  C_5 
REMARK    4  A    between atoms: C_7  and  C_11 
REMARK    5  A    between atoms: O_20  and  C_7 
REMARK    6  A    between atoms: C_14  and  N_10 
ROOT
ATOM      1  N   UNL d   1     -50.063  27.166  35.493  0.00  0.00    -0.214 N 
ATOM      2  C   UNL d   1     -50.033  27.015  34.675  0.00  0.00     0.162 A 
ATOM      3  C   UNL d   1     -49.486  27.739  35.665  0.00  0.00     0.093 A 
ATOM      4  C   UNL d   1     -49.440  27.494  34.345  0.00  0.00     0.040 A 
ATOM      5  C   UNL d   1     -49.108  27.935  34.951  0.00  0.00     0.023 A 
ENDROOT
BRANCH   2   6
ATOM      6  N   UNL d   1     -50.520  26.472  34.264  0.00  0.00    -0.173 NA
ATOM      7  C   UNL d   1     -51.073  26.752  33.722  0.00  0.00     0.370 C 
ATOM      8  N   UNL d   1     -51.557  26.216  33.315  0.00  0.00    -0.191 NA
ATOM      9  O   UNL d   1     -51.152  27.561  33.578  0.00  0.00    -0.242 OA
BRANCH   8  10
ATOM     10  C   UNL d   1     -51.484  25.407  33.453  0.00  0.00     0.086 A 
ATOM     11  C   UNL d   1     -52.153  24.956  33.623  0.00  0.00     0.025 A 
ATOM     12  C   UNL d   1     -52.080  24.147  33.761  0.00  0.00     0.065 A 
ATOM     13  C   UNL d   1     -51.334  23.788  33.728  0.00  0.00     0.005 A 
ATOM     14  C   UNL d   1     -50.669  24.241  33.558  0.00  0.00     0.002 A 
ATOM     15  C   UNL d   1     -50.741  25.050  33.420  0.00  0.00     0.019 A 
BRANCH  12  16
ATOM     16  C   UNL d   1     -52.756  23.701  33.931  0.00  0.00     0.296 C 
ATOM     17  O   UNL d   1     -52.982  23.563  34.704  0.00  0.00    -0.259 OA
BRANCH  16  18
ATOM     18  O   UNL d   1     -53.204  23.395  33.308  0.00  0.00    -0.296 OA
ATOM     19  C   UNL d   1     -53.993  23.206  33.414  0.00  0.00     0.185 C 
ENDBRANCH  16  18
ENDBRANCH  12  16
ENDBRANCH   8  10
ENDBRANCH   2   6
BRANCH   1  20
ATOM     20  S   UNL d   1     -50.527  26.867  36.099  0.00  0.00     0.272 S 
ATOM     21  O   UNL d   1     -51.200  27.105  35.742  0.00  0.00    -0.200 OA
ATOM     22  O   UNL d   1     -49.857  26.607  36.497  0.00  0.00    -0.200 OA
BRANCH  20  23
ATOM     23  C   UNL d   1     -51.009  26.565  36.712  0.00  0.00     0.104 A 
ATOM     24  C   UNL d   1     -50.740  26.575  37.490  0.00  0.00     0.014 A 
ATOM     25  C   UNL d   1     -51.216  26.279  38.084  0.00  0.00     0.012 A 
ATOM     26  C   UNL d   1     -51.968  25.968  37.912  0.00  0.00     0.058 A 
ATOM     27  C   UNL d   1     -52.236  25.958  37.135  0.00  0.00     0.012 A 
ATOM     28 CL   UNL d   1     -52.447  25.668  38.517  0.00  0.00    -0.082 Cl
ATOM     29  C   UNL d   1     -51.753  26.260  36.526  0.00  0.00     0.014 A 
ENDBRANCH  20  23
ENDBRANCH   1  20
TORSDOF 6
ENDMDL
