MODEL 1
REMARK VINA RESULT:       8.6      0.000      0.000
REMARK  3 active torsions:
REMARK  status: ('A' for Active; 'I' for Inactive)
REMARK    1  A    between atoms: C_2  and  O_1 
REMARK    2  A    between atoms: C_5  and  O_1 
REMARK    3  A    between atoms: C_10  and  C_5 
ROOT
ATOM      1  O   UNL d   1      46.120 -16.884  43.934  0.00  0.00    -0.305 OA
ENDROOT
BRANCH   1   2
ATOM      2  C   UNL d   1      46.252 -17.702  43.853  0.00  0.00     0.100 A 
ATOM      3  C   UNL d   1      46.363 -18.188  44.526  0.00  0.00     0.026 A 
ATOM      4  C   UNL d   1      46.493 -18.998  44.434  0.00  0.00     0.023 A 
ATOM      5  C   UNL d   1      46.514 -19.327  43.678  0.00  0.00     0.103 A 
ATOM      6  C   UNL d   1      46.400 -18.828  42.988  0.00  0.00     0.023 A 
ATOM      7  N   UNL d   1      46.646 -20.152  43.574  0.00  0.00    -0.148 N 
ATOM      8  C   UNL d   1      46.273 -18.032  43.098  0.00  0.00     0.026 A 
ENDBRANCH   1   2
BRANCH   1   9
ATOM      9  C   UNL d   1      45.841 -16.586  44.648  0.00  0.00     0.122 C 
BRANCH   9  10
ATOM     10  C   UNL d   1      45.664 -15.765  44.693  0.00  0.00     0.025 A 
ATOM     11  C   UNL d   1      44.893 -15.521  44.909  0.00  0.00     0.002 A 
ATOM     12  C   UNL d   1      44.712 -14.718  44.955  0.00  0.00     0.000 A 
ATOM     13  C   UNL d   1      45.313 -14.146  44.782  0.00  0.00     0.000 A 
ATOM     14  C   UNL d   1      46.062 -14.398  44.572  0.00  0.00     0.000 A 
ATOM     15  C   UNL d   1      46.244 -15.202  44.526  0.00  0.00     0.002 A 
ENDBRANCH   9  10
ENDBRANCH   1   9
TORSDOF 3
ENDMDL
MODEL 2
REMARK VINA RESULT:       9.3      1.801      4.073
REMARK  3 active torsions:
REMARK  status: ('A' for Active; 'I' for Inactive)
REMARK    1  A    between atoms: C_2  and  O_1 
REMARK    2  A    between atoms: C_5  and  O_1 
REMARK    3  A    between atoms: C_10  and  C_5 
ROOT
ATOM      1  O   UNL d   1      45.904 -16.815  44.580  0.00  0.00    -0.305 OA
ENDROOT
BRANCH   1   2
ATOM      2  C   UNL d   1      45.721 -16.003  44.621  0.00  0.00     0.100 A 
ATOM      3  C   UNL d   1      46.277 -15.425  44.382  0.00  0.00     0.026 A 
ATOM      4  C   UNL d   1      46.085 -14.624  44.427  0.00  0.00     0.023 A 
ATOM      5  C   UNL d   1      45.344 -14.394  44.708  0.00  0.00     0.103 A 
ATOM      6  C   UNL d   1      44.774 -14.987  44.953  0.00  0.00     0.023 A 
ATOM      7  N   UNL d   1      45.140 -13.579  44.758  0.00  0.00    -0.148 N 
ATOM      8  C   UNL d   1      44.980 -15.773  44.902  0.00  0.00     0.026 A 
ENDBRANCH   1   2
BRANCH   1   9
ATOM      9  C   UNL d   1      46.067 -17.158  43.850  0.00  0.00     0.122 C 
BRANCH   9  10
ATOM     10  C   UNL d   1      46.262 -17.976  43.832  0.00  0.00     0.025 A 
ATOM     11  C   UNL d   1      46.280 -18.378  43.098  0.00  0.00     0.002 A 
ATOM     12  C   UNL d   1      46.470 -19.180  43.071  0.00  0.00     0.000 A 
ATOM     13  C   UNL d   1      46.646 -19.589  43.792  0.00  0.00     0.000 A 
ATOM     14  C   UNL d   1      46.625 -19.184  44.503  0.00  0.00     0.000 A 
ATOM     15  C   UNL d   1      46.434 -18.382  44.530  0.00  0.00     0.002 A 
ENDBRANCH   9  10
ENDBRANCH   1   9
TORSDOF 3
ENDMDL
