MODEL 1
REMARK VINA RESULT:      30.5      0.000      0.000
REMARK  4 active torsions:
REMARK  status: ('A' for Active; 'I' for Inactive)
REMARK    1  A    between atoms: N_2  and  S_1 
REMARK    2  A    between atoms: C_4  and  S_1 
REMARK    3  A    between atoms: C_15  and  C_3 
REMARK    4  A    between atoms: O_16  and  C_12 
ROOT
ATOM      1  S   UNL d   1     -57.760 -98.824 -44.223  0.00  0.00     0.273 S 
ATOM      2  O   UNL d   1     -58.080 -98.893 -44.981  0.00  0.00    -0.200 OA
ATOM      3  O   UNL d   1     -57.440 -98.755 -43.466  0.00  0.00    -0.200 OA
ENDROOT
BRANCH   1   4
ATOM      4  N   UNL d   1     -58.523 -98.806 -43.903  0.00  0.00    -0.213 N 
ATOM      5  C   UNL d   1     -59.228 -98.795 -44.333  0.00  0.00     0.157 A 
ATOM      6  N   UNL d   1     -59.855 -98.779 -43.790  0.00  0.00    -0.226 NA
ATOM      7  C   UNL d   1     -59.535 -98.779 -43.030  0.00  0.00     0.101 A 
ATOM      8  C   UNL d   1     -58.709 -98.796 -43.098  0.00  0.00     0.112 A 
ATOM      9  C   UNL d   1     -59.961 -98.765 -42.324  0.00  0.00     0.022 C 
BRANCH   5  10
ATOM     10  C   UNL d   1     -59.295 -98.800 -45.150  0.00  0.00     0.038 C 
ATOM     11  C   UNL d   1     -59.779 -99.356 -45.518  0.00  0.00     0.003 C 
ENDBRANCH   5  10
ENDBRANCH   1   4
BRANCH   1  12
ATOM     12  C   UNL d   1     -57.000 -98.842 -44.543  0.00  0.00     0.106 A 
ATOM     13  C   UNL d   1     -56.344 -98.894 -44.044  0.00  0.00     0.037 A 
ATOM     14  C   UNL d   1     -55.584 -98.911 -44.363  0.00  0.00     0.095 A 
ATOM     15  C   UNL d   1     -55.479 -98.877 -45.181  0.00  0.00     0.022 A 
ATOM     16  C   UNL d   1     -56.135 -98.826 -45.679  0.00  0.00     0.003 A 
ATOM     17  C   UNL d   1     -54.718 -98.895 -45.501  0.00  0.00     0.002 C 
ATOM     18  C   UNL d   1     -56.894 -98.808 -45.360  0.00  0.00     0.012 A 
ATOM     19  C   UNL d   1     -57.547 -98.757 -45.849  0.00  0.00     0.001 C 
BRANCH  14  20
ATOM     20  O   UNL d   1     -54.926 -98.963 -43.861  0.00  0.00    -0.328 OA
ATOM     21  C   UNL d   1     -55.011 -98.809 -43.055  0.00  0.00     0.181 C 
ENDBRANCH  14  20
ENDBRANCH   1  12
TORSDOF 4
ENDMDL
