MODEL 1
REMARK VINA RESULT:     -10.0      0.000      0.000
REMARK  4 active torsions:
REMARK  status: ('A' for Active; 'I' for Inactive)
REMARK    1  A    between atoms: C_6  and  C_1 
REMARK    2  A    between atoms: S_7  and  C_3 
REMARK    3  A    between atoms: C_17  and  S_7 
REMARK    4  A    between atoms: C_18  and  C_17 
ROOT
ATOM      1  C   UNL d   1      52.502  33.715  53.539  0.00  0.00     0.087 A 
ATOM      2  N   UNL d   1      52.805  34.242  54.102  0.00  0.00    -0.245 NA
ATOM      3  C   UNL d   1      53.008  33.062  53.497  0.00  0.00     0.049 A 
ATOM      4  C   UNL d   1      53.626  33.176  54.030  0.00  0.00     0.025 A 
ATOM      5  C   UNL d   1      53.499  33.908  54.404  0.00  0.00     0.082 A 
ATOM      6  C   UNL d   1      54.279  32.724  54.225  0.00  0.00     0.002 A 
ATOM      7  C   UNL d   1      54.032  34.177  54.973  0.00  0.00     0.019 A 
ATOM      8  C   UNL d   1      54.813  32.993  54.794  0.00  0.00     0.000 A 
ATOM      9  C   UNL d   1      54.688  33.717  55.166  0.00  0.00     0.002 A 
ENDROOT
BRANCH   1  10
ATOM     10  C   UNL d   1      51.818  33.861  53.124  0.00  0.00     0.018 A 
ATOM     11  C   UNL d   1      51.080  33.704  53.478  0.00  0.00     0.004 A 
ATOM     12  C   UNL d   1      50.387  33.852  53.057  0.00  0.00     0.030 A 
ATOM     13  C   UNL d   1      50.420  34.154  52.287  0.00  0.00     0.140 A 
ATOM     14  C   UNL d   1      51.154  34.311  51.933  0.00  0.00     0.030 A 
ATOM     15  F   UNL d   1      49.725  34.306  51.857  0.00  0.00    -0.204 F 
ATOM     16  C   UNL d   1      51.847  34.163  52.354  0.00  0.00     0.004 A 
ENDBRANCH   1  10
BRANCH   3  17
ATOM     17  S   UNL d   1      52.913  32.407  53.006  0.00  0.00    -0.083 SA
BRANCH  17  18
ATOM     18  C   UNL d   1      52.922  31.640  53.344  0.00  0.00     0.058 C 
BRANCH  18  19
ATOM     19  C   UNL d   1      52.852  30.981  52.840  0.00  0.00     0.129 C 
ATOM     20  N   UNL d   1      52.556  30.285  53.145  0.00  0.00    -0.146 N 
ENDBRANCH  18  19
ENDBRANCH  17  18
ENDBRANCH   3  17
TORSDOF 4
ENDMDL
MODEL 2
REMARK VINA RESULT:      -9.7      1.869      3.770
REMARK  4 active torsions:
REMARK  status: ('A' for Active; 'I' for Inactive)
REMARK    1  A    between atoms: C_6  and  C_1 
REMARK    2  A    between atoms: S_7  and  C_3 
REMARK    3  A    between atoms: C_17  and  S_7 
REMARK    4  A    between atoms: C_18  and  C_17 
ROOT
ATOM      1  C   UNL d   1      53.868  31.970  54.022  0.00  0.00     0.087 A 
ATOM      2  N   UNL d   1      54.014  31.180  54.225  0.00  0.00    -0.245 NA
ATOM      3  C   UNL d   1      53.271  31.985  53.449  0.00  0.00     0.049 A 
ATOM      4  C   UNL d   1      53.042  31.209  53.292  0.00  0.00     0.025 A 
ATOM      5  C   UNL d   1      53.504  30.711  53.774  0.00  0.00     0.082 A 
ATOM      6  C   UNL d   1      52.487  30.889  52.785  0.00  0.00     0.002 A 
ATOM      7  C   UNL d   1      53.399  29.894  53.739  0.00  0.00     0.019 A 
ATOM      8  C   UNL d   1      52.383  30.070  52.750  0.00  0.00     0.000 A 
ATOM      9  C   UNL d   1      52.838  29.576  53.226  0.00  0.00     0.002 A 
ENDROOT
BRANCH   1  10
ATOM     10  C   UNL d   1      54.271  32.591  54.359  0.00  0.00     0.018 A 
ATOM     11  C   UNL d   1      54.081  32.835  55.133  0.00  0.00     0.004 A 
ATOM     12  C   UNL d   1      54.490  33.465  55.473  0.00  0.00     0.030 A 
ATOM     13  C   UNL d   1      55.085  33.855  55.052  0.00  0.00     0.140 A 
ATOM     14  C   UNL d   1      55.275  33.615  54.281  0.00  0.00     0.030 A 
ATOM     15  F   UNL d   1      55.501  34.492  55.389  0.00  0.00    -0.204 F 
ATOM     16  C   UNL d   1      54.867  32.985  53.941  0.00  0.00     0.004 A 
ENDBRANCH   1  10
BRANCH   3  17
ATOM     17  S   UNL d   1      52.958  32.659  53.095  0.00  0.00    -0.083 SA
BRANCH  17  18
ATOM     18  C   UNL d   1      52.138  32.814  53.170  0.00  0.00     0.058 C 
BRANCH  18  19
ATOM     19  C   UNL d   1      51.826  33.496  52.808  0.00  0.00     0.129 C 
ATOM     20  N   UNL d   1      51.127  33.806  53.093  0.00  0.00    -0.146 N 
ENDBRANCH  18  19
ENDBRANCH  17  18
ENDBRANCH   3  17
TORSDOF 4
ENDMDL
MODEL 3
REMARK VINA RESULT:      -9.2      1.045      2.491
REMARK  4 active torsions:
REMARK  status: ('A' for Active; 'I' for Inactive)
REMARK    1  A    between atoms: C_6  and  C_1 
REMARK    2  A    between atoms: S_7  and  C_3 
REMARK    3  A    between atoms: C_17  and  S_7 
REMARK    4  A    between atoms: C_18  and  C_17 
ROOT
ATOM      1  C   UNL d   1      52.333  32.303  53.109  0.00  0.00     0.087 A 
ATOM      2  N   UNL d   1      52.040  31.554  52.912  0.00  0.00    -0.245 NA
ATOM      3  C   UNL d   1      53.101  32.211  53.403  0.00  0.00     0.049 A 
ATOM      4  C   UNL d   1      53.290  31.409  53.392  0.00  0.00     0.025 A 
ATOM      5  C   UNL d   1      52.631  31.002  53.087  0.00  0.00     0.082 A 
ATOM      6  C   UNL d   1      53.960  30.996  53.614  0.00  0.00     0.002 A 
ATOM      7  C   UNL d   1      52.654  30.182  53.009  0.00  0.00     0.019 A 
ATOM      8  C   UNL d   1      53.983  30.174  53.535  0.00  0.00     0.000 A 
ATOM      9  C   UNL d   1      53.332  29.771  53.233  0.00  0.00     0.002 A 
ENDROOT
BRANCH   1  10
ATOM     10  C   UNL d   1      51.901  32.984  53.010  0.00  0.00     0.018 A 
ATOM     11  C   UNL d   1      51.249  33.134  53.508  0.00  0.00     0.004 A 
ATOM     12  C   UNL d   1      50.811  33.825  53.407  0.00  0.00     0.030 A 
ATOM     13  C   UNL d   1      51.014  34.368  52.817  0.00  0.00     0.140 A 
ATOM     14  C   UNL d   1      51.662  34.221  52.320  0.00  0.00     0.030 A 
ATOM     15  F   UNL d   1      50.576  35.067  52.710  0.00  0.00    -0.204 F 
ATOM     16  C   UNL d   1      52.100  33.530  52.421  0.00  0.00     0.004 A 
ENDBRANCH   1  10
BRANCH   3  17
ATOM     17  S   UNL d   1      53.595  32.817  53.664  0.00  0.00    -0.083 SA
BRANCH  17  18
ATOM     18  C   UNL d   1      53.920  32.773  54.435  0.00  0.00     0.058 C 
BRANCH  18  19
ATOM     19  C   UNL d   1      54.442  33.373  54.683  0.00  0.00     0.129 C 
ATOM     20  N   UNL d   1      54.630  33.425  55.474  0.00  0.00    -0.146 N 
ENDBRANCH  18  19
ENDBRANCH  17  18
ENDBRANCH   3  17
TORSDOF 4
ENDMDL
MODEL 4
REMARK VINA RESULT:      -8.8      1.924      3.672
REMARK  4 active torsions:
REMARK  status: ('A' for Active; 'I' for Inactive)
REMARK    1  A    between atoms: C_6  and  C_1 
REMARK    2  A    between atoms: S_7  and  C_3 
REMARK    3  A    between atoms: C_17  and  S_7 
REMARK    4  A    between atoms: C_18  and  C_17 
ROOT
ATOM      1  C   UNL d   1      52.765  32.083  53.346  0.00  0.00     0.087 A 
ATOM      2  N   UNL d   1      52.013  32.296  53.071  0.00  0.00    -0.245 NA
ATOM      3  C   UNL d   1      53.208  32.774  53.451  0.00  0.00     0.049 A 
ATOM      4  C   UNL d   1      52.738  33.419  53.243  0.00  0.00     0.025 A 
ATOM      5  C   UNL d   1      51.997  33.120  53.007  0.00  0.00     0.082 A 
ATOM      6  C   UNL d   1      52.877  34.224  53.235  0.00  0.00     0.002 A 
ATOM      7  C   UNL d   1      51.404  33.639  52.765  0.00  0.00     0.019 A 
ATOM      8  C   UNL d   1      52.283  34.743  52.992  0.00  0.00     0.000 A 
ATOM      9  C   UNL d   1      51.550  34.450  52.759  0.00  0.00     0.002 A 
ENDROOT
BRANCH   1  10
ATOM     10  C   UNL d   1      52.982  31.311  53.475  0.00  0.00     0.018 A 
ATOM     11  C   UNL d   1      53.264  30.849  52.841  0.00  0.00     0.004 A 
ATOM     12  C   UNL d   1      53.485  30.067  52.973  0.00  0.00     0.030 A 
ATOM     13  C   UNL d   1      53.428  29.737  53.729  0.00  0.00     0.140 A 
ATOM     14  C   UNL d   1      53.148  30.193  54.363  0.00  0.00     0.030 A 
ATOM     15  F   UNL d   1      53.649  28.947  53.870  0.00  0.00    -0.204 F 
ATOM     16  C   UNL d   1      52.927  30.976  54.231  0.00  0.00     0.004 A 
ENDBRANCH   1  10
BRANCH   3  17
ATOM     17  S   UNL d   1      53.986  32.814  53.718  0.00  0.00    -0.083 SA
BRANCH  17  18
ATOM     18  C   UNL d   1      54.165  33.293  54.381  0.00  0.00     0.058 C 
BRANCH  18  19
ATOM     19  C   UNL d   1      54.960  33.364  54.620  0.00  0.00     0.129 C 
ATOM     20  N   UNL d   1      55.119  33.623  55.377  0.00  0.00    -0.146 N 
ENDBRANCH  18  19
ENDBRANCH  17  18
ENDBRANCH   3  17
TORSDOF 4
ENDMDL
MODEL 5
REMARK VINA RESULT:      -8.7      1.705      3.361
REMARK  4 active torsions:
REMARK  status: ('A' for Active; 'I' for Inactive)
REMARK    1  A    between atoms: C_6  and  C_1 
REMARK    2  A    between atoms: S_7  and  C_3 
REMARK    3  A    between atoms: C_17  and  S_7 
REMARK    4  A    between atoms: C_18  and  C_17 
ROOT
ATOM      1  C   UNL d   1      52.960  33.697  53.840  0.00  0.00     0.087 A 
ATOM      2  N   UNL d   1      52.437  34.336  53.896  0.00  0.00    -0.245 NA
ATOM      3  C   UNL d   1      52.657  33.163  53.284  0.00  0.00     0.049 A 
ATOM      4  C   UNL d   1      51.948  33.464  52.992  0.00  0.00     0.025 A 
ATOM      5  C   UNL d   1      51.812  34.192  53.373  0.00  0.00     0.082 A 
ATOM      6  C   UNL d   1      51.413  33.183  52.442  0.00  0.00     0.002 A 
ATOM      7  C   UNL d   1      51.137  34.630  53.193  0.00  0.00     0.019 A 
ATOM      8  C   UNL d   1      50.737  33.622  52.262  0.00  0.00     0.000 A 
ATOM      9  C   UNL d   1      50.601  34.342  52.637  0.00  0.00     0.002 A 
ENDROOT
BRANCH   1  10
ATOM     10  C   UNL d   1      53.643  33.648  54.278  0.00  0.00     0.018 A 
ATOM     11  C   UNL d   1      53.603  33.426  55.080  0.00  0.00     0.004 A 
ATOM     12  C   UNL d   1      54.296  33.377  55.523  0.00  0.00     0.030 A 
ATOM     13  C   UNL d   1      55.028  33.546  55.178  0.00  0.00     0.140 A 
ATOM     14  C   UNL d   1      55.071  33.768  54.379  0.00  0.00     0.030 A 
ATOM     15  F   UNL d   1      55.731  33.498  55.620  0.00  0.00    -0.204 F 
ATOM     16  C   UNL d   1      54.378  33.817  53.936  0.00  0.00     0.004 A 
ENDBRANCH   1  10
BRANCH   3  17
ATOM     17  S   UNL d   1      53.004  32.450  53.060  0.00  0.00    -0.083 SA
BRANCH  17  18
ATOM     18  C   UNL d   1      52.564  31.741  53.137  0.00  0.00     0.058 C 
BRANCH  18  19
ATOM     19  C   UNL d   1      52.904  31.029  52.869  0.00  0.00     0.129 C 
ATOM     20  N   UNL d   1      52.693  30.333  53.237  0.00  0.00    -0.146 N 
ENDBRANCH  18  19
ENDBRANCH  17  18
ENDBRANCH   3  17
TORSDOF 4
ENDMDL
MODEL 6
REMARK VINA RESULT:      -8.6      1.751      3.072
REMARK  4 active torsions:
REMARK  status: ('A' for Active; 'I' for Inactive)
REMARK    1  A    between atoms: C_6  and  C_1 
REMARK    2  A    between atoms: S_7  and  C_3 
REMARK    3  A    between atoms: C_17  and  S_7 
REMARK    4  A    between atoms: C_18  and  C_17 
ROOT
ATOM      1  C   UNL d   1      53.592  31.994  53.983  0.00  0.00     0.087 A 
ATOM      2  N   UNL d   1      54.211  32.098  54.523  0.00  0.00    -0.245 NA
ATOM      3  C   UNL d   1      53.270  32.737  53.812  0.00  0.00     0.049 A 
ATOM      4  C   UNL d   1      53.683  33.306  54.242  0.00  0.00     0.025 A 
ATOM      5  C   UNL d   1      54.266  32.908  54.683  0.00  0.00     0.082 A 
ATOM      6  C   UNL d   1      53.612  34.119  54.296  0.00  0.00     0.002 A 
ATOM      7  C   UNL d   1      54.773  33.335  55.174  0.00  0.00     0.019 A 
ATOM      8  C   UNL d   1      54.119  34.546  54.787  0.00  0.00     0.000 A 
ATOM      9  C   UNL d   1      54.697  34.154  55.223  0.00  0.00     0.002 A 
ENDROOT
BRANCH   1  10
ATOM     10  C   UNL d   1      53.377  31.265  53.697  0.00  0.00     0.018 A 
ATOM     11  C   UNL d   1      53.074  30.690  54.220  0.00  0.00     0.004 A 
ATOM     12  C   UNL d   1      52.856  29.950  53.929  0.00  0.00     0.030 A 
ATOM     13  C   UNL d   1      52.934  29.775  53.125  0.00  0.00     0.140 A 
ATOM     14  C   UNL d   1      53.235  30.345  52.602  0.00  0.00     0.030 A 
ATOM     15  F   UNL d   1      52.716  29.031  52.826  0.00  0.00    -0.204 F 
ATOM     16  C   UNL d   1      53.454  31.085  52.893  0.00  0.00     0.004 A 
ENDBRANCH   1  10
BRANCH   3  17
ATOM     17  S   UNL d   1      52.642  32.886  53.299  0.00  0.00    -0.083 SA
BRANCH  17  18
ATOM     18  C   UNL d   1      51.976  33.307  53.584  0.00  0.00     0.058 C 
BRANCH  18  19
ATOM     19  C   UNL d   1      51.373  33.510  53.046  0.00  0.00     0.129 C 
ATOM     20  N   UNL d   1      50.599  33.492  53.301  0.00  0.00    -0.146 N 
ENDBRANCH  18  19
ENDBRANCH  17  18
ENDBRANCH   3  17
TORSDOF 4
ENDMDL
MODEL 7
REMARK VINA RESULT:      -8.5      1.095      2.281
REMARK  4 active torsions:
REMARK  status: ('A' for Active; 'I' for Inactive)
REMARK    1  A    between atoms: C_6  and  C_1 
REMARK    2  A    between atoms: S_7  and  C_3 
REMARK    3  A    between atoms: C_17  and  S_7 
REMARK    4  A    between atoms: C_18  and  C_17 
ROOT
ATOM      1  C   UNL d   1      52.063  33.331  52.994  0.00  0.00     0.087 A 
ATOM      2  N   UNL d   1      52.179  32.512  52.965  0.00  0.00    -0.245 NA
ATOM      3  C   UNL d   1      52.743  33.678  53.312  0.00  0.00     0.049 A 
ATOM      4  C   UNL d   1      53.285  33.082  53.482  0.00  0.00     0.025 A 
ATOM      5  C   UNL d   1      52.934  32.358  53.266  0.00  0.00     0.082 A 
ATOM      6  C   UNL d   1      54.039  33.094  53.799  0.00  0.00     0.002 A 
ATOM      7  C   UNL d   1      53.348  31.653  53.373  0.00  0.00     0.019 A 
ATOM      8  C   UNL d   1      54.453  32.387  53.905  0.00  0.00     0.000 A 
ATOM      9  C   UNL d   1      54.107  31.671  53.692  0.00  0.00     0.002 A 
ENDROOT
BRANCH   1  10
ATOM     10  C   UNL d   1      51.377  33.686  52.741  0.00  0.00     0.018 A 
ATOM     11  C   UNL d   1      50.710  33.700  53.241  0.00  0.00     0.004 A 
ATOM     12  C   UNL d   1      50.015  34.060  52.983  0.00  0.00     0.030 A 
ATOM     13  C   UNL d   1      49.976  34.407  52.233  0.00  0.00     0.140 A 
ATOM     14  C   UNL d   1      50.637  34.395  51.733  0.00  0.00     0.030 A 
ATOM     15  F   UNL d   1      49.277  34.772  51.967  0.00  0.00    -0.204 F 
ATOM     16  C   UNL d   1      51.332  34.035  51.991  0.00  0.00     0.004 A 
ENDBRANCH   1  10
BRANCH   3  17
ATOM     17  S   UNL d   1      52.861  34.484  53.438  0.00  0.00    -0.083 SA
BRANCH  17  18
ATOM     18  C   UNL d   1      53.016  34.756  54.215  0.00  0.00     0.058 C 
BRANCH  18  19
ATOM     19  C   UNL d   1      53.219  35.557  54.325  0.00  0.00     0.129 C 
ATOM     20  N   UNL d   1      52.832  35.982  54.903  0.00  0.00    -0.146 N 
ENDBRANCH  18  19
ENDBRANCH  17  18
ENDBRANCH   3  17
TORSDOF 4
ENDMDL
