MODEL 1
REMARK VINA RESULT:      -5.8      0.000      0.000
REMARK  2 active torsions:
REMARK  status: ('A' for Active; 'I' for Inactive)
REMARK    1  A    between atoms: C_8  and  C_1 
REMARK    2  A    between atoms: N_5  and  C_8 
ROOT
ATOM      1  C   UNL d   1      58.344   0.617  30.413  0.00  0.00     0.059 A 
ATOM      2  C   UNL d   1      59.454   0.433  29.546  0.00  0.00     0.121 A 
ATOM      3  C   UNL d   1      58.652   0.496  29.662  0.00  0.00     0.214 A 
ATOM      4  C   UNL d   1      59.971   0.493  30.194  0.00  0.00     0.032 A 
ATOM      5  C   UNL d   1      59.676   0.614  30.946  0.00  0.00     0.059 A 
ATOM      6  C   UNL d   1      58.854   0.676  31.052  0.00  0.00     0.016 A 
ATOM      7  N   UNL d   1      59.759   0.312  28.797  0.00  0.00    -0.241 NA
ATOM      8 CL   UNL d   1      60.187   0.673  31.588  0.00  0.00    -0.082 Cl
ATOM      9  O   UNL d   1      58.135   0.436  29.014  0.00  0.00    -0.285 OA
ATOM     10  C   UNL d   1      60.774   0.430  30.070  0.00  0.00     0.004 A 
ATOM     11  C   UNL d   1      60.568   0.249  28.675  0.00  0.00     0.099 A 
ATOM     12  C   UNL d   1      61.077   0.308  29.313  0.00  0.00     0.021 A 
ENDROOT
BRANCH   1  13
ATOM     13  C   UNL d   1      57.521   0.681  30.531  0.00  0.00     0.084 C 
BRANCH  13  14
ATOM     14  N   UNL d   1      57.151   0.234  31.126  0.00  0.00    -0.302 N 
ATOM     15  C   UNL d   1      56.739   0.612  31.717  0.00  0.00     0.080 A 
ATOM     16  C   UNL d   1      56.369   0.165  32.312  0.00  0.00     0.018 A 
ATOM     17  C   UNL d   1      55.950   0.546  32.912  0.00  0.00     0.002 A 
ATOM     18  C   UNL d   1      56.423  -0.661  32.299  0.00  0.00     0.003 A 
ATOM     19  C   UNL d   1      55.578   0.096  33.511  0.00  0.00     0.000 A 
ATOM     20  C   UNL d   1      55.631  -0.727  33.499  0.00  0.00     0.000 A 
ATOM     21  C   UNL d   1      56.047  -1.101  32.903  0.00  0.00     0.000 A 
ATOM     22  C   UNL d   1      56.835  -1.028  31.706  0.00  0.00     0.019 A 
ATOM     23  C   UNL d   1      57.210  -0.591  31.105  0.00  0.00     0.080 A 
ENDBRANCH  13  14
ENDBRANCH   1  13
TORSDOF 2
ENDMDL
MODEL 2
REMARK VINA RESULT:      -3.9      1.528      4.094
REMARK  2 active torsions:
REMARK  status: ('A' for Active; 'I' for Inactive)
REMARK    1  A    between atoms: C_8  and  C_1 
REMARK    2  A    between atoms: N_5  and  C_8 
ROOT
ATOM      1  C   UNL d   1      58.046   0.678  30.876  0.00  0.00     0.059 A 
ATOM      2  C   UNL d   1      57.069   0.680  31.907  0.00  0.00     0.121 A 
ATOM      3  C   UNL d   1      57.262   0.678  31.117  0.00  0.00     0.214 A 
ATOM      4  C   UNL d   1      57.672   0.681  32.479  0.00  0.00     0.032 A 
ATOM      5  C   UNL d   1      58.456   0.681  32.250  0.00  0.00     0.059 A 
ATOM      6  C   UNL d   1      58.641   0.680  31.439  0.00  0.00     0.016 A 
ATOM      7  N   UNL d   1      56.287   0.680  32.145  0.00  0.00    -0.241 NA
ATOM      8 CL   UNL d   1      59.054   0.682  32.816  0.00  0.00    -0.082 Cl
ATOM      9  O   UNL d   1      56.658   0.677  30.545  0.00  0.00    -0.285 OA
ATOM     10  C   UNL d   1      57.472   0.682  33.269  0.00  0.00     0.004 A 
ATOM     11  C   UNL d   1      56.087   0.681  32.942  0.00  0.00     0.099 A 
ATOM     12  C   UNL d   1      56.682   0.682  33.505  0.00  0.00     0.021 A 
ENDROOT
BRANCH   1  13
ATOM     13  C   UNL d   1      58.242   0.677  30.065  0.00  0.00     0.084 C 
BRANCH  13  14
ATOM     14  N   UNL d   1      58.754   0.097  29.763  0.00  0.00    -0.302 N 
ATOM     15  C   UNL d   1      58.466  -0.645  29.592  0.00  0.00     0.080 A 
ATOM     16  C   UNL d   1      58.978  -1.227  29.290  0.00  0.00     0.018 A 
ATOM     17  C   UNL d   1      58.689  -1.979  29.117  0.00  0.00     0.002 A 
ATOM     18  C   UNL d   1      59.777  -1.046  29.165  0.00  0.00     0.003 A 
ATOM     19  C   UNL d   1      59.204  -2.564  28.813  0.00  0.00     0.000 A 
ATOM     20  C   UNL d   1      59.999  -2.386  28.687  0.00  0.00     0.000 A 
ATOM     21  C   UNL d   1      60.282  -1.638  28.860  0.00  0.00     0.000 A 
ATOM     22  C   UNL d   1      60.053  -0.305  29.338  0.00  0.00     0.019 A 
ATOM     23  C   UNL d   1      59.550   0.285  29.640  0.00  0.00     0.080 A 
ENDBRANCH  13  14
ENDBRANCH   1  13
TORSDOF 2
ENDMDL
MODEL 3
REMARK VINA RESULT:      -3.7      2.003      4.778
REMARK  2 active torsions:
REMARK  status: ('A' for Active; 'I' for Inactive)
REMARK    1  A    between atoms: C_8  and  C_1 
REMARK    2  A    between atoms: N_5  and  C_8 
ROOT
ATOM      1  C   UNL d   1      56.168   0.679  33.042  0.00  0.00     0.059 A 
ATOM      2  C   UNL d   1      55.587   0.680  34.339  0.00  0.00     0.121 A 
ATOM      3  C   UNL d   1      55.508   0.680  33.530  0.00  0.00     0.214 A 
ATOM      4  C   UNL d   1      56.345   0.679  34.679  0.00  0.00     0.032 A 
ATOM      5  C   UNL d   1      57.010   0.679  34.203  0.00  0.00     0.059 A 
ATOM      6  C   UNL d   1      56.915   0.679  33.377  0.00  0.00     0.016 A 
ATOM      7  N   UNL d   1      54.928   0.680  34.823  0.00  0.00    -0.241 NA
ATOM      8 CL   UNL d   1      57.761   0.678  34.539  0.00  0.00    -0.082 Cl
ATOM      9  O   UNL d   1      54.748   0.680  33.189  0.00  0.00    -0.285 OA
ATOM     10  C   UNL d   1      56.418   0.680  35.491  0.00  0.00     0.004 A 
ATOM     11  C   UNL d   1      55.004   0.680  35.640  0.00  0.00     0.099 A 
ATOM     12  C   UNL d   1      55.751   0.680  35.975  0.00  0.00     0.021 A 
ENDROOT
BRANCH   1  13
ATOM     13  C   UNL d   1      56.084   0.679  32.212  0.00  0.00     0.084 C 
BRANCH  13  14
ATOM     14  N   UNL d   1      56.632   0.270  31.740  0.00  0.00    -0.302 N 
ATOM     15  C   UNL d   1      57.085   0.679  31.202  0.00  0.00     0.080 A 
ATOM     16  C   UNL d   1      57.634   0.269  30.730  0.00  0.00     0.018 A 
ATOM     17  C   UNL d   1      58.094   0.681  30.183  0.00  0.00     0.002 A 
ATOM     18  C   UNL d   1      57.714  -0.551  30.811  0.00  0.00     0.003 A 
ATOM     19  C   UNL d   1      58.646   0.269  29.709  0.00  0.00     0.000 A 
ATOM     20  C   UNL d   1      58.727  -0.548  29.788  0.00  0.00     0.000 A 
ATOM     21  C   UNL d   1      58.269  -0.953  30.331  0.00  0.00     0.000 A 
ATOM     22  C   UNL d   1      57.258  -0.949  31.349  0.00  0.00     0.019 A 
ATOM     23  C   UNL d   1      56.706  -0.550  31.828  0.00  0.00     0.080 A 
ENDBRANCH  13  14
ENDBRANCH   1  13
TORSDOF 2
ENDMDL
