MODEL 1
REMARK VINA RESULT:      -3.0      0.000      0.000
REMARK  5 active torsions:
REMARK  status: ('A' for Active; 'I' for Inactive)
REMARK    1  A    between atoms: N_6  and  C_1 
REMARK    2  A    between atoms: C_12  and  C_2 
REMARK       I    between atoms: C_9  and  N_6 
REMARK       I    between atoms: C_11  and  N_7 
REMARK    3  A    between atoms: C_8  and  C_9 
REMARK    4  A    between atoms: O_24  and  C_11 
REMARK    5  A    between atoms: C_25  and  O_24 
ROOT
ATOM      1  C   UNL d   1     -41.528-122.737 -50.778  0.00  0.00     0.119 A 
ATOM      2  C   UNL d   1     -41.478-122.001 -51.149  0.00  0.00     0.084 A 
ATOM      3  C   UNL d   1     -41.519-122.936 -52.094  0.00  0.00     0.049 A 
ATOM      4  C   UNL d   1     -41.473-122.135 -51.970  0.00  0.00     0.016 A 
ATOM      5  S   UNL d   1     -41.553-123.322 -51.369  0.00  0.00    -0.066 SA
ATOM      6  N   UNL d   1     -41.482-122.715 -53.510  0.00  0.00    -0.251 N 
ATOM      7  C   UNL d   1     -41.487-123.002 -54.293  0.00  0.00     0.378 C 
ATOM      8  C   UNL d   1     -41.524-123.236 -52.879  0.00  0.00     0.091 A 
ATOM      9  C   UNL d   1     -41.431-121.599 -52.606  0.00  0.00     0.020 A 
ATOM     10  C   UNL d   1     -41.436-121.902 -53.374  0.00  0.00     0.085 A 
ATOM     11  O   UNL d   1     -41.533-123.814 -54.429  0.00  0.00    -0.237 OA
ENDROOT
BRANCH   1  12
ATOM     12  N   UNL d   1     -41.549-122.872 -49.964  0.00  0.00    -0.201 NA
ATOM     13  C   UNL d   1     -42.089-123.407 -49.649  0.00  0.00     0.286 C 
ATOM     14  O   UNL d   1     -42.615-123.813 -50.148  0.00  0.00    -0.265 OA
BRANCH  13  15
ATOM     15  C   UNL d   1     -42.111-123.542 -48.836  0.00  0.00     0.088 A 
ATOM     16  S   UNL d   1     -42.786-123.516 -48.342  0.00  0.00    -0.071 SA
ATOM     17  C   UNL d   1     -42.539-123.688 -47.566  0.00  0.00     0.087 A 
ATOM     18 CL   UNL d   1     -43.034-123.723 -46.887  0.00  0.00    -0.075 Cl
ATOM     19  C   UNL d   1     -41.724-123.817 -47.583  0.00  0.00     0.019 A 
ATOM     20  C   UNL d   1     -41.469-123.725 -48.368  0.00  0.00     0.013 A 
ENDBRANCH  13  15
ENDBRANCH   1  12
BRANCH   2  21
ATOM     21  C   UNL d   1     -41.441-121.271 -50.773  0.00  0.00     0.299 C 
ATOM     22  O   UNL d   1     -41.715-120.602 -51.154  0.00  0.00    -0.264 OA
ATOM     23  N   UNL d   1     -41.127-121.215 -50.011  0.00  0.00    -0.102 N 
ENDBRANCH   2  21
BRANCH   7  24
ATOM     24  O   UNL d   1     -41.445-122.480 -54.928  0.00  0.00    -0.257 OA
BRANCH  24  25
ATOM     25  C   UNL d   1     -41.966-122.555 -55.563  0.00  0.00     0.128 C 
ATOM     26  C   UNL d   1     -42.183-121.900 -56.010  0.00  0.00     0.029 C 
ENDBRANCH  24  25
ENDBRANCH   7  24
TORSDOF 5
ENDMDL
MODEL 2
REMARK VINA RESULT:      -0.5      2.236      5.169
REMARK  5 active torsions:
REMARK  status: ('A' for Active; 'I' for Inactive)
REMARK    1  A    between atoms: N_6  and  C_1 
REMARK    2  A    between atoms: C_12  and  C_2 
REMARK       I    between atoms: C_9  and  N_6 
REMARK       I    between atoms: C_11  and  N_7 
REMARK    3  A    between atoms: C_8  and  C_9 
REMARK    4  A    between atoms: O_24  and  C_11 
REMARK    5  A    between atoms: C_25  and  O_24 
ROOT
ATOM      1  C   UNL d   1     -41.950-122.057 -51.958  0.00  0.00     0.119 A 
ATOM      2  C   UNL d   1     -41.689-121.507 -51.401  0.00  0.00     0.084 A 
ATOM      3  C   UNL d   1     -42.242-122.525 -50.746  0.00  0.00     0.049 A 
ATOM      4  C   UNL d   1     -41.876-121.807 -50.648  0.00  0.00     0.016 A 
ATOM      5  S   UNL d   1     -42.296-122.694 -51.549  0.00  0.00    -0.066 SA
ATOM      6  N   UNL d   1     -42.368-122.653 -49.324  0.00  0.00    -0.251 N 
ATOM      7  C   UNL d   1     -42.615-123.077 -48.650  0.00  0.00     0.378 C 
ATOM      8  C   UNL d   1     -42.495-122.960 -50.073  0.00  0.00     0.091 A 
ATOM      9  C   UNL d   1     -41.743-121.489 -49.889  0.00  0.00     0.020 A 
ATOM     10  C   UNL d   1     -41.995-121.923 -49.233  0.00  0.00     0.085 A 
ATOM     11  O   UNL d   1     -42.989-123.807 -48.741  0.00  0.00    -0.237 OA
ENDROOT
BRANCH   1  12
ATOM     12  N   UNL d   1     -41.881-121.990 -52.777  0.00  0.00    -0.201 NA
ATOM     13  C   UNL d   1     -41.850-122.666 -53.245  0.00  0.00     0.286 C 
ATOM     14  O   UNL d   1     -41.889-123.418 -52.895  0.00  0.00    -0.265 OA
BRANCH  13  15
ATOM     15  C   UNL d   1     -41.781-122.599 -54.064  0.00  0.00     0.088 A 
ATOM     16  S   UNL d   1     -42.314-122.212 -54.581  0.00  0.00    -0.071 SA
ATOM     17  C   UNL d   1     -42.016-122.288 -55.354  0.00  0.00     0.087 A 
ATOM     18 CL   UNL d   1     -42.372-121.982 -56.052  0.00  0.00    -0.075 Cl
ATOM     19  C   UNL d   1     -41.311-122.715 -55.314  0.00  0.00     0.019 A 
ATOM     20  C   UNL d   1     -41.175-122.903 -54.516  0.00  0.00     0.013 A 
ENDBRANCH  13  15
ENDBRANCH   1  12
BRANCH   2  21
ATOM     21  C   UNL d   1     -41.314-120.794 -51.562  0.00  0.00     0.299 C 
ATOM     22  O   UNL d   1     -41.126-120.283 -50.952  0.00  0.00    -0.264 OA
ATOM     23  N   UNL d   1     -41.127-120.593 -52.342  0.00  0.00    -0.102 N 
ENDBRANCH   2  21
BRANCH   7  24
ATOM     24  O   UNL d   1     -42.489-122.770 -47.896  0.00  0.00    -0.257 OA
BRANCH  24  25
ATOM     25  C   UNL d   1     -42.576-123.250 -47.231  0.00  0.00     0.128 C 
ATOM     26  C   UNL d   1     -41.968-123.325 -46.683  0.00  0.00     0.029 C 
ENDBRANCH  24  25
ENDBRANCH   7  24
TORSDOF 5
ENDMDL
