MODEL 1
REMARK VINA RESULT:      15.8      0.000      0.000
REMARK  3 active torsions:
REMARK  status: ('A' for Active; 'I' for Inactive)
REMARK    1  A    between atoms: C_6  and  C_1 
REMARK    2  A    between atoms: C_7  and  C_3 
REMARK    3  A    between atoms: C_11  and  C_7 
ROOT
ATOM      1  C   UNL d   1      46.288 -18.937  43.505  0.00  0.00     0.085 A 
ATOM      2  C   UNL d   1      46.227 -18.351  42.933  0.00  0.00     0.137 A 
ATOM      3  C   UNL d   1      46.233 -17.762  44.121  0.00  0.00     0.031 A 
ATOM      4  S   UNL d   1      46.194 -17.624  43.322  0.00  0.00    -0.066 SA
ATOM      5  C   UNL d   1      46.292 -18.577  44.248  0.00  0.00     0.013 A 
ATOM      6  N   UNL d   1      46.206 -18.499  42.112  0.00  0.00    -0.141 N 
ATOM      7  C   UNL d   1      46.342 -18.940  44.955  0.00  0.00     0.001 C 
ENDROOT
BRANCH   3   8
ATOM      8  C   UNL d   1      46.223 -17.247  44.771  0.00  0.00     0.006 C 
BRANCH   8   9
ATOM      9  C   UNL d   1      45.886 -16.499  44.714  0.00  0.00     0.001 A 
ATOM     10  C   UNL d   1      46.325 -15.877  44.419  0.00  0.00     0.000 A 
ATOM     11  C   UNL d   1      45.977 -15.118  44.363  0.00  0.00     0.000 A 
ATOM     12  C   UNL d   1      45.204 -15.019  44.605  0.00  0.00     0.000 A 
ATOM     13  C   UNL d   1      44.756 -15.649  44.905  0.00  0.00     0.000 A 
ATOM     14  C   UNL d   1      45.101 -16.374  44.955  0.00  0.00     0.000 A 
ENDBRANCH   8   9
ENDBRANCH   3   8
BRANCH   1  15
ATOM     15  C   UNL d   1      46.336 -19.756  43.341  0.00  0.00     0.299 C 
ATOM     16  O   UNL d   1      46.095 -20.319  43.882  0.00  0.00    -0.264 OA
ATOM     17  N   UNL d   1      46.647 -19.989  42.585  0.00  0.00    -0.102 N 
ENDBRANCH   1  15
TORSDOF 3
ENDMDL
MODEL 2
REMARK VINA RESULT:      16.1      3.671      4.981
REMARK  3 active torsions:
REMARK  status: ('A' for Active; 'I' for Inactive)
REMARK    1  A    between atoms: C_6  and  C_1 
REMARK    2  A    between atoms: C_7  and  C_3 
REMARK    3  A    between atoms: C_11  and  C_7 
ROOT
ATOM      1  C   UNL d   1      45.163 -12.987  43.808  0.00  0.00     0.085 A 
ATOM      2  C   UNL d   1      45.763 -12.929  44.366  0.00  0.00     0.137 A 
ATOM      3  C   UNL d   1      45.084 -14.042  44.610  0.00  0.00     0.031 A 
ATOM      4  S   UNL d   1      45.708 -13.587  44.861  0.00  0.00    -0.066 SA
ATOM      5  C   UNL d   1      44.736 -13.677  43.954  0.00  0.00     0.013 A 
ATOM      6  N   UNL d   1      46.314 -12.303  44.399  0.00  0.00    -0.141 N 
ATOM      7  C   UNL d   1      44.109 -13.947  43.545  0.00  0.00     0.001 C 
ENDROOT
BRANCH   3   8
ATOM      8  C   UNL d   1      44.772 -14.757  44.893  0.00  0.00     0.006 C 
BRANCH   8   9
ATOM      9  C   UNL d   1      45.230 -15.439  44.913  0.00  0.00     0.001 A 
ATOM     10  C   UNL d   1      44.869 -16.172  44.921  0.00  0.00     0.000 A 
ATOM     11  C   UNL d   1      45.341 -16.863  44.942  0.00  0.00     0.000 A 
ATOM     12  C   UNL d   1      46.153 -16.787  44.953  0.00  0.00     0.000 A 
ATOM     13  C   UNL d   1      46.522 -16.044  44.945  0.00  0.00     0.000 A 
ATOM     14  C   UNL d   1      46.059 -15.387  44.925  0.00  0.00     0.000 A 
ENDBRANCH   8   9
ENDBRANCH   3   8
BRANCH   1  15
ATOM     15  C   UNL d   1      45.026 -12.427  43.202  0.00  0.00     0.299 C 
ATOM     16  O   UNL d   1      45.612 -12.209  42.675  0.00  0.00    -0.264 OA
ATOM     17  N   UNL d   1      44.250 -12.086  43.147  0.00  0.00    -0.102 N 
ENDBRANCH   1  15
TORSDOF 3
ENDMDL
MODEL 3
REMARK VINA RESULT:      18.1      4.136      5.382
REMARK  3 active torsions:
REMARK  status: ('A' for Active; 'I' for Inactive)
REMARK    1  A    between atoms: C_6  and  C_1 
REMARK    2  A    between atoms: C_7  and  C_3 
REMARK    3  A    between atoms: C_11  and  C_7 
ROOT
ATOM      1  C   UNL d   1      45.061 -12.505  42.461  0.00  0.00     0.085 A 
ATOM      2  C   UNL d   1      44.329 -12.412  42.821  0.00  0.00     0.137 A 
ATOM      3  C   UNL d   1      45.150 -12.963  43.704  0.00  0.00     0.031 A 
ATOM      4  S   UNL d   1      44.391 -12.699  43.592  0.00  0.00    -0.066 SA
ATOM      5  C   UNL d   1      45.578 -12.847  43.006  0.00  0.00     0.013 A 
ATOM      6  N   UNL d   1      43.660 -12.083  42.445  0.00  0.00    -0.141 N 
ATOM      7  C   UNL d   1      46.343 -13.033  42.887  0.00  0.00     0.001 C 
ENDROOT
BRANCH   3   8
ATOM      8  C   UNL d   1      45.526 -13.303  44.361  0.00  0.00     0.006 C 
BRANCH   8   9
ATOM      9  C   UNL d   1      45.435 -14.101  44.535  0.00  0.00     0.001 A 
ATOM     10  C   UNL d   1      44.709 -14.385  44.778  0.00  0.00     0.000 A 
ATOM     11  C   UNL d   1      44.622 -15.199  44.953  0.00  0.00     0.000 A 
ATOM     12  C   UNL d   1      45.269 -15.690  44.875  0.00  0.00     0.000 A 
ATOM     13  C   UNL d   1      46.008 -15.405  44.629  0.00  0.00     0.000 A 
ATOM     14  C   UNL d   1      46.079 -14.621  44.463  0.00  0.00     0.000 A 
ENDBRANCH   8   9
ENDBRANCH   3   8
BRANCH   1  15
ATOM     15  C   UNL d   1      45.233 -12.282  41.673  0.00  0.00     0.299 C 
ATOM     16  O   UNL d   1      45.999 -12.254  41.390  0.00  0.00    -0.264 OA
ATOM     17  N   UNL d   1      44.579 -12.083  41.168  0.00  0.00    -0.102 N 
ENDBRANCH   1  15
TORSDOF 3
ENDMDL
