MODEL 1
REMARK VINA RESULT:      -3.0      0.000      0.000
REMARK  10 active torsions:
REMARK  status: ('A' for Active; 'I' for Inactive)
REMARK    1  A    between atoms: C_2  and  S_1 
REMARK    2  A    between atoms: N_3  and  S_1 
REMARK    3  A    between atoms: C_19  and  N_3 
REMARK    4  A    between atoms: C_4  and  C_8 
REMARK       I    between atoms: N_14  and  C_4 
REMARK    5  A    between atoms: O_27  and  C_7 
REMARK    6  A    between atoms: O_28  and  C_11 
REMARK    7  A    between atoms: C_29  and  N_14 
REMARK    8  A    between atoms: C_22  and  C_19 
REMARK    9  A    between atoms: C_21  and  C_30 
REMARK   10  A    between atoms: C_30  and  C_29 
ROOT
ATOM      1  C   UNL d   1      32.831  18.234 -23.303  0.00  0.00     0.058 A 
ATOM      2  C   UNL d   1      32.651  18.926 -23.704  0.00  0.00     0.005 A 
ATOM      3  C   UNL d   1      33.113  18.276 -22.521  0.00  0.00     0.005 A 
ATOM      4  C   UNL d   1      33.029  19.699 -22.555  0.00  0.00     0.020 A 
ATOM      5  C   UNL d   1      32.750  19.664 -23.327  0.00  0.00     0.002 A 
ATOM      6  C   UNL d   1      33.210  19.011 -22.152  0.00  0.00     0.002 A 
ENDROOT
BRANCH   1   7
ATOM      7  C   UNL d   1      32.736  17.506 -23.666  0.00  0.00     0.279 C 
ATOM      8  O   UNL d   1      33.240  17.288 -24.288  0.00  0.00    -0.265 OA
ATOM      9  N   UNL d   1      32.145  16.994 -23.417  0.00  0.00    -0.206 NA
BRANCH   9  10
ATOM     10  C   UNL d   1      32.053  16.261 -23.786  0.00  0.00     0.102 C 
BRANCH  10  11
ATOM     11  C   UNL d   1      31.550  15.709 -23.456  0.00  0.00     0.021 C 
BRANCH  11  12
ATOM     12  C   UNL d   1      30.761  15.718 -23.650  0.00  0.00     0.004 A 
ATOM     13  C   UNL d   1      30.184  15.581 -23.075  0.00  0.00     0.026 A 
ATOM     14  C   UNL d   1      29.393  15.591 -23.278  0.00  0.00     0.116 A 
ATOM     15  C   UNL d   1      29.167  15.740 -24.067  0.00  0.00     0.116 A 
ATOM     16  C   UNL d   1      29.733  15.875 -24.635  0.00  0.00     0.026 A 
ATOM     17  C   UNL d   1      30.534  15.865 -24.429  0.00  0.00     0.002 A 
BRANCH  14  18
ATOM     18  O   UNL d   1      28.819  15.454 -22.701  0.00  0.00    -0.326 OA
ATOM     19  C   UNL d   1      28.818  15.726 -21.872  0.00  0.00     0.181 C 
ENDBRANCH  14  18
BRANCH  15  20
ATOM     20  O   UNL d   1      28.387  15.753 -24.285  0.00  0.00    -0.326 OA
ATOM     21  C   UNL d   1      28.176  15.652 -25.061  0.00  0.00     0.181 C 
ENDBRANCH  15  20
ENDBRANCH  11  12
ENDBRANCH  10  11
ENDBRANCH   9  10
ENDBRANCH   1   7
BRANCH   4  22
ATOM     22  C   UNL d   1      33.125  20.434 -22.186  0.00  0.00     0.112 C 
BRANCH  22  23
ATOM     23  N   UNL d   1      32.469  20.854 -21.951  0.00  0.00    -0.157 NA
BRANCH  23  24
ATOM     24  S   UNL d   1      32.551  21.488 -21.415  0.00  0.00     0.285 S 
ATOM     25  O   UNL d   1      31.972  21.151 -20.935  0.00  0.00    -0.198 OA
ATOM     26  O   UNL d   1      33.131  21.819 -21.900  0.00  0.00    -0.198 OA
BRANCH  24  27
ATOM     27  C   UNL d   1      32.638  22.113 -20.894  0.00  0.00     0.105 A 
ATOM     28  C   UNL d   1      32.524  22.881 -21.145  0.00  0.00     0.012 A 
ATOM     29  C   UNL d   1      32.613  23.511 -20.615  0.00  0.00     0.001 A 
ATOM     30  C   UNL d   1      32.318  23.022 -21.937  0.00  0.00     0.001 C 
ATOM     31  C   UNL d   1      32.819  23.366 -19.826  0.00  0.00     0.000 A 
ATOM     32  C   UNL d   1      32.935  22.586 -19.569  0.00  0.00     0.001 A 
ATOM     33  C   UNL d   1      32.845  21.955 -20.103  0.00  0.00     0.013 A 
ATOM     34  C   UNL d   1      33.139  22.436 -18.788  0.00  0.00     0.000 C 
ENDBRANCH  24  27
ENDBRANCH  23  24
ENDBRANCH  22  23
ENDBRANCH   4  22
TORSDOF 10
ENDMDL
