MODEL 1
REMARK VINA RESULT:      91.2      0.000      0.000
REMARK  3 active torsions:
REMARK  status: ('A' for Active; 'I' for Inactive)
REMARK    1  A    between atoms: N_2  and  S_1 
REMARK    2  A    between atoms: C_3  and  S_1 
REMARK    3  A    between atoms: C_5  and  N_4 
ROOT
ATOM      1  N   UNL d   1     -55.162-100.567 -41.826  0.00  0.00    -0.226 N 
ATOM      2  N   UNL d   1     -54.992-101.246 -40.332  0.00  0.00    -0.301 N 
ATOM      3  C   UNL d   1     -55.283-101.385 -41.728  0.00  0.00     0.111 A 
ATOM      4  C   UNL d   1     -54.960-100.101 -41.181  0.00  0.00     0.111 A 
ATOM      5  C   UNL d   1     -54.875-100.441 -40.434  0.00  0.00     0.100 A 
ATOM      6  C   UNL d   1     -55.198-101.724 -40.981  0.00  0.00     0.100 A 
ENDROOT
BRANCH   1   7
ATOM      7  S   UNL d   1     -55.247-100.227 -42.573  0.00  0.00     0.271 S 
ATOM      8  O   UNL d   1     -54.798 -99.580 -42.330  0.00  0.00    -0.200 OA
ATOM      9  O   UNL d   1     -55.698-100.875 -42.816  0.00  0.00    -0.200 OA
BRANCH   7  10
ATOM     10  C   UNL d   1     -55.332 -99.887 -43.320  0.00  0.00     0.104 A 
ATOM     11  C   UNL d   1     -56.024 -99.998 -43.747  0.00  0.00     0.015 A 
ATOM     12  C   UNL d   1     -56.109 -99.659 -44.493  0.00  0.00     0.028 A 
ATOM     13  C   UNL d   1     -56.807 -99.773 -44.920  0.00  0.00     0.002 C 
ATOM     14  C   UNL d   1     -55.502 -99.209 -44.812  0.00  0.00     0.140 A 
ATOM     15  C   UNL d   1     -54.798 -99.093 -44.384  0.00  0.00     0.030 A 
ATOM     16  F   UNL d   1     -55.587 -98.870 -45.559  0.00  0.00    -0.204 F 
ATOM     17  C   UNL d   1     -54.713 -99.432 -43.638  0.00  0.00     0.015 A 
ENDBRANCH   7  10
ENDBRANCH   1   7
BRANCH   2  18
ATOM     18  C   UNL d   1     -54.908-101.584 -39.588  0.00  0.00     0.064 A 
ATOM     19  C   UNL d   1     -54.930-101.114 -38.916  0.00  0.00     0.016 A 
ATOM     20  C   UNL d   1     -54.845-101.453 -38.169  0.00  0.00     0.001 A 
ATOM     21  C   UNL d   1     -55.038-100.296 -38.988  0.00  0.00     0.002 C 
ATOM     22  C   UNL d   1     -54.738-102.262 -38.096  0.00  0.00     0.000 A 
ATOM     23  C   UNL d   1     -54.714-102.746 -38.771  0.00  0.00     0.001 A 
ATOM     24  C   UNL d   1     -54.799-102.406 -39.518  0.00  0.00     0.016 A 
ATOM     25  C   UNL d   1     -54.777-102.877 -40.191  0.00  0.00     0.002 C 
ENDBRANCH   2  18
TORSDOF 3
ENDMDL
MODEL 2
REMARK VINA RESULT:      92.2      1.302      1.594
REMARK  3 active torsions:
REMARK  status: ('A' for Active; 'I' for Inactive)
REMARK    1  A    between atoms: N_2  and  S_1 
REMARK    2  A    between atoms: C_3  and  S_1 
REMARK    3  A    between atoms: C_5  and  N_4 
ROOT
ATOM      1  N   UNL d   1     -55.108-101.442 -42.131  0.00  0.00    -0.226 N 
ATOM      2  N   UNL d   1     -55.114-101.448 -40.481  0.00  0.00    -0.301 N 
ATOM      3  C   UNL d   1     -55.227-100.730 -41.716  0.00  0.00     0.111 A 
ATOM      4  C   UNL d   1     -54.994-102.143 -41.720  0.00  0.00     0.111 A 
ATOM      5  C   UNL d   1     -54.997-102.146 -40.895  0.00  0.00     0.100 A 
ATOM      6  C   UNL d   1     -55.230-100.733 -40.891  0.00  0.00     0.100 A 
ENDROOT
BRANCH   1   7
ATOM      7  S   UNL d   1     -55.105-101.440 -42.956  0.00  0.00     0.271 S 
ATOM      8  O   UNL d   1     -55.382-102.216 -42.959  0.00  0.00    -0.200 OA
ATOM      9  O   UNL d   1     -54.827-100.662 -42.952  0.00  0.00    -0.200 OA
BRANCH   7  10
ATOM     10  C   UNL d   1     -55.102-101.437 -43.781  0.00  0.00     0.104 A 
ATOM     11  C   UNL d   1     -55.157-100.729 -44.191  0.00  0.00     0.015 A 
ATOM     12  C   UNL d   1     -55.154-100.726 -45.015  0.00  0.00     0.028 A 
ATOM     13  C   UNL d   1     -55.209-100.010 -45.425  0.00  0.00     0.002 C 
ATOM     14  C   UNL d   1     -55.096-101.432 -45.429  0.00  0.00     0.140 A 
ATOM     15  C   UNL d   1     -55.039-102.154 -45.019  0.00  0.00     0.030 A 
ATOM     16  F   UNL d   1     -55.092-101.429 -46.254  0.00  0.00    -0.204 F 
ATOM     17  C   UNL d   1     -55.042-102.157 -44.195  0.00  0.00     0.015 A 
ENDBRANCH   7  10
ENDBRANCH   1   7
BRANCH   2  18
ATOM     18  C   UNL d   1     -55.117-101.450 -39.660  0.00  0.00     0.064 A 
ATOM     19  C   UNL d   1     -55.062-100.745 -39.244  0.00  0.00     0.016 A 
ATOM     20  C   UNL d   1     -55.065-100.748 -38.419  0.00  0.00     0.001 A 
ATOM     21  C   UNL d   1     -55.003-100.029 -39.655  0.00  0.00     0.002 C 
ATOM     22  C   UNL d   1     -55.123-101.456 -38.012  0.00  0.00     0.000 A 
ATOM     23  C   UNL d   1     -55.179-102.175 -38.424  0.00  0.00     0.001 A 
ATOM     24  C   UNL d   1     -55.176-102.172 -39.249  0.00  0.00     0.016 A 
ATOM     25  C   UNL d   1     -55.232-102.879 -39.665  0.00  0.00     0.002 C 
ENDBRANCH   2  18
TORSDOF 3
ENDMDL
