MODEL 1
REMARK VINA RESULT:     159.7      0.000      0.000
REMARK  4 active torsions:
REMARK  status: ('A' for Active; 'I' for Inactive)
REMARK    1  A    between atoms: C_30  and  N_11 
REMARK    2  A    between atoms: C_29  and  N_12 
REMARK    3  A    between atoms: C_16  and  C_13 
REMARK    4  A    between atoms: C_15  and  C_14 
ROOT
ATOM      1  N   UNL d   1      58.936  47.819  50.859  0.00  0.00    -0.240 N 
ATOM      2  N   UNL d   1      58.767  46.973  50.870  0.00  0.00    -0.240 N 
ATOM      3  C   UNL d   1      58.208  48.227  50.731  0.00  0.00     0.144 A 
ATOM      4  C   UNL d   1      59.496  46.565  50.998  0.00  0.00     0.144 A 
ATOM      5  C   UNL d   1      60.129  47.151  51.069  0.00  0.00     0.097 A 
ATOM      6  C   UNL d   1      57.585  47.641  50.662  0.00  0.00     0.097 A 
ATOM      7  C   UNL d   1      57.851  48.994  50.644  0.00  0.00     0.285 A 
ATOM      8  C   UNL d   1      59.835  45.787  51.083  0.00  0.00     0.285 A 
ATOM      9  C   UNL d   1      56.852  48.052  50.533  0.00  0.00     0.270 A 
ATOM     10  C   UNL d   1      60.859  46.725  51.198  0.00  0.00     0.270 A 
ATOM     11  N   UNL d   1      60.681  45.884  51.207  0.00  0.00    -0.239 N 
ATOM     12  N   UNL d   1      57.024  48.891  50.523  0.00  0.00    -0.239 N 
ATOM     13  C   UNL d   1      59.777  47.915  50.982  0.00  0.00     0.094 A 
ATOM     14  C   UNL d   1      57.934  46.879  50.747  0.00  0.00     0.094 A 
ATOM     15  O   UNL d   1      59.439  45.079  51.053  0.00  0.00    -0.265 OA
ATOM     16  O   UNL d   1      61.595  47.055  51.295  0.00  0.00    -0.266 OA
ATOM     17  O   UNL d   1      56.118  47.715  50.436  0.00  0.00    -0.266 OA
ATOM     18  O   UNL d   1      58.246  49.708  50.673  0.00  0.00    -0.265 OA
ENDROOT
BRANCH  13  19
ATOM     19  C   UNL d   1      60.179  48.624  51.013  0.00  0.00     0.047 A 
ATOM     20  S   UNL d   1      60.470  49.026  50.370  0.00  0.00    -0.085 SA
ATOM     21  C   UNL d   1      60.828  49.698  50.650  0.00  0.00     0.035 A 
ATOM     22  C   UNL d   1      60.757  49.708  51.462  0.00  0.00     0.007 A 
ATOM     23  C   UNL d   1      60.352  49.036  51.676  0.00  0.00     0.009 A 
ENDBRANCH  13  19
BRANCH  11  24
ATOM     24  C   UNL d   1      61.219  45.286  51.314  0.00  0.00     0.086 C 
ATOM     25  C   UNL d   1      61.157  44.592  50.871  0.00  0.00     0.021 C 
ENDBRANCH  11  24
BRANCH  14  26
ATOM     26  C   UNL d   1      57.544  46.174  50.718  0.00  0.00     0.047 A 
ATOM     27  S   UNL d   1      57.386  45.745  50.042  0.00  0.00    -0.085 SA
ATOM     28  C   UNL d   1      56.989  45.083  50.264  0.00  0.00     0.035 A 
ATOM     29  C   UNL d   1      56.902  45.098  51.066  0.00  0.00     0.007 A 
ATOM     30  C   UNL d   1      57.244  45.770  51.345  0.00  0.00     0.009 A 
ENDBRANCH  14  26
BRANCH  12  31
ATOM     31  C   UNL d   1      56.474  49.485  50.414  0.00  0.00     0.086 C 
ATOM     32  C   UNL d   1      56.033  49.516  49.717  0.00  0.00     0.021 C 
ENDBRANCH  12  31
TORSDOF 4
ENDMDL
