MODEL 1
REMARK VINA RESULT:      25.5      0.000      0.000
REMARK  5 active torsions:
REMARK  status: ('A' for Active; 'I' for Inactive)
REMARK    1  A    between atoms: C_9  and  C_2 
REMARK    2  A    between atoms: O_8  and  C_4 
REMARK    3  A    between atoms: C_14  and  O_8 
REMARK    4  A    between atoms: N_11  and  C_9 
REMARK    5  A    between atoms: O_20  and  C_18 
ROOT
ATOM      1  C   UNL d   1      45.517 -14.971  44.549  0.00  0.00     0.108 A 
ATOM      2  C   UNL d   1      45.193 -14.206  44.549  0.00  0.00     0.079 A 
ATOM      3  C   UNL d   1      45.043 -15.625  44.753  0.00  0.00     0.064 A 
ATOM      4  C   UNL d   1      46.165 -16.501  44.548  0.00  0.00     0.163 A 
ATOM      5  C   UNL d   1      45.365 -16.379  44.752  0.00  0.00     0.222 A 
ATOM      6  O   UNL d   1      46.314 -15.076  44.343  0.00  0.00    -0.303 OA
ATOM      7  C   UNL d   1      46.640 -15.843  44.343  0.00  0.00     0.150 A 
ATOM      8  C   UNL d   1      44.247 -15.496  44.955  0.00  0.00     0.009 A 
ATOM      9  C   UNL d   1      44.403 -14.091  44.751  0.00  0.00     0.199 A 
ATOM     10  O   UNL d   1      44.898 -17.029  44.954  0.00  0.00    -0.284 OA
ATOM     11  C   UNL d   1      43.931 -14.737  44.954  0.00  0.00     0.042 A 
ATOM     12  O   UNL d   1      44.086 -13.332  44.750  0.00  0.00    -0.286 OA
ENDROOT
BRANCH   4  13
ATOM     13  O   UNL d   1      46.483 -17.257  44.548  0.00  0.00    -0.302 OA
BRANCH  13  14
ATOM     14  C   UNL d   1      46.382 -17.748  43.894  0.00  0.00     0.102 A 
ATOM     15  C   UNL d   1      46.252 -18.553  44.003  0.00  0.00     0.049 A 
ATOM     16  C   UNL d   1      46.151 -19.044  43.348  0.00  0.00     0.096 A 
ATOM     17  C   UNL d   1      46.180 -18.728  42.587  0.00  0.00     0.024 A 
ATOM     18  C   UNL d   1      46.313 -17.911  42.484  0.00  0.00     0.004 A 
ATOM     19  C   UNL d   1      46.412 -17.429  43.138  0.00  0.00     0.025 A 
BRANCH  16  20
ATOM     20  O   UNL d   1      46.020 -19.849  43.457  0.00  0.00    -0.328 OA
ATOM     21  C   UNL d   1      46.493 -20.273  43.982  0.00  0.00     0.181 C 
ENDBRANCH  16  20
ENDBRANCH  13  14
ENDBRANCH   4  13
BRANCH   2  22
ATOM     22  C   UNL d   1      45.661 -13.567  44.348  0.00  0.00     0.086 C 
BRANCH  22  23
ATOM     23  N   UNL d   1      45.492 -13.131  43.667  0.00  0.00    -0.299 N 
ATOM     24  C   UNL d   1      46.018 -13.141  43.036  0.00  0.00     0.107 A 
ATOM     25  C   UNL d   1      45.845 -12.703  42.355  0.00  0.00     0.142 A 
ATOM     26  O   UNL d   1      45.151 -12.259  42.313  0.00  0.00    -0.300 OA
ATOM     27  C   UNL d   1      44.626 -12.252  42.951  0.00  0.00     0.142 A 
ATOM     28  C   UNL d   1      44.796 -12.689  43.629  0.00  0.00     0.107 A 
ENDBRANCH  22  23
ENDBRANCH   2  22
TORSDOF 5
ENDMDL
