MODEL 1
REMARK VINA RESULT:      -8.1      0.000      0.000
REMARK  3 active torsions:
REMARK  status: ('A' for Active; 'I' for Inactive)
REMARK    1  A    between atoms: C_7  and  C_3 
REMARK       I    between atoms: N_10  and  C_7 
REMARK    2  A    between atoms: C_16  and  N_10 
REMARK    3  A    between atoms: C_15  and  C_16 
ROOT
ATOM      1  C   UNL d   1     -48.501  12.964  22.387  0.00  0.00     0.063 A 
ATOM      2  C   UNL d   1     -48.309  12.172  22.545  0.00  0.00     0.033 A 
ATOM      3  C   UNL d   1     -47.672  12.168  23.075  0.00  0.00     0.158 A 
ATOM      4  C   UNL d   1     -47.986  13.445  22.817  0.00  0.00     0.099 A 
ATOM      5  O   UNL d   1     -47.474  12.952  23.242  0.00  0.00    -0.302 OA
ATOM      6  C   UNL d   1     -49.086  13.295  21.902  0.00  0.00     0.194 A 
ATOM      7  C   UNL d   1     -48.054  14.259  22.763  0.00  0.00     0.002 A 
ATOM      8  C   UNL d   1     -48.624  14.605  22.290  0.00  0.00     0.042 A 
ATOM      9  C   UNL d   1     -49.141  14.122  21.858  0.00  0.00     0.019 A 
ATOM     10  O   UNL d   1     -49.607  12.809  21.468  0.00  0.00    -0.287 OA
ATOM     11  C   UNL d   1     -48.571  11.420  22.325  0.00  0.00     0.002 C 
ATOM     12  C   UNL d   1     -48.996  15.279  21.982  0.00  0.00     0.009 C 
ATOM     13  C   UNL d   1     -48.225  15.244  22.623  0.00  0.00     0.009 C 
ENDROOT
BRANCH   3  14
ATOM     14  C   UNL d   1     -47.299  11.500  23.384  0.00  0.00     0.302 C 
ATOM     15  N   UNL d   1     -46.470  11.446  23.382  0.00  0.00    -0.205 NA
ATOM     16  O   UNL d   1     -47.751  10.878  23.698  0.00  0.00    -0.263 OA
BRANCH  15  17
ATOM     17  C   UNL d   1     -46.093  10.779  23.689  0.00  0.00     0.104 C 
BRANCH  17  18
ATOM     18  C   UNL d   1     -45.284  10.675  23.578  0.00  0.00     0.038 A 
ATOM     19  C   UNL d   1     -44.815  11.318  23.355  0.00  0.00     0.101 A 
ATOM     20  N   UNL d   1     -44.011  11.208  23.246  0.00  0.00    -0.242 NA
ATOM     21  C   UNL d   1     -43.666  10.475  23.354  0.00  0.00     0.099 A 
ATOM     22  C   UNL d   1     -44.140   9.832  23.579  0.00  0.00     0.021 A 
ATOM     23  C   UNL d   1     -44.950   9.936  23.690  0.00  0.00     0.005 A 
ENDBRANCH  17  18
ENDBRANCH  15  17
ENDBRANCH   3  14
TORSDOF 3
ENDMDL
MODEL 2
REMARK VINA RESULT:      -8.0      1.382      1.671
REMARK  3 active torsions:
REMARK  status: ('A' for Active; 'I' for Inactive)
REMARK    1  A    between atoms: C_7  and  C_3 
REMARK       I    between atoms: N_10  and  C_7 
REMARK    2  A    between atoms: C_16  and  N_10 
REMARK    3  A    between atoms: C_15  and  C_16 
ROOT
ATOM      1  C   UNL d   1     -50.018  13.446  22.688  0.00  0.00     0.063 A 
ATOM      2  C   UNL d   1     -49.697  12.683  22.623  0.00  0.00     0.033 A 
ATOM      3  C   UNL d   1     -49.160  12.581  23.246  0.00  0.00     0.158 A 
ATOM      4  C   UNL d   1     -49.681  13.811  23.347  0.00  0.00     0.099 A 
ATOM      5  O   UNL d   1     -49.151  13.276  23.690  0.00  0.00    -0.302 OA
ATOM      6  C   UNL d   1     -50.577  13.842  22.222  0.00  0.00     0.194 A 
ATOM      7  C   UNL d   1     -49.901  14.575  23.541  0.00  0.00     0.002 A 
ATOM      8  C   UNL d   1     -50.451  14.984  23.094  0.00  0.00     0.042 A 
ATOM      9  C   UNL d   1     -50.789  14.616  22.433  0.00  0.00     0.019 A 
ATOM     10  O   UNL d   1     -50.918  13.472  21.556  0.00  0.00    -0.287 OA
ATOM     11  C   UNL d   1     -49.767  12.027  22.125  0.00  0.00     0.002 C 
ATOM     12  C   UNL d   1     -50.899  15.665  22.946  0.00  0.00     0.009 C 
ATOM     13  C   UNL d   1     -50.243  15.514  23.690  0.00  0.00     0.009 C 
ENDROOT
BRANCH   3  14
ATOM     14  C   UNL d   1     -48.711  11.905  23.397  0.00  0.00     0.302 C 
ATOM     15  N   UNL d   1     -47.884  11.956  23.450  0.00  0.00    -0.205 NA
ATOM     16  O   UNL d   1     -49.086  11.170  23.495  0.00  0.00    -0.263 OA
BRANCH  15  17
ATOM     17  C   UNL d   1     -47.433  11.282  23.601  0.00  0.00     0.104 C 
BRANCH  17  18
ATOM     18  C   UNL d   1     -46.613  11.310  23.526  0.00  0.00     0.038 A 
ATOM     19  C   UNL d   1     -46.248  12.008  23.279  0.00  0.00     0.101 A 
ATOM     20  N   UNL d   1     -45.433  12.030  23.206  0.00  0.00    -0.242 NA
ATOM     21  C   UNL d   1     -44.976  11.373  23.374  0.00  0.00     0.099 A 
ATOM     22  C   UNL d   1     -45.346  10.673  23.622  0.00  0.00     0.021 A 
ATOM     23  C   UNL d   1     -46.166  10.645  23.697  0.00  0.00     0.005 A 
ENDBRANCH  17  18
ENDBRANCH  15  17
ENDBRANCH   3  14
TORSDOF 3
ENDMDL
MODEL 3
REMARK VINA RESULT:      -7.4      1.615      2.328
REMARK  3 active torsions:
REMARK  status: ('A' for Active; 'I' for Inactive)
REMARK    1  A    between atoms: C_7  and  C_3 
REMARK       I    between atoms: N_10  and  C_7 
REMARK    2  A    between atoms: C_16  and  N_10 
REMARK    3  A    between atoms: C_15  and  C_16 
ROOT
ATOM      1  C   UNL d   1     -48.518  12.428  22.698  0.00  0.00     0.063 A 
ATOM      2  C   UNL d   1     -47.784  12.398  23.083  0.00  0.00     0.033 A 
ATOM      3  C   UNL d   1     -47.307  12.997  22.765  0.00  0.00     0.158 A 
ATOM      4  C   UNL d   1     -48.495  13.041  22.147  0.00  0.00     0.099 A 
ATOM      5  O   UNL d   1     -47.747  13.392  22.188  0.00  0.00    -0.302 OA
ATOM      6  C   UNL d   1     -49.200  11.965  22.791  0.00  0.00     0.194 A 
ATOM      7  C   UNL d   1     -49.154  13.194  21.685  0.00  0.00     0.002 A 
ATOM      8  C   UNL d   1     -49.836  12.749  21.761  0.00  0.00     0.042 A 
ATOM      9  C   UNL d   1     -49.859  12.133  22.315  0.00  0.00     0.019 A 
ATOM     10  O   UNL d   1     -49.223  11.345  23.349  0.00  0.00    -0.287 OA
ATOM     11  C   UNL d   1     -47.416  11.951  23.673  0.00  0.00     0.002 C 
ATOM     12  C   UNL d   1     -50.616  12.578  21.538  0.00  0.00     0.009 C 
ATOM     13  C   UNL d   1     -50.017  13.295  21.171  0.00  0.00     0.009 C 
ENDROOT
BRANCH   3  14
ATOM     14  C   UNL d   1     -46.531  13.171  22.984  0.00  0.00     0.302 C 
ATOM     15  N   UNL d   1     -45.899  12.949  22.493  0.00  0.00    -0.205 NA
ATOM     16  O   UNL d   1     -46.378  13.568  23.698  0.00  0.00    -0.263 OA
BRANCH  15  17
ATOM     17  C   UNL d   1     -45.121  13.120  22.709  0.00  0.00     0.104 C 
BRANCH  17  18
ATOM     18  C   UNL d   1     -44.497  12.867  22.235  0.00  0.00     0.038 A 
ATOM     19  C   UNL d   1     -44.057  12.205  22.457  0.00  0.00     0.101 A 
ATOM     20  N   UNL d   1     -43.437  11.958  21.982  0.00  0.00    -0.242 NA
ATOM     21  C   UNL d   1     -43.248  12.356  21.294  0.00  0.00     0.099 A 
ATOM     22  C   UNL d   1     -43.693  13.021  21.074  0.00  0.00     0.021 A 
ATOM     23  C   UNL d   1     -44.317  13.274  21.548  0.00  0.00     0.005 A 
ENDBRANCH  17  18
ENDBRANCH  15  17
ENDBRANCH   3  14
TORSDOF 3
ENDMDL
MODEL 4
REMARK VINA RESULT:      -7.3      1.966      5.099
REMARK  3 active torsions:
REMARK  status: ('A' for Active; 'I' for Inactive)
REMARK    1  A    between atoms: C_7  and  C_3 
REMARK       I    between atoms: N_10  and  C_7 
REMARK    2  A    between atoms: C_16  and  N_10 
REMARK    3  A    between atoms: C_15  and  C_16 
ROOT
ATOM      1  C   UNL d   1     -45.966  12.843  22.775  0.00  0.00     0.063 A 
ATOM      2  C   UNL d   1     -46.171  13.627  22.599  0.00  0.00     0.033 A 
ATOM      3  C   UNL d   1     -46.923  13.769  22.919  0.00  0.00     0.158 A 
ATOM      4  C   UNL d   1     -46.586  12.503  23.199  0.00  0.00     0.099 A 
ATOM      5  O   UNL d   1     -47.177  13.075  23.288  0.00  0.00    -0.302 OA
ATOM      6  C   UNL d   1     -45.285  12.406  22.594  0.00  0.00     0.194 A 
ATOM      7  C   UNL d   1     -46.528  11.724  23.445  0.00  0.00     0.002 A 
ATOM      8  C   UNL d   1     -45.865  11.276  23.277  0.00  0.00     0.042 A 
ATOM      9  C   UNL d   1     -45.242  11.618  22.850  0.00  0.00     0.019 A 
ATOM     10  O   UNL d   1     -44.658  12.750  22.164  0.00  0.00    -0.287 OA
ATOM     11  C   UNL d   1     -45.842  14.277  22.208  0.00  0.00     0.002 C 
ATOM     12  C   UNL d   1     -45.444  10.563  23.321  0.00  0.00     0.009 C 
ATOM     13  C   UNL d   1     -46.353  10.762  23.698  0.00  0.00     0.009 C 
ENDROOT
BRANCH   3  14
ATOM     14  C   UNL d   1     -47.345  14.477  22.877  0.00  0.00     0.302 C 
ATOM     15  N   UNL d   1     -48.171  14.466  22.790  0.00  0.00    -0.205 NA
ATOM     16  O   UNL d   1     -46.945  15.204  22.922  0.00  0.00    -0.263 OA
BRANCH  15  17
ATOM     17  C   UNL d   1     -48.597  15.171  22.748  0.00  0.00     0.104 C 
BRANCH  17  18
ATOM     18  C   UNL d   1     -49.420  15.155  22.720  0.00  0.00     0.038 A 
ATOM     19  C   UNL d   1     -49.802  14.713  22.136  0.00  0.00     0.101 A 
ATOM     20  N   UNL d   1     -50.620  14.701  22.113  0.00  0.00    -0.242 NA
ATOM     21  C   UNL d   1     -51.064  15.118  22.659  0.00  0.00     0.099 A 
ATOM     22  C   UNL d   1     -50.677  15.560  23.245  0.00  0.00     0.021 A 
ATOM     23  C   UNL d   1     -49.854  15.577  23.272  0.00  0.00     0.005 A 
ENDBRANCH  17  18
ENDBRANCH  15  17
ENDBRANCH   3  14
TORSDOF 3
ENDMDL
MODEL 5
REMARK VINA RESULT:      -7.2      7.984      9.580
REMARK  3 active torsions:
REMARK  status: ('A' for Active; 'I' for Inactive)
REMARK    1  A    between atoms: C_7  and  C_3 
REMARK       I    between atoms: N_10  and  C_7 
REMARK    2  A    between atoms: C_16  and  N_10 
REMARK    3  A    between atoms: C_15  and  C_16 
ROOT
ATOM      1  C   UNL d   1     -39.477  14.494  17.322  0.00  0.00     0.063 A 
ATOM      2  C   UNL d   1     -39.963  14.733  17.950  0.00  0.00     0.033 A 
ATOM      3  C   UNL d   1     -39.862  14.190  18.568  0.00  0.00     0.158 A 
ATOM      4  C   UNL d   1     -39.079  13.808  17.550  0.00  0.00     0.099 A 
ATOM      5  O   UNL d   1     -39.317  13.621  18.321  0.00  0.00    -0.302 OA
ATOM      6  C   UNL d   1     -39.355  14.825  16.571  0.00  0.00     0.194 A 
ATOM      7  C   UNL d   1     -38.557  13.451  17.030  0.00  0.00     0.002 A 
ATOM      8  C   UNL d   1     -38.424  13.762  16.286  0.00  0.00     0.042 A 
ATOM      9  C   UNL d   1     -38.824  14.451  16.056  0.00  0.00     0.019 A 
ATOM     10  O   UNL d   1     -39.758  15.518  16.340  0.00  0.00    -0.287 OA
ATOM     11  C   UNL d   1     -40.498  15.341  18.117  0.00  0.00     0.002 C 
ATOM     12  C   UNL d   1     -38.044  13.737  15.549  0.00  0.00     0.009 C 
ATOM     13  C   UNL d   1     -37.941  13.095  16.314  0.00  0.00     0.009 C 
ENDROOT
BRANCH   3  14
ATOM     14  C   UNL d   1     -40.238  14.212  19.302  0.00  0.00     0.302 C 
ATOM     15  N   UNL d   1     -39.803  14.376  19.990  0.00  0.00    -0.205 NA
ATOM     16  O   UNL d   1     -41.055  14.069  19.356  0.00  0.00    -0.263 OA
BRANCH  15  17
ATOM     17  C   UNL d   1     -40.175  14.399  20.726  0.00  0.00     0.104 C 
BRANCH  17  18
ATOM     18  C   UNL d   1     -39.737  14.556  21.405  0.00  0.00     0.038 A 
ATOM     19  C   UNL d   1     -39.681  15.331  21.686  0.00  0.00     0.101 A 
ATOM     20  N   UNL d   1     -39.244  15.481  22.362  0.00  0.00    -0.242 NA
ATOM     21  C   UNL d   1     -38.863  14.878  22.762  0.00  0.00     0.099 A 
ATOM     22  C   UNL d   1     -38.922  14.101  22.476  0.00  0.00     0.021 A 
ATOM     23  C   UNL d   1     -39.361  13.944  21.797  0.00  0.00     0.005 A 
ENDBRANCH  17  18
ENDBRANCH  15  17
ENDBRANCH   3  14
TORSDOF 3
ENDMDL
MODEL 6
REMARK VINA RESULT:      -6.0      8.261      9.854
REMARK  3 active torsions:
REMARK  status: ('A' for Active; 'I' for Inactive)
REMARK    1  A    between atoms: C_7  and  C_3 
REMARK       I    between atoms: N_10  and  C_7 
REMARK    2  A    between atoms: C_16  and  N_10 
REMARK    3  A    between atoms: C_15  and  C_16 
ROOT
ATOM      1  C   UNL d   1     -39.858  15.082  20.602  0.00  0.00     0.063 A 
ATOM      2  C   UNL d   1     -40.233  15.009  19.866  0.00  0.00     0.033 A 
ATOM      3  C   UNL d   1     -39.828  15.492  19.327  0.00  0.00     0.158 A 
ATOM      4  C   UNL d   1     -39.227  15.606  20.519  0.00  0.00     0.099 A 
ATOM      5  O   UNL d   1     -39.208  15.859  19.731  0.00  0.00    -0.302 OA
ATOM      6  C   UNL d   1     -40.025  14.729  21.334  0.00  0.00     0.194 A 
ATOM      7  C   UNL d   1     -38.758  15.779  21.167  0.00  0.00     0.002 A 
ATOM      8  C   UNL d   1     -38.904  15.442  21.897  0.00  0.00     0.042 A 
ATOM      9  C   UNL d   1     -39.539  14.916  21.981  0.00  0.00     0.019 A 
ATOM     10  O   UNL d   1     -40.663  14.200  21.418  0.00  0.00    -0.287 OA
ATOM     11  C   UNL d   1     -40.875  14.602  19.539  0.00  0.00     0.002 C 
ATOM     12  C   UNL d   1     -38.719  15.346  22.699  0.00  0.00     0.009 C 
ATOM     13  C   UNL d   1     -38.247  15.922  22.026  0.00  0.00     0.009 C 
ENDROOT
BRANCH   3  14
ATOM     14  C   UNL d   1     -40.010  15.591  18.528  0.00  0.00     0.302 C 
ATOM     15  N   UNL d   1     -39.462  15.369  17.945  0.00  0.00    -0.205 NA
ATOM     16  O   UNL d   1     -40.743  15.912  18.304  0.00  0.00    -0.263 OA
BRANCH  15  17
ATOM     17  C   UNL d   1     -39.640  15.466  17.145  0.00  0.00     0.104 C 
BRANCH  17  18
ATOM     18  C   UNL d   1     -39.073  15.297  16.573  0.00  0.00     0.038 A 
ATOM     19  C   UNL d   1     -38.891  14.510  16.396  0.00  0.00     0.101 A 
ATOM     20  N   UNL d   1     -38.326  14.348  15.826  0.00  0.00    -0.242 NA
ATOM     21  C   UNL d   1     -37.940  14.951  15.431  0.00  0.00     0.099 A 
ATOM     22  C   UNL d   1     -38.125  15.739  15.611  0.00  0.00     0.021 A 
ATOM     23  C   UNL d   1     -38.693  15.909  16.183  0.00  0.00     0.005 A 
ENDBRANCH  17  18
ENDBRANCH  15  17
ENDBRANCH   3  14
TORSDOF 3
ENDMDL
MODEL 7
REMARK VINA RESULT:      -5.5      3.609      4.607
REMARK  3 active torsions:
REMARK  status: ('A' for Active; 'I' for Inactive)
REMARK    1  A    between atoms: C_7  and  C_3 
REMARK       I    between atoms: N_10  and  C_7 
REMARK    2  A    between atoms: C_16  and  N_10 
REMARK    3  A    between atoms: C_15  and  C_16 
ROOT
ATOM      1  C   UNL d   1     -45.026  12.686  22.512  0.00  0.00     0.063 A 
ATOM      2  C   UNL d   1     -44.289  12.431  22.230  0.00  0.00     0.033 A 
ATOM      3  C   UNL d   1     -44.005  13.007  21.705  0.00  0.00     0.158 A 
ATOM      4  C   UNL d   1     -45.196  13.415  22.165  0.00  0.00     0.099 A 
ATOM      5  O   UNL d   1     -44.565  13.612  21.666  0.00  0.00    -0.302 OA
ATOM      6  C   UNL d   1     -45.555  12.335  23.045  0.00  0.00     0.194 A 
ATOM      7  C   UNL d   1     -45.897  13.796  22.349  0.00  0.00     0.002 A 
ATOM      8  C   UNL d   1     -46.433  13.467  22.871  0.00  0.00     0.042 A 
ATOM      9  C   UNL d   1     -46.261  12.735  23.220  0.00  0.00     0.019 A 
ATOM     10  O   UNL d   1     -45.383  11.598  23.396  0.00  0.00    -0.287 OA
ATOM     11  C   UNL d   1     -43.783  11.783  22.327  0.00  0.00     0.002 C 
ATOM     12  C   UNL d   1     -47.152  13.495  23.283  0.00  0.00     0.009 C 
ATOM     13  C   UNL d   1     -46.784  14.176  22.644  0.00  0.00     0.009 C 
ENDROOT
BRANCH   3  14
ATOM     14  C   UNL d   1     -43.291  12.982  21.294  0.00  0.00     0.302 C 
ATOM     15  N   UNL d   1     -42.746  13.605  21.365  0.00  0.00    -0.205 NA
ATOM     16  O   UNL d   1     -43.113  12.333  20.806  0.00  0.00    -0.263 OA
BRANCH  15  17
ATOM     17  C   UNL d   1     -42.031  13.584  20.955  0.00  0.00     0.104 C 
BRANCH  17  18
ATOM     18  C   UNL d   1     -41.492  14.202  21.034  0.00  0.00     0.038 A 
ATOM     19  C   UNL d   1     -41.730  14.977  20.873  0.00  0.00     0.101 A 
ATOM     20  N   UNL d   1     -41.191  15.587  20.954  0.00  0.00    -0.242 NA
ATOM     21  C   UNL d   1     -40.421  15.442  21.190  0.00  0.00     0.099 A 
ATOM     22  C   UNL d   1     -40.186  14.663  21.351  0.00  0.00     0.021 A 
ATOM     23  C   UNL d   1     -40.724  14.045  21.271  0.00  0.00     0.005 A 
ENDBRANCH  17  18
ENDBRANCH  15  17
ENDBRANCH   3  14
TORSDOF 3
ENDMDL
MODEL 8
REMARK VINA RESULT:      -5.1      1.884      4.881
REMARK  3 active torsions:
REMARK  status: ('A' for Active; 'I' for Inactive)
REMARK    1  A    between atoms: C_7  and  C_3 
REMARK       I    between atoms: N_10  and  C_7 
REMARK    2  A    between atoms: C_16  and  N_10 
REMARK    3  A    between atoms: C_15  and  C_16 
ROOT
ATOM      1  C   UNL d   1     -47.342  11.625  22.897  0.00  0.00     0.063 A 
ATOM      2  C   UNL d   1     -48.139  11.745  22.703  0.00  0.00     0.033 A 
ATOM      3  C   UNL d   1     -48.191  12.450  22.270  0.00  0.00     0.158 A 
ATOM      4  C   UNL d   1     -46.904  12.251  22.586  0.00  0.00     0.099 A 
ATOM      5  O   UNL d   1     -47.429  12.761  22.199  0.00  0.00    -0.302 OA
ATOM      6  C   UNL d   1     -46.971  11.016  23.321  0.00  0.00     0.194 A 
ATOM      7  C   UNL d   1     -46.093  12.272  22.697  0.00  0.00     0.002 A 
ATOM      8  C   UNL d   1     -45.708  11.681  23.112  0.00  0.00     0.042 A 
ATOM      9  C   UNL d   1     -46.148  11.052  23.425  0.00  0.00     0.019 A 
ATOM     10  O   UNL d   1     -47.414  10.383  23.635  0.00  0.00    -0.287 OA
ATOM     11  C   UNL d   1     -48.865  11.367  22.821  0.00  0.00     0.002 C 
ATOM     12  C   UNL d   1     -45.014  11.348  23.419  0.00  0.00     0.009 C 
ATOM     13  C   UNL d   1     -45.105  12.198  22.893  0.00  0.00     0.009 C 
ENDROOT
BRANCH   3  14
ATOM     14  C   UNL d   1     -48.880  12.785  21.963  0.00  0.00     0.302 C 
ATOM     15  N   UNL d   1     -49.283  13.373  22.388  0.00  0.00    -0.205 NA
ATOM     16  O   UNL d   1     -49.172  12.534  21.226  0.00  0.00    -0.263 OA
BRANCH  15  17
ATOM     17  C   UNL d   1     -49.972  13.710  22.084  0.00  0.00     0.104 C 
BRANCH  17  18
ATOM     18  C   UNL d   1     -50.336  14.333  22.481  0.00  0.00     0.038 A 
ATOM     19  C   UNL d   1     -50.649  14.966  22.051  0.00  0.00     0.101 A 
ATOM     20  N   UNL d   1     -51.009  15.582  22.451  0.00  0.00    -0.242 NA
ATOM     21  C   UNL d   1     -51.063  15.583  23.267  0.00  0.00     0.099 A 
ATOM     22  C   UNL d   1     -50.747  14.946  23.695  0.00  0.00     0.021 A 
ATOM     23  C   UNL d   1     -50.384  14.322  23.298  0.00  0.00     0.005 A 
ENDBRANCH  17  18
ENDBRANCH  15  17
ENDBRANCH   3  14
TORSDOF 3
ENDMDL
