MODEL 1
REMARK VINA RESULT:       7.6      0.000      0.000
REMARK  2 active torsions:
REMARK  status: ('A' for Active; 'I' for Inactive)
REMARK    1  A    between atoms: S_6  and  C_1 
REMARK    2  A    between atoms: C_7  and  S_6 
ROOT
ATOM      1  C   UNL d   1     -52.131  24.749  33.307  0.00  0.00     0.194 A 
ATOM      2  N   UNL d   1     -52.311  25.579  33.308  0.00  0.00    -0.220 NA
ATOM      3  N   UNL d   1     -51.311  24.675  33.306  0.00  0.00    -0.220 NA
ATOM      4  C   UNL d   1     -51.610  25.980  33.308  0.00  0.00     0.101 A 
ATOM      5  C   UNL d   1     -50.978  25.408  33.307  0.00  0.00     0.101 A 
ATOM      6  C   UNL d   1     -51.397  26.791  33.308  0.00  0.00     0.021 A 
ATOM      7  C   UNL d   1     -50.193  25.662  33.307  0.00  0.00     0.021 A 
ATOM      8  C   UNL d   1     -50.020  26.468  33.307  0.00  0.00     0.002 A 
ATOM      9  C   UNL d   1     -50.632  27.022  33.308  0.00  0.00     0.002 A 
ENDROOT
BRANCH   1  10
ATOM     10  S   UNL d   1     -52.916  24.497  33.307  0.00  0.00    -0.049 SA
BRANCH  10  11
ATOM     11  C   UNL d   1     -53.092  23.700  33.433  0.00  0.00     0.032 C 
ATOM     12  C   UNL d   1     -52.511  23.188  33.716  0.00  0.00     0.007 C 
ATOM     13  C   UNL d   1     -53.768  23.236  33.338  0.00  0.00     0.007 C 
ENDBRANCH  10  11
ENDBRANCH   1  10
TORSDOF 2
ENDMDL
MODEL 2
REMARK VINA RESULT:       9.0      0.977      3.279
REMARK  2 active torsions:
REMARK  status: ('A' for Active; 'I' for Inactive)
REMARK    1  A    between atoms: S_6  and  C_1 
REMARK    2  A    between atoms: C_7  and  S_6 
ROOT
ATOM      1  C   UNL d   1     -51.272  25.745  33.311  0.00  0.00     0.194 A 
ATOM      2  N   UNL d   1     -50.961  24.956  33.321  0.00  0.00    -0.220 NA
ATOM      3  N   UNL d   1     -52.093  25.687  33.306  0.00  0.00    -0.220 NA
ATOM      4  C   UNL d   1     -51.588  24.447  33.321  0.00  0.00     0.101 A 
ATOM      5  C   UNL d   1     -52.304  24.909  33.312  0.00  0.00     0.101 A 
ATOM      6  C   UNL d   1     -51.668  23.613  33.329  0.00  0.00     0.021 A 
ATOM      7  C   UNL d   1     -53.038  24.533  33.311  0.00  0.00     0.021 A 
ATOM      8  C   UNL d   1     -53.079  23.709  33.319  0.00  0.00     0.002 A 
ATOM      9  C   UNL d   1     -52.385  23.261  33.328  0.00  0.00     0.002 A 
ENDROOT
BRANCH   1  10
ATOM     10  S   UNL d   1     -50.538  26.121  33.312  0.00  0.00    -0.049 SA
BRANCH  10  11
ATOM     11  C   UNL d   1     -50.496  26.943  33.382  0.00  0.00     0.032 C 
ATOM     12  C   UNL d   1     -49.773  27.306  33.544  0.00  0.00     0.007 C 
ATOM     13  C   UNL d   1     -51.045  27.556  33.327  0.00  0.00     0.007 C 
ENDBRANCH  10  11
ENDBRANCH   1  10
TORSDOF 2
ENDMDL
