MODEL 1
REMARK VINA RESULT:      13.6      0.000      0.000
REMARK  4 active torsions:
REMARK  status: ('A' for Active; 'I' for Inactive)
REMARK    1  A    between atoms: N_3  and  C_1 
REMARK    2  A    between atoms: C_4  and  C_2 
REMARK       I    between atoms: C_6  and  N_3 
REMARK    3  A    between atoms: C_18  and  C_6 
REMARK    4  A    between atoms: C_17  and  C_18 
ROOT
ATOM      1  N   UNL d   1      45.951 -15.645  44.711  0.00  0.00    -0.201 NA
ATOM      2  C   UNL d   1      45.810 -16.450  44.806  0.00  0.00     0.280 C 
ATOM      3  O   UNL d   1      45.045 -16.734  44.950  0.00  0.00    -0.265 OA
ENDROOT
BRANCH   2   4
ATOM      4  C   UNL d   1      46.444 -16.988  44.757  0.00  0.00     0.063 C 
BRANCH   4   5
ATOM      5  C   UNL d   1      46.344 -17.731  44.389  0.00  0.00     0.007 A 
ATOM      6  C   UNL d   1      46.358 -17.798  43.562  0.00  0.00     0.026 A 
ATOM      7  C   UNL d   1      46.257 -18.542  43.204  0.00  0.00     0.119 A 
ATOM      8  O   UNL d   1      46.246 -18.775  42.406  0.00  0.00    -0.300 OA
ATOM      9  C   UNL d   1      46.143 -19.209  43.667  0.00  0.00     0.119 A 
ATOM     10  C   UNL d   1      46.122 -19.605  42.389  0.00  0.00     0.304 A 
ATOM     11  O   UNL d   1      46.061 -19.854  43.166  0.00  0.00    -0.300 OA
ATOM     12  C   UNL d   1      46.129 -19.144  44.493  0.00  0.00     0.026 A 
ATOM     13  C   UNL d   1      46.229 -18.407  44.845  0.00  0.00     0.002 A 
ENDBRANCH   4   5
ENDBRANCH   2   4
BRANCH   1  14
ATOM     14  C   UNL d   1      45.328 -15.110  44.758  0.00  0.00     0.119 A 
ATOM     15  C   UNL d   1      45.369 -14.304  44.621  0.00  0.00     0.084 A 
ATOM     16  C   UNL d   1      44.624 -13.985  44.729  0.00  0.00     0.014 A 
ATOM     17  C   UNL d   1      44.103 -14.595  44.938  0.00  0.00     0.037 A 
ATOM     18  S   UNL d   1      44.550 -15.298  44.954  0.00  0.00    -0.067 SA
BRANCH  15  19
ATOM     19  C   UNL d   1      46.039 -13.870  44.408  0.00  0.00     0.299 C 
ATOM     20  O   UNL d   1      46.424 -13.992  43.690  0.00  0.00    -0.264 OA
ATOM     21  N   UNL d   1      46.327 -13.303  44.931  0.00  0.00    -0.102 N 
ENDBRANCH  15  19
ENDBRANCH   1  14
TORSDOF 4
ENDMDL
MODEL 2
REMARK VINA RESULT:      15.6      1.243      1.534
REMARK  4 active torsions:
REMARK  status: ('A' for Active; 'I' for Inactive)
REMARK    1  A    between atoms: N_3  and  C_1 
REMARK    2  A    between atoms: C_4  and  C_2 
REMARK       I    between atoms: C_6  and  N_3 
REMARK    3  A    between atoms: C_18  and  C_6 
REMARK    4  A    between atoms: C_17  and  C_18 
ROOT
ATOM      1  N   UNL d   1      45.126 -14.822  44.378  0.00  0.00    -0.201 NA
ATOM      2  C   UNL d   1      45.492 -15.519  44.620  0.00  0.00     0.280 C 
ATOM      3  O   UNL d   1      46.254 -15.509  44.945  0.00  0.00    -0.265 OA
ENDROOT
BRANCH   2   4
ATOM      4  C   UNL d   1      45.091 -16.245  44.536  0.00  0.00     0.063 C 
BRANCH   4   5
ATOM      5  C   UNL d   1      45.497 -16.927  44.279  0.00  0.00     0.007 A 
ATOM      6  C   UNL d   1      45.484 -17.149  43.479  0.00  0.00     0.026 A 
ATOM      7  C   UNL d   1      45.891 -17.831  43.231  0.00  0.00     0.119 A 
ATOM      8  O   UNL d   1      45.976 -18.182  42.483  0.00  0.00    -0.300 OA
ATOM      9  C   UNL d   1      46.305 -18.283  43.775  0.00  0.00     0.119 A 
ATOM     10  C   UNL d   1      46.454 -18.865  42.579  0.00  0.00     0.304 A 
ATOM     11  O   UNL d   1      46.647 -18.912  43.373  0.00  0.00    -0.300 OA
ATOM     12  C   UNL d   1      46.320 -18.063  44.573  0.00  0.00     0.026 A 
ATOM     13  C   UNL d   1      45.916 -17.388  44.817  0.00  0.00     0.002 A 
ENDBRANCH   4   5
ENDBRANCH   2   4
BRANCH   1  14
ATOM     14  C   UNL d   1      45.518 -14.103  44.458  0.00  0.00     0.119 A 
ATOM     15  C   UNL d   1      45.335 -13.405  44.072  0.00  0.00     0.084 A 
ATOM     16  C   UNL d   1      45.863 -12.830  44.313  0.00  0.00     0.014 A 
ATOM     17  C   UNL d   1      46.389 -13.166  44.860  0.00  0.00     0.037 A 
ATOM     18  S   UNL d   1      46.167 -13.964  44.946  0.00  0.00    -0.067 SA
BRANCH  15  19
ATOM     19  C   UNL d   1      44.725 -13.284  43.529  0.00  0.00     0.299 C 
ATOM     20  O   UNL d   1      43.963 -13.568  43.663  0.00  0.00    -0.264 OA
ATOM     21  N   UNL d   1      44.886 -12.868  42.837  0.00  0.00    -0.102 N 
ENDBRANCH  15  19
ENDBRANCH   1  14
TORSDOF 4
ENDMDL
