MODEL 1
REMARK VINA RESULT:      35.9      0.000      0.000
REMARK  4 active torsions:
REMARK  status: ('A' for Active; 'I' for Inactive)
REMARK    1  A    between atoms: C_10  and  N_3 
REMARK    2  A    between atoms: C_12  and  N_7 
REMARK    3  A    between atoms: C_19  and  C_12 
REMARK    4  A    between atoms: C_20  and  C_19 
ROOT
ATOM      1  C   UNL d   1     -51.384  24.956  33.311  0.00  0.00     0.172 A 
ATOM      2  C   UNL d   1     -50.578  24.780  33.310  0.00  0.00     0.113 A 
ATOM      3  N   UNL d   1     -51.795  24.235  33.311  0.00  0.00    -0.212 N 
ATOM      4  N   UNL d   1     -51.636  25.737  33.313  0.00  0.00    -0.206 NA
ATOM      5  C   UNL d   1     -50.024  25.385  33.310  0.00  0.00     0.270 A 
ATOM      6  N   UNL d   1     -51.242  23.632  33.310  0.00  0.00    -0.162 NA
ATOM      7  N   UNL d   1     -50.274  26.174  33.312  0.00  0.00    -0.255 N 
ATOM      8  C   UNL d   1     -50.506  23.954  33.309  0.00  0.00     0.129 A 
ATOM      9  C   UNL d   1     -51.080  26.350  33.313  0.00  0.00     0.187 A 
ATOM     10  O   UNL d   1     -49.218  25.209  33.309  0.00  0.00    -0.266 OA
ENDROOT
BRANCH   3  11
ATOM     11  C   UNL d   1     -52.599  24.107  33.312  0.00  0.00     0.085 A 
ATOM     12  C   UNL d   1     -53.120  24.748  33.318  0.00  0.00     0.021 A 
ATOM     13  C   UNL d   1     -53.932  24.615  33.319  0.00  0.00     0.031 A 
ATOM     14  C   UNL d   1     -54.236  23.862  33.314  0.00  0.00     0.140 A 
ATOM     15  C   UNL d   1     -53.707  23.207  33.307  0.00  0.00     0.031 A 
ATOM     16  F   UNL d   1     -55.067  23.746  33.315  0.00  0.00    -0.204 F 
ATOM     17  C   UNL d   1     -52.898  23.329  33.306  0.00  0.00     0.021 A 
ENDBRANCH   3  11
BRANCH   7  18
ATOM     18  C   UNL d   1     -49.716  26.796  33.312  0.00  0.00     0.085 C 
BRANCH  18  19
ATOM     19  C   UNL d   1     -49.845  27.470  33.779  0.00  0.00     0.019 C 
BRANCH  19  20
ATOM     20  C   UNL d   1     -49.192  27.901  34.062  0.00  0.00     0.002 C 
ATOM     21  C   UNL d   1     -48.854  27.687  34.783  0.00  0.00     0.000 C 
ATOM     22  C   UNL d   1     -48.891  28.525  33.630  0.00  0.00     0.000 C 
ENDBRANCH  19  20
ENDBRANCH  18  19
ENDBRANCH   7  18
TORSDOF 4
ENDMDL
