MODEL 1
REMARK VINA RESULT:      -3.8      0.000      0.000
REMARK  7 active torsions:
REMARK  status: ('A' for Active; 'I' for Inactive)
REMARK    1  A    between atoms: N_3  and  C_2 
REMARK       I    between atoms: C_6  and  N_3 
REMARK    2  A    between atoms: C_11  and  C_4 
REMARK    3  A    between atoms: C_5  and  C_6 
REMARK    4  A    between atoms: C_15  and  C_11 
REMARK    5  A    between atoms: C_18  and  C_12 
REMARK    6  A    between atoms: O_17  and  C_18 
REMARK    7  A    between atoms: C_19  and  O_17 
ROOT
ATOM      1  C   UNL d   1      58.191  -0.106  29.840  0.00  0.00     0.158 A 
ATOM      2  O   UNL d   1      58.060  -0.156  30.651  0.00  0.00    -0.300 OA
ATOM      3  C   UNL d   1      57.633   0.412  29.524  0.00  0.00     0.032 A 
ATOM      4  C   UNL d   1      57.423   0.328  30.842  0.00  0.00     0.125 A 
ATOM      5  C   UNL d   1      57.154   0.682  30.147  0.00  0.00     0.029 A 
ENDROOT
BRANCH   1   6
ATOM      6  C   UNL d   1      58.780  -0.504  29.413  0.00  0.00     0.304 C 
ATOM      7  N   UNL d   1      59.477  -0.734  29.792  0.00  0.00    -0.180 NA
ATOM      8  O   UNL d   1      58.663  -0.665  28.616  0.00  0.00    -0.263 OA
BRANCH   7   9
ATOM      9  C   UNL d   1      60.064  -1.130  29.368  0.00  0.00     0.216 A 
ATOM     10  N   UNL d   1      60.160  -1.960  29.325  0.00  0.00    -0.200 NA
ATOM     11  C   UNL d   1      60.805  -2.107  28.849  0.00  0.00     0.175 A 
ATOM     12  N   UNL d   1      61.113  -1.386  28.595  0.00  0.00    -0.187 NA
ATOM     13  S   UNL d   1      60.648  -0.780  28.920  0.00  0.00     0.054 SA
BRANCH  11  14
ATOM     14  C   UNL d   1      61.104  -2.846  28.653  0.00  0.00     0.082 C 
BRANCH  14  15
ATOM     15  C   UNL d   1      60.721  -3.531  28.923  0.00  0.00     0.199 C 
ATOM     16  O   UNL d   1      60.911  -3.846  29.663  0.00  0.00    -0.286 OA
ATOM     17  C   UNL d   1      60.149  -3.900  28.455  0.00  0.00     0.045 C 
ENDBRANCH  14  15
ENDBRANCH  11  14
ENDBRANCH   7   9
ENDBRANCH   1   6
BRANCH   4  18
ATOM     18  C   UNL d   1      57.108   0.439  31.593  0.00  0.00     0.147 C 
BRANCH  18  19
ATOM     19  O   UNL d   1      56.889  -0.219  32.046  0.00  0.00    -0.303 OA
BRANCH  19  20
ATOM     20  C   UNL d   1      56.406  -0.121  32.705  0.00  0.00     0.100 A 
ATOM     21  C   UNL d   1      56.589   0.455  33.274  0.00  0.00     0.025 A 
ATOM     22  C   UNL d   1      56.106   0.553  33.933  0.00  0.00     0.002 A 
ATOM     23  C   UNL d   1      55.439   0.075  34.023  0.00  0.00     0.000 A 
ATOM     24  C   UNL d   1      55.255  -0.499  33.457  0.00  0.00     0.002 A 
ATOM     25  C   UNL d   1      55.738  -0.597  32.798  0.00  0.00     0.025 A 
ENDBRANCH  19  20
ENDBRANCH  18  19
ENDBRANCH   4  18
TORSDOF 7
ENDMDL
MODEL 2
REMARK VINA RESULT:      -2.4      8.015      9.600
REMARK  7 active torsions:
REMARK  status: ('A' for Active; 'I' for Inactive)
REMARK    1  A    between atoms: N_3  and  C_2 
REMARK       I    between atoms: C_6  and  N_3 
REMARK    2  A    between atoms: C_11  and  C_4 
REMARK    3  A    between atoms: C_5  and  C_6 
REMARK    4  A    between atoms: C_15  and  C_11 
REMARK    5  A    between atoms: C_18  and  C_12 
REMARK    6  A    between atoms: O_17  and  C_18 
REMARK    7  A    between atoms: C_19  and  O_17 
ROOT
ATOM      1  C   UNL d   1      59.434  -9.428  32.792  0.00  0.00     0.158 A 
ATOM      2  O   UNL d   1      58.734  -9.413  32.360  0.00  0.00    -0.300 OA
ATOM      3  C   UNL d   1      60.038  -9.677  32.290  0.00  0.00     0.032 A 
ATOM      4  C   UNL d   1      58.899  -9.653  31.590  0.00  0.00     0.125 A 
ATOM      5  C   UNL d   1      59.706  -9.818  31.542  0.00  0.00     0.029 A 
ENDROOT
BRANCH   1   6
ATOM      6  C   UNL d   1      59.520  -9.228  33.592  0.00  0.00     0.304 C 
ATOM      7  N   UNL d   1      59.636  -8.439  33.808  0.00  0.00    -0.180 NA
ATOM      8  O   UNL d   1      59.488  -9.818  34.164  0.00  0.00    -0.263 OA
BRANCH   7   9
ATOM      9  C   UNL d   1      59.722  -8.238  34.604  0.00  0.00     0.216 A 
ATOM     10  N   UNL d   1      59.651  -7.469  34.924  0.00  0.00    -0.200 NA
ATOM     11  C   UNL d   1      59.777  -7.526  35.727  0.00  0.00     0.175 A 
ATOM     12  N   UNL d   1      59.925  -8.315  35.914  0.00  0.00    -0.187 NA
ATOM     13  S   UNL d   1      59.890  -8.756  35.211  0.00  0.00     0.054 SA
BRANCH  11  14
ATOM     14  C   UNL d   1      59.762  -6.907  36.266  0.00  0.00     0.082 C 
BRANCH  14  15
ATOM     15  C   UNL d   1      60.113  -6.181  36.070  0.00  0.00     0.199 C 
ATOM     16  O   UNL d   1      59.692  -5.625  35.626  0.00  0.00    -0.286 OA
ATOM     17  C   UNL d   1      60.882  -6.011  36.317  0.00  0.00     0.045 C 
ENDBRANCH  14  15
ENDBRANCH  11  14
ENDBRANCH   7   9
ENDBRANCH   1   6
BRANCH   4  18
ATOM     18  C   UNL d   1      58.355  -9.716  30.977  0.00  0.00     0.147 C 
BRANCH  18  19
ATOM     19  O   UNL d   1      58.430  -9.230  30.312  0.00  0.00    -0.303 OA
BRANCH  19  20
ATOM     20  C   UNL d   1      57.859  -9.252  29.720  0.00  0.00     0.100 A 
ATOM     21  C   UNL d   1      57.905  -8.728  29.076  0.00  0.00     0.025 A 
ATOM     22  C   UNL d   1      57.334  -8.750  28.484  0.00  0.00     0.002 A 
ATOM     23  C   UNL d   1      56.717  -9.295  28.535  0.00  0.00     0.000 A 
ATOM     24  C   UNL d   1      56.670  -9.817  29.175  0.00  0.00     0.002 A 
ATOM     25  C   UNL d   1      57.240  -9.795  29.767  0.00  0.00     0.025 A 
ENDBRANCH  19  20
ENDBRANCH  18  19
ENDBRANCH   4  18
TORSDOF 7
ENDMDL
MODEL 3
REMARK VINA RESULT:      -2.4      1.797      2.583
REMARK  7 active torsions:
REMARK  status: ('A' for Active; 'I' for Inactive)
REMARK    1  A    between atoms: N_3  and  C_2 
REMARK       I    between atoms: C_6  and  N_3 
REMARK    2  A    between atoms: C_11  and  C_4 
REMARK    3  A    between atoms: C_5  and  C_6 
REMARK    4  A    between atoms: C_15  and  C_11 
REMARK    5  A    between atoms: C_18  and  C_12 
REMARK    6  A    between atoms: O_17  and  C_18 
REMARK    7  A    between atoms: C_19  and  O_17 
ROOT
ATOM      1  C   UNL d   1      57.011  -0.753  31.682  0.00  0.00     0.158 A 
ATOM      2  O   UNL d   1      57.004  -0.133  32.224  0.00  0.00    -0.300 OA
ATOM      3  C   UNL d   1      56.546  -1.361  31.987  0.00  0.00     0.032 A 
ATOM      4  C   UNL d   1      56.537  -0.353  32.864  0.00  0.00     0.125 A 
ATOM      5  C   UNL d   1      56.250  -1.113  32.722  0.00  0.00     0.029 A 
ENDROOT
BRANCH   1   6
ATOM      6  C   UNL d   1      57.414  -0.767  30.958  0.00  0.00     0.304 C 
ATOM      7  N   UNL d   1      57.766  -0.077  30.671  0.00  0.00    -0.180 NA
ATOM      8  O   UNL d   1      57.459  -1.468  30.532  0.00  0.00    -0.263 OA
BRANCH   7   9
ATOM      9  C   UNL d   1      58.168  -0.089  29.950  0.00  0.00     0.216 A 
ATOM     10  N   UNL d   1      58.971  -0.294  29.841  0.00  0.00    -0.200 NA
ATOM     11  C   UNL d   1      59.134  -0.231  29.045  0.00  0.00     0.175 A 
ATOM     12  N   UNL d   1      58.448   0.011  28.656  0.00  0.00    -0.187 NA
ATOM     13  S   UNL d   1      57.849   0.098  29.223  0.00  0.00     0.054 SA
BRANCH  11  14
ATOM     14  C   UNL d   1      59.856  -0.380  28.685  0.00  0.00     0.082 C 
BRANCH  14  15
ATOM     15  C   UNL d   1      60.560  -0.253  29.105  0.00  0.00     0.199 C 
ATOM     16  O   UNL d   1      60.765   0.510  29.350  0.00  0.00    -0.286 OA
ATOM     17  C   UNL d   1      61.059  -0.887  29.280  0.00  0.00     0.045 C 
ENDBRANCH  14  15
ENDBRANCH  11  14
ENDBRANCH   7   9
ENDBRANCH   1   6
BRANCH   4  18
ATOM     18  C   UNL d   1      56.382   0.106  33.529  0.00  0.00     0.147 C 
BRANCH  18  19
ATOM     19  O   UNL d   1      55.674   0.531  33.576  0.00  0.00    -0.303 OA
BRANCH  19  20
ATOM     20  C   UNL d   1      55.271   0.579  34.292  0.00  0.00     0.100 A 
ATOM     21  C   UNL d   1      55.692   0.573  35.009  0.00  0.00     0.025 A 
ATOM     22  C   UNL d   1      55.289   0.621  35.725  0.00  0.00     0.002 A 
ATOM     23  C   UNL d   1      54.465   0.675  35.725  0.00  0.00     0.000 A 
ATOM     24  C   UNL d   1      54.045   0.682  35.013  0.00  0.00     0.002 A 
ATOM     25  C   UNL d   1      54.448   0.634  34.297  0.00  0.00     0.025 A 
ENDBRANCH  19  20
ENDBRANCH  18  19
ENDBRANCH   4  18
TORSDOF 7
ENDMDL
