MODEL 1
REMARK VINA RESULT:      61.3      0.000      0.000
REMARK  4 active torsions:
REMARK  status: ('A' for Active; 'I' for Inactive)
REMARK    1  A    between atoms: S_2  and  N_1 
REMARK    2  A    between atoms: C_10  and  S_2 
REMARK    3  A    between atoms: C_7  and  C_4 
REMARK    4  A    between atoms: C_12  and  C_5 
ROOT
ATOM      1  N   UNL d   1      14.509  14.334  -2.007  0.00  0.00    -0.152 N 
ATOM      2  N   UNL d   1      14.799  15.075  -1.847  0.00  0.00    -0.155 NA
ATOM      3  C   UNL d   1      14.663  15.549  -2.508  0.00  0.00     0.110 A 
ATOM      4  C   UNL d   1      14.187  14.332  -2.768  0.00  0.00     0.096 A 
ATOM      5  C   UNL d   1      14.285  15.108  -3.087  0.00  0.00     0.041 A 
ENDROOT
BRANCH   1   6
ATOM      6  S   UNL d   1      14.529  13.703  -1.510  0.00  0.00     0.286 S 
ATOM      7  O   UNL d   1      15.269  14.017  -1.723  0.00  0.00    -0.198 OA
ATOM      8  O   UNL d   1      15.200  13.329  -1.185  0.00  0.00    -0.198 OA
BRANCH   6   9
ATOM      9  C   UNL d   1      14.377  13.062  -1.013  0.00  0.00     0.105 A 
ATOM     10  C   UNL d   1      13.704  13.063  -0.533  0.00  0.00     0.013 A 
ATOM     11  C   UNL d   1      13.549  12.420  -0.033  0.00  0.00     0.001 A 
ATOM     12  C   UNL d   1      14.068  11.779  -0.015  0.00  0.00     0.000 A 
ATOM     13  C   UNL d   1      14.742  11.781  -0.497  0.00  0.00     0.001 A 
ATOM     14  C   UNL d   1      14.895  12.421  -0.995  0.00  0.00     0.013 A 
ENDBRANCH   6   9
ENDBRANCH   1   6
BRANCH   4  15
ATOM     15  C   UNL d   1      13.832  13.694  -3.152  0.00  0.00     0.019 A 
ATOM     16  C   UNL d   1      13.284  13.833  -3.761  0.00  0.00     0.002 A 
ATOM     17  C   UNL d   1      12.942  13.217  -4.132  0.00  0.00     0.007 A 
ATOM     18  C   UNL d   1      13.123  12.417  -3.920  0.00  0.00     0.035 A 
ATOM     19  C   UNL d   1      13.680  12.307  -3.302  0.00  0.00     0.007 A 
ATOM     20 BR   UNL d   1      12.769  11.779  -4.305  0.00  0.00    -0.049 Br
ATOM     21  C   UNL d   1      14.022  12.923  -2.931  0.00  0.00     0.002 A 
ENDBRANCH   4  15
BRANCH   3  22
ATOM     22  C   UNL d   1      14.863  16.342  -2.598  0.00  0.00     0.049 A 
ATOM     23  S   UNL d   1      14.904  16.754  -3.323  0.00  0.00    -0.085 SA
ATOM     24  C   UNL d   1      15.121  17.496  -3.102  0.00  0.00     0.035 A 
ATOM     25  C   UNL d   1      15.220  17.608  -2.361  0.00  0.00     0.007 A 
ATOM     26  C   UNL d   1      15.064  16.893  -2.017  0.00  0.00     0.009 A 
ENDBRANCH   3  22
TORSDOF 4
ENDMDL
MODEL 2
REMARK VINA RESULT:      63.4      1.436      2.682
REMARK  4 active torsions:
REMARK  status: ('A' for Active; 'I' for Inactive)
REMARK    1  A    between atoms: S_2  and  N_1 
REMARK    2  A    between atoms: C_10  and  S_2 
REMARK    3  A    between atoms: C_7  and  C_4 
REMARK    4  A    between atoms: C_12  and  C_5 
ROOT
ATOM      1  N   UNL d   1      14.054  14.448  -3.070  0.00  0.00    -0.152 N 
ATOM      2  N   UNL d   1      14.176  15.191  -3.374  0.00  0.00    -0.155 NA
ATOM      3  C   UNL d   1      14.621  15.619  -2.827  0.00  0.00     0.110 A 
ATOM      4  C   UNL d   1      14.420  14.400  -2.330  0.00  0.00     0.096 A 
ATOM      5  C   UNL d   1      14.781  15.147  -2.176  0.00  0.00     0.041 A 
ENDROOT
BRANCH   1   6
ATOM      6  S   UNL d   1      13.646  13.854  -3.427  0.00  0.00     0.286 S 
ATOM      7  O   UNL d   1      13.202  14.531  -3.232  0.00  0.00    -0.198 OA
ATOM      8  O   UNL d   1      12.836  13.837  -3.622  0.00  0.00    -0.198 OA
BRANCH   6   9
ATOM      9  C   UNL d   1      13.381  13.164  -3.792  0.00  0.00     0.105 A 
ATOM     10  C   UNL d   1      13.384  13.107  -4.616  0.00  0.00     0.013 A 
ATOM     11  C   UNL d   1      13.118  12.414  -4.986  0.00  0.00     0.001 A 
ATOM     12  C   UNL d   1      12.850  11.782  -4.529  0.00  0.00     0.000 A 
ATOM     13  C   UNL d   1      12.848  11.842  -3.703  0.00  0.00     0.001 A 
ATOM     14  C   UNL d   1      13.113  12.532  -3.336  0.00  0.00     0.013 A 
ENDBRANCH   6   9
ENDBRANCH   1   6
BRANCH   4  15
ATOM     15  C   UNL d   1      14.433  13.744  -1.829  0.00  0.00     0.019 A 
ATOM     16  C   UNL d   1      13.900  13.701  -1.193  0.00  0.00     0.002 A 
ATOM     17  C   UNL d   1      13.914  13.069  -0.709  0.00  0.00     0.007 A 
ATOM     18  C   UNL d   1      14.461  12.434  -0.827  0.00  0.00     0.035 A 
ATOM     19  C   UNL d   1      14.988  12.504  -1.477  0.00  0.00     0.007 A 
ATOM     20 BR   UNL d   1      14.475  11.779  -0.325  0.00  0.00    -0.049 Br
ATOM     21  C   UNL d   1      14.974  13.136  -1.961  0.00  0.00     0.002 A 
ENDBRANCH   4  15
BRANCH   3  22
ATOM     22  C   UNL d   1      14.876  16.398  -2.899  0.00  0.00     0.049 A 
ATOM     23  S   UNL d   1      14.963  16.941  -2.271  0.00  0.00    -0.085 SA
ATOM     24  C   UNL d   1      15.222  17.608  -2.637  0.00  0.00     0.035 A 
ATOM     25  C   UNL d   1      15.309  17.564  -3.387  0.00  0.00     0.007 A 
ATOM     26  C   UNL d   1      15.097  16.809  -3.580  0.00  0.00     0.009 A 
ENDBRANCH   3  22
TORSDOF 4
ENDMDL
