MODEL 1
REMARK VINA RESULT:      44.4      0.000      0.000
REMARK  6 active torsions:
REMARK  status: ('A' for Active; 'I' for Inactive)
REMARK    1  A    between atoms: C_3  and  N_1 
REMARK       I    between atoms: C_2  and  N_5 
REMARK       I    between atoms: N_10  and  C_2 
REMARK    2  A    between atoms: N_5  and  C_8 
REMARK    3  A    between atoms: C_17  and  N_10 
REMARK    4  A    between atoms: O_18  and  C_11 
REMARK    5  A    between atoms: C_12  and  C_22 
REMARK    6  A    between atoms: C_22  and  C_17 
ROOT
ATOM      1  C   UNL d   1     -48.695  28.404  34.697  0.00  0.00     0.369 C 
ATOM      2  N   UNL d   1     -48.781  29.086  35.158  0.00  0.00    -0.191 NA
ATOM      3  O   UNL d   1     -47.955  28.218  34.378  0.00  0.00    -0.242 OA
ATOM      4  N   UNL d   1     -49.336  27.923  34.559  0.00  0.00    -0.189 NA
ENDROOT
BRANCH   2   5
ATOM      5  C   UNL d   1     -48.133  29.575  35.299  0.00  0.00     0.088 A 
ATOM      6  C   UNL d   1     -48.141  30.355  35.046  0.00  0.00     0.043 A 
ATOM      7  C   UNL d   1     -47.503  30.843  35.182  0.00  0.00     0.128 A 
ATOM      8  C   UNL d   1     -46.838  30.553  35.580  0.00  0.00     0.024 A 
ATOM      9  C   UNL d   1     -46.825  29.768  35.837  0.00  0.00     0.003 A 
ATOM     10  C   UNL d   1     -47.474  29.278  35.696  0.00  0.00     0.019 A 
BRANCH   7  11
ATOM     11  N   UNL d   1     -47.512  31.630  34.926  0.00  0.00    -0.114 N 
ATOM     12  O   UNL d   1     -47.267  32.230  35.428  0.00  0.00    -0.532 OA
ATOM     13  O   UNL d   1     -47.768  31.806  34.168  0.00  0.00    -0.532 OA
ENDBRANCH   7  11
ENDBRANCH   2   5
BRANCH   4  14
ATOM     14  C   UNL d   1     -49.250  27.242  34.098  0.00  0.00     0.104 C 
BRANCH  14  15
ATOM     15  C   UNL d   1     -49.726  27.127  33.434  0.00  0.00     0.021 C 
BRANCH  15  16
ATOM     16  C   UNL d   1     -50.237  26.488  33.402  0.00  0.00     0.002 A 
ATOM     17  C   UNL d   1     -49.936  25.727  33.338  0.00  0.00     0.002 A 
ATOM     18  C   UNL d   1     -50.450  25.078  33.306  0.00  0.00     0.024 A 
ATOM     19  C   UNL d   1     -51.259  25.205  33.338  0.00  0.00     0.094 A 
ATOM     20  C   UNL d   1     -51.559  25.962  33.401  0.00  0.00     0.024 A 
ATOM     21  C   UNL d   1     -51.045  26.610  33.433  0.00  0.00     0.002 A 
BRANCH  19  22
ATOM     22  O   UNL d   1     -51.773  24.561  33.306  0.00  0.00    -0.328 OA
ATOM     23  C   UNL d   1     -51.585  23.864  33.704  0.00  0.00     0.181 C 
ENDBRANCH  19  22
ENDBRANCH  15  16
ENDBRANCH  14  15
ENDBRANCH   4  14
TORSDOF 6
ENDMDL
MODEL 2
REMARK VINA RESULT:      46.1      0.995      1.315
REMARK  6 active torsions:
REMARK  status: ('A' for Active; 'I' for Inactive)
REMARK    1  A    between atoms: C_3  and  N_1 
REMARK       I    between atoms: C_2  and  N_5 
REMARK       I    between atoms: N_10  and  C_2 
REMARK    2  A    between atoms: N_5  and  C_8 
REMARK    3  A    between atoms: C_17  and  N_10 
REMARK    4  A    between atoms: O_18  and  C_11 
REMARK    5  A    between atoms: C_12  and  C_22 
REMARK    6  A    between atoms: C_22  and  C_17 
ROOT
ATOM      1  C   UNL d   1     -49.240  27.763  34.321  0.00  0.00     0.369 C 
ATOM      2  N   UNL d   1     -49.103  28.231  34.990  0.00  0.00    -0.191 NA
ATOM      3  O   UNL d   1     -48.636  27.657  33.766  0.00  0.00    -0.242 OA
ATOM      4  N   UNL d   1     -49.965  27.411  34.214  0.00  0.00    -0.189 NA
ENDROOT
BRANCH   2   5
ATOM      5  C   UNL d   1     -48.368  28.590  35.101  0.00  0.00     0.088 A 
ATOM      6  C   UNL d   1     -48.300  29.255  35.574  0.00  0.00     0.043 A 
ATOM      7  C   UNL d   1     -47.577  29.613  35.687  0.00  0.00     0.128 A 
ATOM      8  C   UNL d   1     -46.902  29.305  35.321  0.00  0.00     0.024 A 
ATOM      9  C   UNL d   1     -46.965  28.634  34.843  0.00  0.00     0.003 A 
ATOM     10  C   UNL d   1     -47.700  28.276  34.733  0.00  0.00     0.019 A 
BRANCH   7  11
ATOM     11  N   UNL d   1     -47.509  30.285  36.166  0.00  0.00    -0.114 N 
ATOM     12  O   UNL d   1     -47.255  30.996  35.845  0.00  0.00    -0.532 OA
ATOM     13  O   UNL d   1     -47.698  30.236  36.961  0.00  0.00    -0.532 OA
ENDBRANCH   7  11
ENDBRANCH   2   5
BRANCH   4  14
ATOM     14  C   UNL d   1     -50.102  26.942  33.546  0.00  0.00     0.104 C 
BRANCH  14  15
ATOM     15  C   UNL d   1     -50.874  26.777  33.306  0.00  0.00     0.021 C 
BRANCH  15  16
ATOM     16  C   UNL d   1     -51.149  26.006  33.312  0.00  0.00     0.002 A 
ATOM     17  C   UNL d   1     -50.614  25.383  33.311  0.00  0.00     0.002 A 
ATOM     18  C   UNL d   1     -50.889  24.601  33.317  0.00  0.00     0.024 A 
ATOM     19  C   UNL d   1     -51.696  24.458  33.322  0.00  0.00     0.094 A 
ATOM     20  C   UNL d   1     -52.227  25.078  33.322  0.00  0.00     0.024 A 
ATOM     21  C   UNL d   1     -51.953  25.859  33.317  0.00  0.00     0.002 A 
BRANCH  19  22
ATOM     22  O   UNL d   1     -51.972  23.681  33.328  0.00  0.00    -0.328 OA
ATOM     23  C   UNL d   1     -52.783  23.533  33.306  0.00  0.00     0.181 C 
ENDBRANCH  19  22
ENDBRANCH  15  16
ENDBRANCH  14  15
ENDBRANCH   4  14
TORSDOF 6
ENDMDL
MODEL 3
REMARK VINA RESULT:      46.4      1.732      6.225
REMARK  6 active torsions:
REMARK  status: ('A' for Active; 'I' for Inactive)
REMARK    1  A    between atoms: C_3  and  N_1 
REMARK       I    between atoms: C_2  and  N_5 
REMARK       I    between atoms: N_10  and  C_2 
REMARK    2  A    between atoms: N_5  and  C_8 
REMARK    3  A    between atoms: C_17  and  N_10 
REMARK    4  A    between atoms: O_18  and  C_11 
REMARK    5  A    between atoms: C_12  and  C_22 
REMARK    6  A    between atoms: C_22  and  C_17 
ROOT
ATOM      1  C   UNL d   1     -50.170  26.227  33.781  0.00  0.00     0.369 C 
ATOM      2  N   UNL d   1     -50.782  25.928  33.309  0.00  0.00    -0.191 NA
ATOM      3  O   UNL d   1     -49.782  25.724  34.313  0.00  0.00    -0.242 OA
ATOM      4  N   UNL d   1     -49.954  27.008  33.719  0.00  0.00    -0.189 NA
ENDROOT
BRANCH   2   5
ATOM      5  C   UNL d   1     -51.002  25.136  33.370  0.00  0.00     0.088 A 
ATOM      6  C   UNL d   1     -51.787  24.934  33.491  0.00  0.00     0.043 A 
ATOM      7  C   UNL d   1     -52.011  24.153  33.552  0.00  0.00     0.128 A 
ATOM      8  C   UNL d   1     -51.443  23.554  33.491  0.00  0.00     0.024 A 
ATOM      9  C   UNL d   1     -50.651  23.753  33.368  0.00  0.00     0.003 A 
ATOM     10  C   UNL d   1     -50.430  24.545  33.308  0.00  0.00     0.019 A 
BRANCH   7  11
ATOM     11  N   UNL d   1     -52.804  23.950  33.674  0.00  0.00    -0.114 N 
ATOM     12  O   UNL d   1     -52.998  23.320  34.163  0.00  0.00    -0.532 OA
ATOM     13  O   UNL d   1     -53.395  24.382  33.306  0.00  0.00    -0.532 OA
ENDBRANCH   7  11
ENDBRANCH   2   5
BRANCH   4  14
ATOM     14  C   UNL d   1     -49.343  27.305  34.191  0.00  0.00     0.104 C 
BRANCH  14  15
ATOM     15  C   UNL d   1     -49.500  27.885  34.757  0.00  0.00     0.021 C 
BRANCH  15  16
ATOM     16  C   UNL d   1     -48.901  28.384  35.009  0.00  0.00     0.002 A 
ATOM     17  C   UNL d   1     -48.769  28.490  35.812  0.00  0.00     0.002 A 
ATOM     18  C   UNL d   1     -48.164  28.994  36.070  0.00  0.00     0.024 A 
ATOM     19  C   UNL d   1     -47.702  29.384  35.517  0.00  0.00     0.094 A 
ATOM     20  C   UNL d   1     -47.834  29.279  34.718  0.00  0.00     0.024 A 
ATOM     21  C   UNL d   1     -48.438  28.775  34.459  0.00  0.00     0.002 A 
BRANCH  19  22
ATOM     22  O   UNL d   1     -47.099  29.886  35.771  0.00  0.00    -0.328 OA
ATOM     23  C   UNL d   1     -47.109  30.184  36.540  0.00  0.00     0.181 C 
ENDBRANCH  19  22
ENDBRANCH  15  16
ENDBRANCH  14  15
ENDBRANCH   4  14
TORSDOF 6
ENDMDL
MODEL 4
REMARK VINA RESULT:      47.2      1.167      5.827
REMARK  6 active torsions:
REMARK  status: ('A' for Active; 'I' for Inactive)
REMARK    1  A    between atoms: C_3  and  N_1 
REMARK       I    between atoms: C_2  and  N_5 
REMARK       I    between atoms: N_10  and  C_2 
REMARK    2  A    between atoms: N_5  and  C_8 
REMARK    3  A    between atoms: C_17  and  N_10 
REMARK    4  A    between atoms: O_18  and  C_11 
REMARK    5  A    between atoms: C_12  and  C_22 
REMARK    6  A    between atoms: C_22  and  C_17 
ROOT
ATOM      1  C   UNL d   1     -49.257  27.391  34.295  0.00  0.00     0.369 C 
ATOM      2  N   UNL d   1     -49.344  27.011  33.565  0.00  0.00    -0.191 NA
ATOM      3  O   UNL d   1     -49.688  27.121  34.949  0.00  0.00    -0.242 OA
ATOM      4  N   UNL d   1     -48.752  28.024  34.368  0.00  0.00    -0.189 NA
ENDROOT
BRANCH   2   5
ATOM      5  C   UNL d   1     -49.856  26.370  33.489  0.00  0.00     0.088 A 
ATOM      6  C   UNL d   1     -50.667  26.483  33.519  0.00  0.00     0.043 A 
ATOM      7  C   UNL d   1     -51.178  25.852  33.445  0.00  0.00     0.128 A 
ATOM      8  C   UNL d   1     -50.878  25.088  33.338  0.00  0.00     0.024 A 
ATOM      9  C   UNL d   1     -50.062  24.969  33.308  0.00  0.00     0.003 A 
ATOM     10  C   UNL d   1     -49.550  25.611  33.383  0.00  0.00     0.019 A 
BRANCH   7  11
ATOM     11  N   UNL d   1     -51.997  25.968  33.475  0.00  0.00    -0.114 N 
ATOM     12  O   UNL d   1     -52.315  26.705  33.307  0.00  0.00    -0.532 OA
ATOM     13  O   UNL d   1     -52.487  25.343  33.675  0.00  0.00    -0.532 OA
ENDBRANCH   7  11
ENDBRANCH   2   5
BRANCH   4  14
ATOM     14  C   UNL d   1     -48.666  28.402  35.098  0.00  0.00     0.104 C 
BRANCH  14  15
ATOM     15  C   UNL d   1     -47.921  28.654  35.350  0.00  0.00     0.021 C 
BRANCH  15  16
ATOM     16  C   UNL d   1     -47.735  29.451  35.342  0.00  0.00     0.002 A 
ATOM     17  C   UNL d   1     -47.425  29.805  36.015  0.00  0.00     0.002 A 
ATOM     18  C   UNL d   1     -47.234  30.612  36.009  0.00  0.00     0.024 A 
ATOM     19  C   UNL d   1     -47.359  31.050  35.328  0.00  0.00     0.094 A 
ATOM     20  C   UNL d   1     -47.667  30.698  34.659  0.00  0.00     0.024 A 
ATOM     21  C   UNL d   1     -47.858  29.892  34.664  0.00  0.00     0.002 A 
BRANCH  19  22
ATOM     22  O   UNL d   1     -47.171  31.852  35.319  0.00  0.00    -0.328 OA
ATOM     23  C   UNL d   1     -47.759  32.411  35.174  0.00  0.00     0.181 C 
ENDBRANCH  19  22
ENDBRANCH  15  16
ENDBRANCH  14  15
ENDBRANCH   4  14
TORSDOF 6
ENDMDL
