MODEL 1
REMARK VINA RESULT:      54.8      0.000      0.000
REMARK  3 active torsions:
REMARK  status: ('A' for Active; 'I' for Inactive)
REMARK    1  A    between atoms: C_9  and  S_1 
REMARK    2  A    between atoms: S_2  and  C_8 
REMARK    3  A    between atoms: N_14  and  C_5 
ROOT
ATOM      1  C   UNL d   1     -50.746  26.177  33.729  0.00  0.00     0.021 A 
ATOM      2  C   UNL d   1     -51.709  25.234  33.855  0.00  0.00     0.021 A 
ATOM      3  C   UNL d   1     -51.519  26.052  33.908  0.00  0.00     0.111 A 
ATOM      4  C   UNL d   1     -51.011  24.865  33.635  0.00  0.00     0.002 A 
ATOM      5  C   UNL d   1     -50.400  25.411  33.548  0.00  0.00     0.002 A 
ATOM      6  C   UNL d   1     -52.421  24.000  33.884  0.00  0.00     0.107 A 
ATOM      7  C   UNL d   1     -49.470  26.761  33.479  0.00  0.00     0.107 A 
ATOM      8  C   UNL d   1     -52.399  24.826  33.979  0.00  0.00     0.015 A 
ATOM      9  C   UNL d   1     -50.290  26.846  33.696  0.00  0.00     0.015 A 
ATOM     10  C   UNL d   1     -49.618  25.350  33.344  0.00  0.00     0.001 A 
ATOM     11  C   UNL d   1     -51.042  24.014  33.538  0.00  0.00     0.001 A 
ATOM     12  C   UNL d   1     -49.147  26.017  33.307  0.00  0.00     0.013 A 
ATOM     13  C   UNL d   1     -51.728  23.612  33.662  0.00  0.00     0.013 A 
ENDROOT
BRANCH   6  14
ATOM     14  S   UNL d   1     -53.153  23.596  34.018  0.00  0.00     0.302 S 
ATOM     15  O   UNL d   1     -52.826  23.263  34.706  0.00  0.00    -0.197 OA
ATOM     16  O   UNL d   1     -53.500  23.932  33.313  0.00  0.00    -0.197 OA
ATOM     17  N   UNL d   1     -53.888  23.188  34.156  0.00  0.00    -0.043 N 
ENDBRANCH   6  14
BRANCH   3  18
ATOM     18  N   UNL d   1     -52.023  26.725  34.117  0.00  0.00    -0.096 NA
ATOM     19  O   UNL d   1     -52.149  27.343  33.574  0.00  0.00    -0.061 OA
ENDBRANCH   3  18
BRANCH   7  20
ATOM     20  S   UNL d   1     -49.003  27.494  33.451  0.00  0.00     0.302 S 
ATOM     21  O   UNL d   1     -48.315  26.998  33.579  0.00  0.00    -0.197 OA
ATOM     22  O   UNL d   1     -49.714  27.942  33.325  0.00  0.00    -0.197 OA
ATOM     23  N   UNL d   1     -48.546  28.163  33.429  0.00  0.00    -0.043 N 
ENDBRANCH   7  20
TORSDOF 3
ENDMDL
MODEL 2
REMARK VINA RESULT:      55.6      1.229      1.692
REMARK  3 active torsions:
REMARK  status: ('A' for Active; 'I' for Inactive)
REMARK    1  A    between atoms: C_9  and  S_1 
REMARK    2  A    between atoms: S_2  and  C_8 
REMARK    3  A    between atoms: N_14  and  C_5 
ROOT
ATOM      1  C   UNL d   1     -50.239  25.650  33.773  0.00  0.00     0.021 A 
ATOM      2  C   UNL d   1     -51.360  24.902  33.636  0.00  0.00     0.021 A 
ATOM      3  C   UNL d   1     -50.519  24.905  33.662  0.00  0.00     0.111 A 
ATOM      4  C   UNL d   1     -51.580  25.686  33.736  0.00  0.00     0.002 A 
ATOM      5  C   UNL d   1     -50.920  26.172  33.823  0.00  0.00     0.002 A 
ATOM      6  C   UNL d   1     -52.714  24.473  33.535  0.00  0.00     0.107 A 
ATOM      7  C   UNL d   1     -49.407  26.793  33.955  0.00  0.00     0.107 A 
ATOM      8  C   UNL d   1     -51.899  24.305  33.538  0.00  0.00     0.015 A 
ATOM      9  C   UNL d   1     -49.490  25.953  33.838  0.00  0.00     0.015 A 
ATOM     10  C   UNL d   1     -50.822  26.968  33.935  0.00  0.00     0.001 A 
ATOM     11  C   UNL d   1     -52.421  25.850  33.732  0.00  0.00     0.001 A 
ATOM     12  C   UNL d   1     -50.072  27.287  34.002  0.00  0.00     0.013 A 
ATOM     13  C   UNL d   1     -52.954  25.256  33.634  0.00  0.00     0.013 A 
ENDROOT
BRANCH   6  14
ATOM     14  S   UNL d   1     -53.259  23.833  33.431  0.00  0.00     0.302 S 
ATOM     15  O   UNL d   1     -53.873  24.387  33.353  0.00  0.00    -0.197 OA
ATOM     16  O   UNL d   1     -52.635  23.254  33.509  0.00  0.00    -0.197 OA
ATOM     17  N   UNL d   1     -53.809  23.191  33.325  0.00  0.00    -0.043 N 
ENDBRANCH   6  14
BRANCH   3  18
ATOM     18  N   UNL d   1     -49.960  24.246  33.590  0.00  0.00    -0.096 NA
ATOM     19  O   UNL d   1     -50.147  23.498  33.903  0.00  0.00    -0.061 OA
ENDBRANCH   3  18
BRANCH   7  20
ATOM     20  S   UNL d   1     -48.594  27.093  34.021  0.00  0.00     0.302 S 
ATOM     21  O   UNL d   1     -48.380  26.485  33.455  0.00  0.00    -0.197 OA
ATOM     22  O   UNL d   1     -48.855  27.678  34.579  0.00  0.00    -0.197 OA
ATOM     23  N   UNL d   1     -47.828  27.354  34.066  0.00  0.00    -0.043 N 
ENDBRANCH   7  20
TORSDOF 3
ENDMDL
