MODEL 1
REMARK VINA RESULT:      -3.4      0.000      0.000
REMARK  4 active torsions:
REMARK  status: ('A' for Active; 'I' for Inactive)
REMARK    1  A    between atoms: N_6  and  C_1 
REMARK       I    between atoms: C_7  and  N_8 
REMARK    2  A    between atoms: C_9  and  C_7 
REMARK    3  A    between atoms: O_20  and  C_10 
REMARK    4  A    between atoms: O_19  and  C_11 
ROOT
ATOM      1  C   UNL d   1      58.207  -0.534  30.667  0.00  0.00     0.180 A 
ATOM      2  N   UNL d   1      58.702  -0.022  30.248  0.00  0.00    -0.220 NA
ATOM      3  S   UNL d   1      58.229  -1.271  30.282  0.00  0.00    -0.046 SA
ATOM      4  C   UNL d   1      59.025  -0.434  29.615  0.00  0.00     0.114 A 
ATOM      5  C   UNL d   1      58.730  -1.204  29.641  0.00  0.00     0.074 A 
ATOM      6  C   UNL d   1      59.541  -0.215  29.026  0.00  0.00     0.112 A 
ATOM      7  C   UNL d   1      58.955  -1.744  29.079  0.00  0.00     0.102 A 
ATOM      8  C   UNL d   1      59.479  -1.524  28.481  0.00  0.00     0.027 A 
ATOM      9  C   UNL d   1      59.773  -0.754  28.455  0.00  0.00     0.028 A 
ENDROOT
BRANCH   1  10
ATOM     10  N   UNL d   1      57.777  -0.339  31.339  0.00  0.00    -0.281 N 
ATOM     11  C   UNL d   1      58.142   0.085  31.948  0.00  0.00     0.101 A 
ATOM     12  C   UNL d   1      57.723   0.289  32.630  0.00  0.00     0.102 A 
ATOM     13  N   UNL d   1      56.928   0.059  32.693  0.00  0.00    -0.272 N 
ATOM     14  C   UNL d   1      56.502   0.262  33.379  0.00  0.00     0.240 C 
ATOM     15  C   UNL d   1      56.564  -0.365  32.083  0.00  0.00     0.102 A 
ATOM     16  O   UNL d   1      56.863   0.682  33.981  0.00  0.00    -0.272 OA
ATOM     17  C   UNL d   1      56.993  -0.560  31.412  0.00  0.00     0.101 A 
BRANCH  14  18
ATOM     18  C   UNL d   1      55.711   0.033  33.439  0.00  0.00     0.072 C 
ATOM     19  C   UNL d   1      55.131   0.573  33.232  0.00  0.00     0.009 C 
ATOM     20  C   UNL d   1      55.485  -0.724  33.702  0.00  0.00     0.009 C 
ATOM     21  C   UNL d   1      54.930  -0.232  33.513  0.00  0.00     0.009 C 
ENDBRANCH  14  18
ENDBRANCH   1  10
BRANCH   6  22
ATOM     22  O   UNL d   1      59.834   0.553  29.002  0.00  0.00    -0.327 OA
ATOM     23  C   UNL d   1      60.640   0.681  29.068  0.00  0.00     0.181 C 
ENDBRANCH   6  22
BRANCH   7  24
ATOM     24  O   UNL d   1      58.662  -2.511  29.103  0.00  0.00    -0.328 OA
ATOM     25  C   UNL d   1      59.040  -3.113  28.681  0.00  0.00     0.181 C 
ENDBRANCH   7  24
TORSDOF 4
ENDMDL
MODEL 2
REMARK VINA RESULT:      -2.9      1.221      5.084
REMARK  4 active torsions:
REMARK  status: ('A' for Active; 'I' for Inactive)
REMARK    1  A    between atoms: N_6  and  C_1 
REMARK       I    between atoms: C_7  and  N_8 
REMARK    2  A    between atoms: C_9  and  C_7 
REMARK    3  A    between atoms: O_20  and  C_10 
REMARK    4  A    between atoms: O_19  and  C_11 
ROOT
ATOM      1  C   UNL d   1      57.116   0.160  32.186  0.00  0.00     0.180 A 
ATOM      2  N   UNL d   1      57.506   0.320  32.896  0.00  0.00    -0.220 NA
ATOM      3  S   UNL d   1      56.299   0.164  32.345  0.00  0.00    -0.046 SA
ATOM      4  C   UNL d   1      56.943   0.421  33.485  0.00  0.00     0.114 A 
ATOM      5  C   UNL d   1      56.200   0.323  33.140  0.00  0.00     0.074 A 
ATOM      6  C   UNL d   1      57.005   0.586  34.279  0.00  0.00     0.112 A 
ATOM      7  C   UNL d   1      55.530   0.393  33.591  0.00  0.00     0.102 A 
ATOM      8  C   UNL d   1      55.590   0.560  34.397  0.00  0.00     0.027 A 
ATOM      9  C   UNL d   1      56.333   0.657  34.742  0.00  0.00     0.028 A 
ENDROOT
BRANCH   1  10
ATOM     10  N   UNL d   1      57.478   0.024  31.461  0.00  0.00    -0.281 N 
ATOM     11  C   UNL d   1      57.682   0.665  30.981  0.00  0.00     0.101 A 
ATOM     12  C   UNL d   1      58.047   0.545  30.250  0.00  0.00     0.102 A 
ATOM     13  N   UNL d   1      58.205  -0.232  30.006  0.00  0.00    -0.272 N 
ATOM     14  C   UNL d   1      58.573  -0.357  29.270  0.00  0.00     0.240 C 
ATOM     15  C   UNL d   1      58.000  -0.873  30.487  0.00  0.00     0.102 A 
ATOM     16  O   UNL d   1      58.775   0.277  28.794  0.00  0.00    -0.272 OA
ATOM     17  C   UNL d   1      57.638  -0.737  31.211  0.00  0.00     0.101 A 
BRANCH  14  18
ATOM     18  C   UNL d   1      58.729  -1.132  29.029  0.00  0.00     0.072 C 
ATOM     19  C   UNL d   1      58.126  -1.558  28.672  0.00  0.00     0.009 C 
ATOM     20  C   UNL d   1      59.472  -1.492  29.136  0.00  0.00     0.009 C 
ATOM     21  C   UNL d   1      58.921  -1.904  28.801  0.00  0.00     0.009 C 
ENDBRANCH  14  18
ENDBRANCH   1  10
BRANCH   6  22
ATOM     22  O   UNL d   1      57.745   0.682  34.621  0.00  0.00    -0.327 OA
ATOM     23  C   UNL d   1      57.818   0.679  35.437  0.00  0.00     0.181 C 
ENDBRANCH   6  22
BRANCH   7  24
ATOM     24  O   UNL d   1      54.789   0.296  33.249  0.00  0.00    -0.328 OA
ATOM     25  C   UNL d   1      54.109   0.523  33.660  0.00  0.00     0.181 C 
ENDBRANCH   7  24
TORSDOF 4
ENDMDL
MODEL 3
REMARK VINA RESULT:      -2.6      1.271      5.291
REMARK  4 active torsions:
REMARK  status: ('A' for Active; 'I' for Inactive)
REMARK    1  A    between atoms: N_6  and  C_1 
REMARK       I    between atoms: C_7  and  N_8 
REMARK    2  A    between atoms: C_9  and  C_7 
REMARK    3  A    between atoms: O_20  and  C_10 
REMARK    4  A    between atoms: O_19  and  C_11 
ROOT
ATOM      1  C   UNL d   1      56.916  -0.009  32.279  0.00  0.00     0.180 A 
ATOM      2  N   UNL d   1      56.103  -0.056  32.421  0.00  0.00    -0.220 NA
ATOM      3  S   UNL d   1      57.280   0.217  32.992  0.00  0.00    -0.046 SA
ATOM      4  C   UNL d   1      55.966   0.136  33.207  0.00  0.00     0.114 A 
ATOM      5  C   UNL d   1      56.694   0.304  33.555  0.00  0.00     0.074 A 
ATOM      6  C   UNL d   1      55.284   0.181  33.648  0.00  0.00     0.112 A 
ATOM      7  C   UNL d   1      56.732   0.514  34.337  0.00  0.00     0.102 A 
ATOM      8  C   UNL d   1      56.042   0.560  34.786  0.00  0.00     0.027 A 
ATOM      9  C   UNL d   1      55.313   0.392  34.438  0.00  0.00     0.028 A 
ENDROOT
BRANCH   1  10
ATOM     10  N   UNL d   1      57.285  -0.159  31.561  0.00  0.00    -0.281 N 
ATOM     11  C   UNL d   1      57.278  -0.926  31.251  0.00  0.00     0.101 A 
ATOM     12  C   UNL d   1      57.645  -1.093  30.530  0.00  0.00     0.102 A 
ATOM     13  N   UNL d   1      58.022  -0.476  30.123  0.00  0.00    -0.272 N 
ATOM     14  C   UNL d   1      58.393  -0.641  29.396  0.00  0.00     0.240 C 
ATOM     15  C   UNL d   1      58.029   0.290  30.433  0.00  0.00     0.102 A 
ATOM     16  O   UNL d   1      58.386  -1.400  29.089  0.00  0.00    -0.272 OA
ATOM     17  C   UNL d   1      57.659   0.441  31.150  0.00  0.00     0.101 A 
BRANCH  14  18
ATOM     18  C   UNL d   1      58.767  -0.026  28.991  0.00  0.00     0.072 C 
ATOM     19  C   UNL d   1      58.328   0.412  28.455  0.00  0.00     0.009 C 
ATOM     20  C   UNL d   1      59.570   0.163  29.109  0.00  0.00     0.009 C 
ATOM     21  C   UNL d   1      59.175   0.582  28.605  0.00  0.00     0.009 C 
ENDBRANCH  14  18
ENDBRANCH   1  10
BRANCH   6  22
ATOM     22  O   UNL d   1      54.559   0.014  33.300  0.00  0.00    -0.327 OA
ATOM     23  C   UNL d   1      53.881   0.008  33.759  0.00  0.00     0.181 C 
ENDBRANCH   6  22
BRANCH   7  24
ATOM     24  O   UNL d   1      57.457   0.682  34.685  0.00  0.00    -0.328 OA
ATOM     25  C   UNL d   1      57.537   0.663  35.508  0.00  0.00     0.181 C 
ENDBRANCH   7  24
TORSDOF 4
ENDMDL
MODEL 4
REMARK VINA RESULT:      -2.0      1.768      2.076
REMARK  4 active torsions:
REMARK  status: ('A' for Active; 'I' for Inactive)
REMARK    1  A    between atoms: N_6  and  C_1 
REMARK       I    between atoms: C_7  and  N_8 
REMARK    2  A    between atoms: C_9  and  C_7 
REMARK    3  A    between atoms: O_20  and  C_10 
REMARK    4  A    between atoms: O_19  and  C_11 
ROOT
ATOM      1  C   UNL d   1      57.738   0.664  31.930  0.00  0.00     0.180 A 
ATOM      2  N   UNL d   1      58.564   0.671  31.966  0.00  0.00    -0.220 NA
ATOM      3  S   UNL d   1      57.525   0.657  31.126  0.00  0.00    -0.046 SA
ATOM      4  C   UNL d   1      58.856   0.667  31.199  0.00  0.00     0.114 A 
ATOM      5  C   UNL d   1      58.212   0.659  30.685  0.00  0.00     0.074 A 
ATOM      6  C   UNL d   1      59.614   0.671  30.903  0.00  0.00     0.112 A 
ATOM      7  C   UNL d   1      58.332   0.654  29.883  0.00  0.00     0.102 A 
ATOM      8  C   UNL d   1      59.099   0.658  29.580  0.00  0.00     0.027 A 
ATOM      9  C   UNL d   1      59.744   0.666  30.094  0.00  0.00     0.028 A 
ENDROOT
BRANCH   1  10
ATOM     10  N   UNL d   1      57.231   0.665  32.576  0.00  0.00    -0.281 N 
ATOM     11  C   UNL d   1      57.546   0.678  33.341  0.00  0.00     0.101 A 
ATOM     12  C   UNL d   1      57.050   0.680  34.001  0.00  0.00     0.102 A 
ATOM     13  N   UNL d   1      56.229   0.667  33.883  0.00  0.00    -0.272 N 
ATOM     14  C   UNL d   1      55.725   0.668  34.546  0.00  0.00     0.240 C 
ATOM     15  C   UNL d   1      55.914   0.654  33.118  0.00  0.00     0.102 A 
ATOM     16  O   UNL d   1      56.036   0.682  35.302  0.00  0.00    -0.272 OA
ATOM     17  C   UNL d   1      56.421   0.653  32.472  0.00  0.00     0.101 A 
BRANCH  14  18
ATOM     18  C   UNL d   1      54.908   0.656  34.426  0.00  0.00     0.072 C 
ATOM     19  C   UNL d   1      54.627   0.635  33.656  0.00  0.00     0.009 C 
ATOM     20  C   UNL d   1      54.364   0.664  35.056  0.00  0.00     0.009 C 
ATOM     21  C   UNL d   1      54.084   0.644  34.344  0.00  0.00     0.009 C 
ENDBRANCH  14  18
ENDBRANCH   1  10
BRANCH   6  22
ATOM     22  O   UNL d   1      60.255   0.680  31.417  0.00  0.00    -0.327 OA
ATOM     23  C   UNL d   1      61.016   0.652  31.115  0.00  0.00     0.181 C 
ENDBRANCH   6  22
BRANCH   7  24
ATOM     24  O   UNL d   1      57.691   0.645  29.369  0.00  0.00    -0.328 OA
ATOM     25  C   UNL d   1      57.803   0.476  28.567  0.00  0.00     0.181 C 
ENDBRANCH   7  24
TORSDOF 4
ENDMDL
MODEL 5
REMARK VINA RESULT:      -1.6      9.024      9.485
REMARK  4 active torsions:
REMARK  status: ('A' for Active; 'I' for Inactive)
REMARK    1  A    between atoms: N_6  and  C_1 
REMARK       I    between atoms: C_7  and  N_8 
REMARK    2  A    between atoms: C_9  and  C_7 
REMARK    3  A    between atoms: O_20  and  C_10 
REMARK    4  A    between atoms: O_19  and  C_11 
ROOT
ATOM      1  C   UNL d   1      59.398  -9.591  31.398  0.00  0.00     0.180 A 
ATOM      2  N   UNL d   1      58.621  -9.662  31.124  0.00  0.00    -0.220 NA
ATOM      3  S   UNL d   1      59.896  -9.587  30.731  0.00  0.00    -0.046 SA
ATOM      4  C   UNL d   1      58.637  -9.701  30.304  0.00  0.00     0.114 A 
ATOM      5  C   UNL d   1      59.426  -9.654  30.067  0.00  0.00     0.074 A 
ATOM      6  C   UNL d   1      58.048  -9.771  29.749  0.00  0.00     0.112 A 
ATOM      7  C   UNL d   1      59.615  -9.678  29.279  0.00  0.00     0.102 A 
ATOM      8  C   UNL d   1      59.019  -9.750  28.713  0.00  0.00     0.027 A 
ATOM      9  C   UNL d   1      58.230  -9.797  28.951  0.00  0.00     0.028 A 
ENDROOT
BRANCH   1  10
ATOM     10  N   UNL d   1      59.624  -9.536  32.185  0.00  0.00    -0.281 N 
ATOM     11  C   UNL d   1      60.367  -9.818  32.417  0.00  0.00     0.101 A 
ATOM     12  C   UNL d   1      60.609  -9.770  33.205  0.00  0.00     0.102 A 
ATOM     13  N   UNL d   1      60.093  -9.433  33.760  0.00  0.00    -0.272 N 
ATOM     14  C   UNL d   1      60.334  -9.382  34.556  0.00  0.00     0.240 C 
ATOM     15  C   UNL d   1      59.351  -9.151  33.528  0.00  0.00     0.102 A 
ATOM     16  O   UNL d   1      61.068  -9.661  34.785  0.00  0.00    -0.272 OA
ATOM     17  C   UNL d   1      59.125  -9.206  32.741  0.00  0.00     0.101 A 
BRANCH  14  18
ATOM     18  C   UNL d   1      59.819  -9.047  35.107  0.00  0.00     0.072 C 
ATOM     19  C   UNL d   1      59.913  -8.255  35.298  0.00  0.00     0.009 C 
ATOM     20  C   UNL d   1      59.212  -9.482  35.474  0.00  0.00     0.009 C 
ATOM     21  C   UNL d   1      59.285  -8.745  35.664  0.00  0.00     0.009 C 
ENDBRANCH  14  18
ENDBRANCH   1  10
BRANCH   6  22
ATOM     22  O   UNL d   1      57.263  -9.818  29.987  0.00  0.00    -0.327 OA
ATOM     23  C   UNL d   1      56.667  -9.647  29.452  0.00  0.00     0.181 C 
ENDBRANCH   6  22
BRANCH   7  24
ATOM     24  O   UNL d   1      60.400  -9.631  29.040  0.00  0.00    -0.328 OA
ATOM     25  C   UNL d   1      60.665  -8.978  28.609  0.00  0.00     0.181 C 
ENDBRANCH   7  24
TORSDOF 4
ENDMDL
