MODEL 1
REMARK VINA RESULT:       4.1      0.000      0.000
REMARK  4 active torsions:
REMARK  status: ('A' for Active; 'I' for Inactive)
REMARK    1  A    between atoms: N_10  and  C_3 
REMARK    2  A    between atoms: C_12  and  C_5 
REMARK    3  A    between atoms: C_11  and  C_8 
REMARK    4  A    between atoms: C_13  and  N_10 
ROOT
ATOM      1  C   UNL d   1     -41.804-122.387 -51.750  0.00  0.00     0.168 A 
ATOM      2  N   UNL d   1     -41.855-122.460 -52.583  0.00  0.00    -0.184 N 
ATOM      3  C   UNL d   1     -41.724-121.805 -53.035  0.00  0.00     0.217 A 
ATOM      4  N   UNL d   1     -41.625-121.663 -51.416  0.00  0.00    -0.231 NA
ATOM      5  C   UNL d   1     -41.932-123.030 -51.277  0.00  0.00     0.057 A 
ATOM      6  N   UNL d   1     -42.159-123.817 -52.432  0.00  0.00    -0.160 NA
ATOM      7  C   UNL d   1     -41.544-121.075 -52.711  0.00  0.00     0.067 A 
ATOM      8  C   UNL d   1     -41.494-121.002 -51.891  0.00  0.00     0.064 A 
ATOM      9  C   UNL d   1     -42.109-123.745 -51.612  0.00  0.00     0.124 A 
ENDROOT
BRANCH   5  10
ATOM     10  C   UNL d   1     -41.882-122.958 -50.457  0.00  0.00     0.004 A 
ATOM     11  C   UNL d   1     -42.534-122.712 -50.044  0.00  0.00     0.000 A 
ATOM     12  C   UNL d   1     -42.484-122.639 -49.223  0.00  0.00     0.000 A 
ATOM     13  C   UNL d   1     -41.784-122.815 -48.842  0.00  0.00     0.000 A 
ATOM     14  C   UNL d   1     -41.141-123.060 -49.268  0.00  0.00     0.000 A 
ATOM     15  C   UNL d   1     -41.191-123.133 -50.088  0.00  0.00     0.000 A 
ENDBRANCH   5  10
BRANCH   3  16
ATOM     16  N   UNL d   1     -41.775-121.880 -53.882  0.00  0.00    -0.383 NA
BRANCH  16  17
ATOM     17  C   UNL d   1     -41.822-121.954 -54.723  0.00  0.00     0.134 C 
ATOM     18  C   UNL d   1     -41.237-122.406 -55.137  0.00  0.00     0.035 C 
ATOM     19  C   UNL d   1     -42.457-121.572 -55.148  0.00  0.00     0.035 C 
ENDBRANCH  16  17
ENDBRANCH   3  16
BRANCH   8  20
ATOM     20  C   UNL d   1     -41.307-120.248 -51.538  0.00  0.00     0.036 C 
ATOM     21  C   UNL d   1     -41.240-119.558 -52.030  0.00  0.00     0.006 C 
ATOM     22  C   UNL d   1     -41.189-120.191 -50.693  0.00  0.00     0.006 C 
ATOM     23  C   UNL d   1     -41.123-119.506 -51.185  0.00  0.00     0.006 C 
ENDBRANCH   8  20
TORSDOF 4
ENDMDL
MODEL 2
REMARK VINA RESULT:       4.2      0.800      3.591
REMARK  4 active torsions:
REMARK  status: ('A' for Active; 'I' for Inactive)
REMARK    1  A    between atoms: N_10  and  C_3 
REMARK    2  A    between atoms: C_12  and  C_5 
REMARK    3  A    between atoms: C_11  and  C_8 
REMARK    4  A    between atoms: C_13  and  N_10 
ROOT
ATOM      1  C   UNL d   1     -41.658-122.215 -52.489  0.00  0.00     0.168 A 
ATOM      2  N   UNL d   1     -41.634-122.605 -51.748  0.00  0.00    -0.184 N 
ATOM      3  C   UNL d   1     -41.486-122.166 -51.088  0.00  0.00     0.217 A 
ATOM      4  N   UNL d   1     -41.532-121.408 -52.528  0.00  0.00    -0.231 NA
ATOM      5  C   UNL d   1     -41.805-122.635 -53.164  0.00  0.00     0.057 A 
ATOM      6  N   UNL d   1     -41.905-123.817 -52.391  0.00  0.00    -0.160 NA
ATOM      7  C   UNL d   1     -41.358-121.357 -51.115  0.00  0.00     0.067 A 
ATOM      8  C   UNL d   1     -41.382-120.973 -51.845  0.00  0.00     0.064 A 
ATOM      9  C   UNL d   1     -41.929-123.433 -53.121  0.00  0.00     0.124 A 
ENDROOT
BRANCH   5  10
ATOM     10  C   UNL d   1     -41.829-122.251 -53.894  0.00  0.00     0.004 A 
ATOM     11  C   UNL d   1     -42.515-121.888 -54.125  0.00  0.00     0.000 A 
ATOM     12  C   UNL d   1     -42.538-121.504 -54.855  0.00  0.00     0.000 A 
ATOM     13  C   UNL d   1     -41.875-121.496 -55.331  0.00  0.00     0.000 A 
ATOM     14  C   UNL d   1     -41.197-121.863 -55.087  0.00  0.00     0.000 A 
ATOM     15  C   UNL d   1     -41.173-122.246 -54.357  0.00  0.00     0.000 A 
ENDBRANCH   5  10
BRANCH   3  16
ATOM     16  N   UNL d   1     -41.461-122.562 -50.334  0.00  0.00    -0.383 NA
BRANCH  16  17
ATOM     17  C   UNL d   1     -41.433-122.954 -49.585  0.00  0.00     0.134 C 
ATOM     18  C   UNL d   1     -41.156-123.754 -49.541  0.00  0.00     0.035 C 
ATOM     19  C   UNL d   1     -41.685-122.541 -48.880  0.00  0.00     0.035 C 
ENDBRANCH  16  17
ENDBRANCH   3  16
BRANCH   8  20
ATOM     20  C   UNL d   1     -41.251-120.131 -51.890  0.00  0.00     0.036 C 
ATOM     21  C   UNL d   1     -41.153-119.681 -51.175  0.00  0.00     0.006 C 
ATOM     22  C   UNL d   1     -41.220-119.746 -52.653  0.00  0.00     0.006 C 
ATOM     23  C   UNL d   1     -41.123-119.300 -51.940  0.00  0.00     0.006 C 
ENDBRANCH   8  20
TORSDOF 4
ENDMDL
