MODEL 1
REMARK VINA RESULT:      68.3      0.000      0.000
REMARK  3 active torsions:
REMARK  status: ('A' for Active; 'I' for Inactive)
REMARK    1  A    between atoms: C_10  and  N_2 
REMARK       I    between atoms: N_3  and  C_6 
REMARK    2  A    between atoms: C_6  and  C_11 
REMARK    3  A    between atoms: C_11  and  C_10 
ROOT
ATOM      1  N   UNL d   1     -48.959  28.080  35.047  0.00  0.00    -0.275 N 
ATOM      2  C   UNL d   1     -49.208  27.810  35.785  0.00  0.00     0.067 A 
ATOM      3  C   UNL d   1     -49.187  27.779  34.319  0.00  0.00     0.266 C 
ATOM      4  C   UNL d   1     -48.437  28.709  35.181  0.00  0.00     0.067 A 
ATOM      5  C   UNL d   1     -48.369  28.821  35.985  0.00  0.00     0.018 A 
ATOM      6  C   UNL d   1     -48.849  28.261  36.366  0.00  0.00     0.019 A 
ATOM      7  O   UNL d   1     -48.887  28.112  33.625  0.00  0.00    -0.267 OA
ATOM      8  C   UNL d   1     -49.740  27.178  35.917  0.00  0.00     0.019 C 
ATOM      9  C   UNL d   1     -48.016  29.192  34.658  0.00  0.00     0.018 A 
ATOM     10  C   UNL d   1     -47.889  29.406  36.292  0.00  0.00     0.002 A 
ATOM     11  C   UNL d   1     -47.531  29.784  34.949  0.00  0.00     0.002 A 
ATOM     12  C   UNL d   1     -47.459  29.900  35.771  0.00  0.00     0.000 A 
ENDROOT
BRANCH   3  13
ATOM     13  C   UNL d   1     -49.714  27.147  34.273  0.00  0.00     0.080 C 
BRANCH  13  14
ATOM     14  C   UNL d   1     -49.920  26.826  33.545  0.00  0.00     0.088 C 
BRANCH  14  15
ATOM     15  N   UNL d   1     -50.621  26.401  33.462  0.00  0.00    -0.268 N 
ATOM     16  C   UNL d   1     -51.375  26.719  33.383  0.00  0.00     0.296 A 
ATOM     17  S   UNL d   1     -51.913  26.056  33.314  0.00  0.00    -0.025 SA
ATOM     18  O   UNL d   1     -51.562  27.523  33.374  0.00  0.00    -0.259 OA
ATOM     19  C   UNL d   1     -51.483  25.390  33.352  0.00  0.00     0.050 A 
ATOM     20  C   UNL d   1     -51.721  24.597  33.314  0.00  0.00     0.008 A 
ATOM     21  C   UNL d   1     -50.685  25.578  33.443  0.00  0.00     0.073 A 
ATOM     22  C   UNL d   1     -51.156  23.991  33.367  0.00  0.00     0.001 A 
ATOM     23  C   UNL d   1     -50.361  24.190  33.458  0.00  0.00     0.002 A 
ATOM     24  C   UNL d   1     -50.127  24.983  33.496  0.00  0.00     0.018 A 
ENDBRANCH  14  15
ENDBRANCH  13  14
ENDBRANCH   3  13
TORSDOF 3
ENDMDL
MODEL 2
REMARK VINA RESULT:      68.5      1.271      4.764
REMARK  3 active torsions:
REMARK  status: ('A' for Active; 'I' for Inactive)
REMARK    1  A    between atoms: C_10  and  N_2 
REMARK       I    between atoms: N_3  and  C_6 
REMARK    2  A    between atoms: C_6  and  C_11 
REMARK    3  A    between atoms: C_11  and  C_10 
ROOT
ATOM      1  N   UNL d   1     -51.064  25.466  33.330  0.00  0.00    -0.275 N 
ATOM      2  C   UNL d   1     -50.325  25.103  33.317  0.00  0.00     0.067 A 
ATOM      3  C   UNL d   1     -51.206  26.274  33.343  0.00  0.00     0.266 C 
ATOM      4  C   UNL d   1     -51.632  24.864  33.326  0.00  0.00     0.067 A 
ATOM      5  C   UNL d   1     -51.248  24.146  33.312  0.00  0.00     0.018 A 
ATOM      6  C   UNL d   1     -50.431  24.291  33.306  0.00  0.00     0.019 A 
ATOM      7  O   UNL d   1     -51.983  26.554  33.354  0.00  0.00    -0.267 OA
ATOM      8  C   UNL d   1     -49.588  25.498  33.316  0.00  0.00     0.019 C 
ATOM      9  C   UNL d   1     -52.459  24.891  33.335  0.00  0.00     0.018 A 
ATOM     10  C   UNL d   1     -51.663  23.443  33.306  0.00  0.00     0.002 A 
ATOM     11  C   UNL d   1     -52.891  24.196  33.329  0.00  0.00     0.002 A 
ATOM     12  C   UNL d   1     -52.500  23.460  33.314  0.00  0.00     0.000 A 
ENDROOT
BRANCH   3  13
ATOM     13  C   UNL d   1     -50.579  26.810  33.344  0.00  0.00     0.080 C 
BRANCH  13  14
ATOM     14  C   UNL d   1     -50.311  27.136  34.049  0.00  0.00     0.088 C 
BRANCH  14  15
ATOM     15  N   UNL d   1     -49.988  27.894  34.059  0.00  0.00    -0.268 N 
ATOM     16  C   UNL d   1     -50.319  28.567  33.722  0.00  0.00     0.296 A 
ATOM     17  S   UNL d   1     -49.776  29.211  33.882  0.00  0.00    -0.025 SA
ATOM     18  O   UNL d   1     -51.034  28.601  33.313  0.00  0.00    -0.259 OA
ATOM     19  C   UNL d   1     -49.164  28.916  34.291  0.00  0.00     0.050 A 
ATOM     20  C   UNL d   1     -48.487  29.293  34.586  0.00  0.00     0.008 A 
ATOM     21  C   UNL d   1     -49.272  28.107  34.413  0.00  0.00     0.073 A 
ATOM     22  C   UNL d   1     -47.917  28.856  35.004  0.00  0.00     0.001 A 
ATOM     23  C   UNL d   1     -48.036  28.048  35.119  0.00  0.00     0.002 A 
ATOM     24  C   UNL d   1     -48.714  27.676  34.823  0.00  0.00     0.018 A 
ENDBRANCH  14  15
ENDBRANCH  13  14
ENDBRANCH   3  13
TORSDOF 3
ENDMDL
