MODEL 1
REMARK VINA RESULT:      44.8      0.000      0.000
REMARK  3 active torsions:
REMARK  status: ('A' for Active; 'I' for Inactive)
REMARK    1  A    between atoms: C_9  and  C_3 
REMARK    2  A    between atoms: N_10  and  C_9 
REMARK    3  A    between atoms: C_11  and  C_9 
ROOT
ATOM      1  C   UNL d   1     -58.074 -98.839 -44.856  0.00  0.00     0.075 C 
ENDROOT
BRANCH   1   2
ATOM      2  C   UNL d   1     -58.444 -98.823 -44.120  0.00  0.00     0.106 A 
ATOM      3  C   UNL d   1     -58.063 -98.785 -43.381  0.00  0.00     0.289 A 
ATOM      4  N   UNL d   1     -58.640 -98.782 -42.796  0.00  0.00    -0.169 N 
ATOM      5  O   UNL d   1     -57.246 -98.756 -43.260  0.00  0.00    -0.265 OA
ATOM      6  C   UNL d   1     -59.377 -98.817 -43.166  0.00  0.00     0.200 A 
ATOM      7  N   UNL d   1     -58.768 -98.756 -41.987  0.00  0.00    -0.141 NA
ATOM      8  S   UNL d   1     -59.258 -98.843 -43.979  0.00  0.00    -0.042 SA
ATOM      9  N   UNL d   1     -59.955 -98.814 -42.581  0.00  0.00    -0.200 NA
ATOM     10  C   UNL d   1     -59.579 -98.776 -41.851  0.00  0.00     0.184 A 
ATOM     11  C   UNL d   1     -59.942 -98.761 -41.110  0.00  0.00     0.044 C 
ENDBRANCH   1   2
BRANCH   1  12
ATOM     12  N   UNL d   1     -58.533 -98.842 -45.538  0.00  0.00    -0.300 N 
ATOM     13  C   UNL d   1     -59.348 -98.856 -45.484  0.00  0.00     0.107 A 
ATOM     14  C   UNL d   1     -59.805 -98.859 -46.178  0.00  0.00     0.142 A 
ATOM     15  O   UNL d   1     -59.442 -98.848 -46.918  0.00  0.00    -0.300 OA
ATOM     16  C   UNL d   1     -58.618 -98.834 -46.954  0.00  0.00     0.142 A 
ATOM     17  C   UNL d   1     -58.161 -98.831 -46.269  0.00  0.00     0.107 A 
ENDBRANCH   1  12
BRANCH   1  18
ATOM     18  C   UNL d   1     -57.256 -98.850 -44.905  0.00  0.00     0.017 A 
ATOM     19  C   UNL d   1     -56.890 -98.919 -45.641  0.00  0.00     0.002 A 
ATOM     20  C   UNL d   1     -56.061 -98.931 -45.692  0.00  0.00     0.000 A 
ATOM     21  C   UNL d   1     -55.620 -98.875 -45.013  0.00  0.00     0.000 A 
ATOM     22  C   UNL d   1     -55.996 -98.806 -44.278  0.00  0.00     0.000 A 
ATOM     23  C   UNL d   1     -54.780 -98.885 -45.050  0.00  0.00     0.000 C 
ATOM     24  C   UNL d   1     -56.803 -98.794 -44.230  0.00  0.00     0.002 A 
ENDBRANCH   1  18
TORSDOF 3
ENDMDL
