MODEL 1
REMARK VINA RESULT:      46.7      0.000      0.000
REMARK  4 active torsions:
REMARK  status: ('A' for Active; 'I' for Inactive)
REMARK    1  A    between atoms: N_3  and  C_8 
REMARK    2  A    between atoms: S_11  and  C_4 
REMARK    3  A    between atoms: C_15  and  S_11 
REMARK    4  A    between atoms: C_16  and  C_15 
ROOT
ATOM      1  C   UNL d   1     -49.251  27.465  34.573  0.00  0.00     0.037 C 
ENDROOT
BRANCH   1   2
ATOM      2  S   UNL d   1     -49.532  27.365  33.808  0.00  0.00    -0.067 SA
BRANCH   2   3
ATOM      3  C   UNL d   1     -50.048  26.740  33.642  0.00  0.00     0.117 A 
ATOM      4  N   UNL d   1     -49.760  25.979  33.558  0.00  0.00    -0.184 NA
ATOM      5  C   UNL d   1     -50.276  25.354  33.391  0.00  0.00     0.369 A 
ATOM      6  N   UNL d   1     -51.078  25.491  33.309  0.00  0.00    -0.191 NA
ATOM      7  O   UNL d   1     -49.983  24.587  33.307  0.00  0.00    -0.242 OA
ATOM      8  C   UNL d   1     -51.372  26.257  33.393  0.00  0.00     0.088 A 
ATOM      9  C   UNL d   1     -50.856  26.882  33.559  0.00  0.00     0.045 A 
ATOM     10  C   UNL d   1     -52.186  26.404  33.311  0.00  0.00     0.021 C 
ENDBRANCH   2   3
ENDBRANCH   1   2
BRANCH   1  11
ATOM     11  C   UNL d   1     -48.836  28.141  34.783  0.00  0.00     0.007 A 
ATOM     12  C   UNL d   1     -48.789  28.791  34.273  0.00  0.00     0.002 A 
ATOM     13  C   UNL d   1     -48.375  29.460  34.485  0.00  0.00     0.024 A 
ATOM     14  C   UNL d   1     -47.999  29.489  35.216  0.00  0.00     0.127 A 
ATOM     15  C   UNL d   1     -48.039  28.857  35.723  0.00  0.00     0.024 A 
ATOM     16  C   UNL d   1     -48.456  28.174  35.518  0.00  0.00     0.002 A 
BRANCH  14  17
ATOM     17  N   UNL d   1     -47.579  30.162  35.439  0.00  0.00    -0.114 N 
ATOM     18  O   UNL d   1     -47.541  30.815  34.940  0.00  0.00    -0.532 OA
ATOM     19  O   UNL d   1     -47.195  30.176  36.169  0.00  0.00    -0.532 OA
ENDBRANCH  14  17
ENDBRANCH   1  11
TORSDOF 4
ENDMDL
