MODEL 1
REMARK VINA RESULT:      -3.6      0.000      0.000
REMARK  6 active torsions:
REMARK  status: ('A' for Active; 'I' for Inactive)
REMARK    1  A    between atoms: C_2  and  S_1 
REMARK    2  A    between atoms: N_5  and  S_1 
REMARK    3  A    between atoms: C_14  and  N_5 
REMARK    4  A    between atoms: C_7  and  C_6 
REMARK    5  A    between atoms: C_19  and  C_14 
REMARK    6  A    between atoms: O_18  and  C_19 
ROOT
ATOM      1  C   UNL d   1     -41.485-121.970 -51.750  0.00  0.00     0.105 A 
ATOM      2  C   UNL d   1     -41.842-122.593 -50.250  0.00  0.00     0.000 A 
ATOM      3  C   UNL d   1     -41.127-122.669 -51.497  0.00  0.00     0.013 A 
ATOM      4  C   UNL d   1     -42.020-121.581 -51.257  0.00  0.00     0.013 A 
ATOM      5  C   UNL d   1     -42.199-121.894 -50.503  0.00  0.00     0.001 A 
ATOM      6  C   UNL d   1     -41.307-122.982 -50.743  0.00  0.00     0.001 A 
ENDROOT
BRANCH   1   7
ATOM      7  S   UNL d   1     -41.310-121.658 -52.494  0.00  0.00     0.285 S 
ATOM      8  O   UNL d   1     -41.136-121.344 -53.230  0.00  0.00    -0.198 OA
ATOM      9  O   UNL d   1     -41.144-120.928 -52.153  0.00  0.00    -0.198 OA
BRANCH   7  10
ATOM     10  N   UNL d   1     -41.474-122.382 -52.838  0.00  0.00    -0.155 NA
BRANCH  10  11
ATOM     11  C   UNL d   1     -41.507-122.453 -53.666  0.00  0.00     0.138 C 
BRANCH  11  12
ATOM     12  C   UNL d   1     -41.471-123.196 -54.011  0.00  0.00     0.138 C 
BRANCH  12  13
ATOM     13  O   UNL d   1     -41.711-123.304 -54.799  0.00  0.00    -0.325 OA
ATOM     14  C   UNL d   1     -42.406-123.705 -54.974  0.00  0.00     0.182 C 
ENDBRANCH  12  13
ENDBRANCH  11  12
ENDBRANCH  10  11
ENDBRANCH   7  10
ENDBRANCH   1   7
BRANCH   2  15
ATOM     15  C   UNL d   1     -42.020-122.896 -49.512  0.00  0.00     0.000 A 
ATOM     16  C   UNL d   1     -41.476-122.823 -48.896  0.00  0.00     0.000 A 
ATOM     17  C   UNL d   1     -41.648-123.127 -48.147  0.00  0.00     0.000 A 
ATOM     18  C   UNL d   1     -42.381-123.509 -48.019  0.00  0.00     0.000 A 
ATOM     19  C   UNL d   1     -42.925-123.582 -48.635  0.00  0.00     0.000 A 
ATOM     20  C   UNL d   1     -42.557-123.814 -47.272  0.00  0.00     0.000 C 
ATOM     21  C   UNL d   1     -42.749-123.278 -49.382  0.00  0.00     0.000 A 
ENDBRANCH   2  15
TORSDOF 6
ENDMDL
