MODEL 1
REMARK VINA RESULT:      -3.1      0.000      0.000
REMARK  5 active torsions:
REMARK  status: ('A' for Active; 'I' for Inactive)
REMARK    1  A    between atoms: C_4  and  C_1 
REMARK    2  A    between atoms: C_3  and  N_8 
REMARK       I    between atoms: N_8  and  C_4 
REMARK    3  A    between atoms: C_13  and  C_6 
REMARK    4  A    between atoms: C_14  and  C_10 
REMARK    5  A    between atoms: C_20  and  C_14 
ROOT
ATOM      1  C   UNL d   1      32.950  19.857 -23.015  0.00  0.00     0.083 A 
ATOM      2  C   UNL d   1      32.743  19.071 -22.839  0.00  0.00     0.032 A 
ATOM      3  C   UNL d   1      32.707  18.656 -23.545  0.00  0.00     0.100 A 
ATOM      4  C   UNL d   1      33.038  19.910 -23.841  0.00  0.00     0.105 A 
ATOM      5  O   UNL d   1      32.886  19.164 -24.162  0.00  0.00    -0.307 OA
ATOM      6  C   UNL d   1      33.241  20.596 -24.253  0.00  0.00     0.027 C 
ENDROOT
BRANCH   1   7
ATOM      7  C   UNL d   1      33.050  20.474 -22.473  0.00  0.00     0.283 C 
ATOM      8  N   UNL d   1      32.960  20.335 -21.674  0.00  0.00    -0.181 NA
ATOM      9  O   UNL d   1      33.241  21.226 -22.752  0.00  0.00    -0.265 OA
BRANCH   8  10
ATOM     10  C   UNL d   1      33.060  20.952 -21.136  0.00  0.00     0.216 A 
ATOM     11  N   UNL d   1      33.073  21.746 -21.319  0.00  0.00    -0.200 NA
ATOM     12  C   UNL d   1      33.185  22.165 -20.626  0.00  0.00     0.175 A 
ATOM     13  N   UNL d   1      33.241  21.620 -20.010  0.00  0.00    -0.187 NA
ATOM     14  S   UNL d   1      33.163  20.872 -20.330  0.00  0.00     0.054 SA
BRANCH  12  15
ATOM     15  C   UNL d   1      33.233  22.977 -20.553  0.00  0.00     0.082 C 
BRANCH  15  16
ATOM     16  C   UNL d   1      32.609  23.394 -20.213  0.00  0.00     0.199 C 
ATOM     17  O   UNL d   1      31.915  23.520 -20.636  0.00  0.00    -0.286 OA
ATOM     18  C   UNL d   1      32.680  23.687 -19.450  0.00  0.00     0.045 C 
ENDBRANCH  15  16
ENDBRANCH  12  15
ENDBRANCH   8  10
ENDBRANCH   1   7
BRANCH   3  19
ATOM     19  C   UNL d   1      32.522  17.863 -23.623  0.00  0.00     0.024 A 
ATOM     20  C   UNL d   1      31.798  17.640 -23.957  0.00  0.00     0.014 A 
ATOM     21  C   UNL d   1      31.616  16.835 -24.034  0.00  0.00     0.068 A 
ATOM     22 CL   UNL d   1      30.895  16.617 -24.366  0.00  0.00    -0.082 Cl
ATOM     23  C   UNL d   1      32.148  16.257 -23.781  0.00  0.00     0.068 A 
ATOM     24  C   UNL d   1      32.869  16.475 -23.449  0.00  0.00     0.012 A 
ATOM     25 CL   UNL d   1      31.954  15.453 -23.863  0.00  0.00    -0.082 Cl
ATOM     26  C   UNL d   1      33.061  17.277 -23.368  0.00  0.00     0.003 A 
ENDBRANCH   3  19
TORSDOF 5
ENDMDL
MODEL 2
REMARK VINA RESULT:      -2.3      1.881      2.832
REMARK  5 active torsions:
REMARK  status: ('A' for Active; 'I' for Inactive)
REMARK    1  A    between atoms: C_4  and  C_1 
REMARK    2  A    between atoms: C_3  and  N_8 
REMARK       I    between atoms: N_8  and  C_4 
REMARK    3  A    between atoms: C_13  and  C_6 
REMARK    4  A    between atoms: C_14  and  C_10 
REMARK    5  A    between atoms: C_20  and  C_14 
ROOT
ATOM      1  C   UNL d   1      32.746  21.816 -21.310  0.00  0.00     0.083 A 
ATOM      2  C   UNL d   1      32.897  20.998 -21.286  0.00  0.00     0.032 A 
ATOM      3  C   UNL d   1      32.817  20.705 -22.047  0.00  0.00     0.100 A 
ATOM      4  C   UNL d   1      32.573  22.011 -22.100  0.00  0.00     0.105 A 
ATOM      5  O   UNL d   1      32.619  21.320 -22.550  0.00  0.00    -0.307 OA
ATOM      6  C   UNL d   1      32.389  22.769 -22.371  0.00  0.00     0.027 C 
ENDROOT
BRANCH   1   7
ATOM      7  C   UNL d   1      32.763  22.339 -20.670  0.00  0.00     0.283 C 
ATOM      8  N   UNL d   1      32.790  22.052 -19.906  0.00  0.00    -0.181 NA
ATOM      9  O   UNL d   1      32.752  23.151 -20.815  0.00  0.00    -0.265 OA
BRANCH   8  10
ATOM     10  C   UNL d   1      32.807  22.576 -19.271  0.00  0.00     0.216 A 
ATOM     11  N   UNL d   1      32.393  22.493 -18.573  0.00  0.00    -0.200 NA
ATOM     12  C   UNL d   1      32.568  23.133 -18.095  0.00  0.00     0.175 A 
ATOM     13  N   UNL d   1      33.096  23.615 -18.506  0.00  0.00    -0.187 NA
ATOM     14  S   UNL d   1      33.240  23.267 -19.231  0.00  0.00     0.054 SA
BRANCH  12  15
ATOM     15  C   UNL d   1      32.275  23.274 -17.347  0.00  0.00     0.082 C 
BRANCH  15  16
ATOM     16  C   UNL d   1      32.725  23.073 -16.687  0.00  0.00     0.199 C 
ATOM     17  O   UNL d   1      32.693  22.311 -16.379  0.00  0.00    -0.286 OA
ATOM     18  C   UNL d   1      33.207  23.636 -16.334  0.00  0.00     0.045 C 
ENDBRANCH  15  16
ENDBRANCH  12  15
ENDBRANCH   8  10
ENDBRANCH   1   7
BRANCH   3  19
ATOM     19  C   UNL d   1      32.919  19.924 -22.271  0.00  0.00     0.024 A 
ATOM     20  C   UNL d   1      32.869  19.715 -23.071  0.00  0.00     0.014 A 
ATOM     21  C   UNL d   1      32.973  18.923 -23.291  0.00  0.00     0.068 A 
ATOM     22 CL   UNL d   1      32.923  18.718 -24.086  0.00  0.00    -0.082 Cl
ATOM     23  C   UNL d   1      33.125  18.344 -22.722  0.00  0.00     0.068 A 
ATOM     24  C   UNL d   1      33.175  18.549 -21.926  0.00  0.00     0.012 A 
ATOM     25 CL   UNL d   1      33.227  17.553 -22.955  0.00  0.00    -0.082 Cl
ATOM     26  C   UNL d   1      33.073  19.337 -21.695  0.00  0.00     0.003 A 
ENDBRANCH   3  19
TORSDOF 5
ENDMDL
MODEL 3
REMARK VINA RESULT:      -2.1      2.884      5.519
REMARK  5 active torsions:
REMARK  status: ('A' for Active; 'I' for Inactive)
REMARK    1  A    between atoms: C_4  and  C_1 
REMARK    2  A    between atoms: C_3  and  N_8 
REMARK       I    between atoms: N_8  and  C_4 
REMARK    3  A    between atoms: C_13  and  C_6 
REMARK    4  A    between atoms: C_14  and  C_10 
REMARK    5  A    between atoms: C_20  and  C_14 
ROOT
ATOM      1  C   UNL d   1      33.062  20.828 -22.806  0.00  0.00     0.083 A 
ATOM      2  C   UNL d   1      33.026  20.836 -21.975  0.00  0.00     0.032 A 
ATOM      3  C   UNL d   1      33.088  21.615 -21.728  0.00  0.00     0.100 A 
ATOM      4  C   UNL d   1      33.147  21.617 -23.056  0.00  0.00     0.105 A 
ATOM      5  O   UNL d   1      33.162  22.098 -22.384  0.00  0.00    -0.307 OA
ATOM      6  C   UNL d   1      33.205  21.862 -23.843  0.00  0.00     0.027 C 
ENDROOT
BRANCH   1   7
ATOM      7  C   UNL d   1      33.022  20.163 -23.296  0.00  0.00     0.283 C 
ATOM      8  N   UNL d   1      32.767  19.448 -22.995  0.00  0.00    -0.181 NA
ATOM      9  O   UNL d   1      33.241  20.233 -24.087  0.00  0.00    -0.265 OA
BRANCH   8  10
ATOM     10  C   UNL d   1      32.727  18.787 -23.485  0.00  0.00     0.216 A 
ATOM     11  N   UNL d   1      32.282  18.118 -23.347  0.00  0.00    -0.200 NA
ATOM     12  C   UNL d   1      32.403  17.600 -23.968  0.00  0.00     0.175 A 
ATOM     13  N   UNL d   1      32.929  17.956 -24.494  0.00  0.00    -0.187 NA
ATOM     14  S   UNL d   1      33.126  18.689 -24.190  0.00  0.00     0.054 SA
BRANCH  12  15
ATOM     15  C   UNL d   1      32.066  16.862 -24.056  0.00  0.00     0.082 C 
BRANCH  15  16
ATOM     16  C   UNL d   1      31.247  16.780 -24.033  0.00  0.00     0.199 C 
ATOM     17  O   UNL d   1      30.768  17.258 -24.502  0.00  0.00    -0.286 OA
ATOM     18  C   UNL d   1      30.905  16.220 -23.540  0.00  0.00     0.045 C 
ENDBRANCH  15  16
ENDBRANCH  12  15
ENDBRANCH   8  10
ENDBRANCH   1   7
BRANCH   3  19
ATOM     19  C   UNL d   1      33.078  21.870 -20.950  0.00  0.00     0.024 A 
ATOM     20  C   UNL d   1      32.905  22.662 -20.779  0.00  0.00     0.014 A 
ATOM     21  C   UNL d   1      32.896  22.915 -19.990  0.00  0.00     0.068 A 
ATOM     22 CL   UNL d   1      32.724  23.702 -19.823  0.00  0.00    -0.082 Cl
ATOM     23  C   UNL d   1      33.057  22.386 -19.376  0.00  0.00     0.068 A 
ATOM     24  C   UNL d   1      33.229  21.599 -19.543  0.00  0.00     0.012 A 
ATOM     25 CL   UNL d   1      33.044  22.652 -18.589  0.00  0.00    -0.082 Cl
ATOM     26  C   UNL d   1      33.241  21.335 -20.328  0.00  0.00     0.003 A 
ENDBRANCH   3  19
TORSDOF 5
ENDMDL
