MODEL 1
REMARK VINA RESULT:      -9.1      0.000      0.000
REMARK  8 active torsions:
REMARK  status: ('A' for Active; 'I' for Inactive)
REMARK       I    between atoms: N_3  and  C_1 
REMARK    1  A    between atoms: C_11  and  C_1 
REMARK    2  A    between atoms: C_7  and  N_3 
REMARK    3  A    between atoms: C_5  and  O_8 
REMARK    4  A    between atoms: C_12  and  C_7 
REMARK    5  A    between atoms: O_8  and  C_15 
REMARK    6  A    between atoms: C_9  and  C_12 
REMARK    7  A    between atoms: C_19  and  C_11 
REMARK    8  A    between atoms: C_15  and  C_19 
ROOT
ATOM      1  C   UNL d   1      53.913  34.187  54.840  0.00  0.00     0.328 C 
ATOM      2  O   UNL d   1      54.555  34.699  54.920  0.00  0.00    -0.251 OA
ATOM      3  N   UNL d   1      53.206  34.460  54.501  0.00  0.00    -0.362 NA
ENDROOT
BRANCH   1   4
ATOM      4  C   UNL d   1      53.974  33.405  55.095  0.00  0.00     0.078 C 
BRANCH   4   5
ATOM      5  C   UNL d   1      54.327  32.841  54.618  0.00  0.00     0.033 C 
BRANCH   5   6
ATOM      6  C   UNL d   1      53.988  32.095  54.535  0.00  0.00     0.123 C 
BRANCH   6   7
ATOM      7  O   UNL d   1      54.150  31.637  53.869  0.00  0.00    -0.305 OA
BRANCH   7   8
ATOM      8  C   UNL d   1      53.667  30.999  53.677  0.00  0.00     0.100 A 
ATOM      9  C   UNL d   1      53.716  30.292  54.110  0.00  0.00     0.025 A 
ATOM     10  C   UNL d   1      53.228  29.655  53.911  0.00  0.00     0.002 A 
ATOM     11  C   UNL d   1      53.280  28.955  54.343  0.00  0.00     0.000 C 
ATOM     12  C   UNL d   1      52.693  29.715  53.286  0.00  0.00     0.000 A 
ATOM     13  C   UNL d   1      52.641  30.414  52.854  0.00  0.00     0.002 A 
ATOM     14  C   UNL d   1      53.127  31.060  53.046  0.00  0.00     0.025 A 
ENDBRANCH   7   8
ENDBRANCH   6   7
ENDBRANCH   5   6
ENDBRANCH   4   5
ENDBRANCH   1   4
BRANCH   3  15
ATOM     15  C   UNL d   1      52.507  34.731  54.166  0.00  0.00     0.165 C 
BRANCH  15  16
ATOM     16  C   UNL d   1      52.451  34.828  53.349  0.00  0.00     0.035 C 
BRANCH  16  17
ATOM     17  C   UNL d   1      51.769  34.598  52.957  0.00  0.00     0.003 A 
ATOM     18  C   UNL d   1      51.029  34.645  53.331  0.00  0.00     0.000 A 
ATOM     19  C   UNL d   1      50.348  34.413  52.931  0.00  0.00     0.000 A 
ATOM     20  C   UNL d   1      50.399  34.132  52.157  0.00  0.00     0.000 A 
ATOM     21  C   UNL d   1      51.139  34.084  51.783  0.00  0.00     0.000 A 
ATOM     22  C   UNL d   1      51.819  34.317  52.183  0.00  0.00     0.000 A 
ENDBRANCH  16  17
ENDBRANCH  15  16
ENDBRANCH   3  15
TORSDOF 8
ENDMDL
MODEL 2
REMARK VINA RESULT:      -9.0      2.757      4.041
REMARK  8 active torsions:
REMARK  status: ('A' for Active; 'I' for Inactive)
REMARK       I    between atoms: N_3  and  C_1 
REMARK    1  A    between atoms: C_11  and  C_1 
REMARK    2  A    between atoms: C_7  and  N_3 
REMARK    3  A    between atoms: C_5  and  O_8 
REMARK    4  A    between atoms: C_12  and  C_7 
REMARK    5  A    between atoms: O_8  and  C_15 
REMARK    6  A    between atoms: C_9  and  C_12 
REMARK    7  A    between atoms: C_19  and  C_11 
REMARK    8  A    between atoms: C_15  and  C_19 
ROOT
ATOM      1  C   UNL d   1      50.154  34.450  52.324  0.00  0.00     0.328 C 
ATOM      2  O   UNL d   1      50.286  34.303  51.523  0.00  0.00    -0.251 OA
ATOM      3  N   UNL d   1      49.467  34.849  52.563  0.00  0.00    -0.362 NA
ENDROOT
BRANCH   1   4
ATOM      4  C   UNL d   1      50.702  34.200  52.886  0.00  0.00     0.078 C 
BRANCH   4   5
ATOM      5  C   UNL d   1      51.494  34.131  52.688  0.00  0.00     0.033 C 
BRANCH   5   6
ATOM      6  C   UNL d   1      52.013  33.724  53.183  0.00  0.00     0.123 C 
BRANCH   6   7
ATOM      7  O   UNL d   1      52.818  33.899  53.174  0.00  0.00    -0.305 OA
BRANCH   7   8
ATOM      8  C   UNL d   1      53.349  33.430  53.593  0.00  0.00     0.100 A 
ATOM      9  C   UNL d   1      53.811  33.760  54.199  0.00  0.00     0.025 A 
ATOM     10  C   UNL d   1      54.342  33.284  54.616  0.00  0.00     0.002 A 
ATOM     11  C   UNL d   1      54.798  33.615  55.217  0.00  0.00     0.000 C 
ATOM     12  C   UNL d   1      54.418  32.483  54.435  0.00  0.00     0.000 A 
ATOM     13  C   UNL d   1      53.963  32.150  53.835  0.00  0.00     0.002 A 
ATOM     14  C   UNL d   1      53.426  32.621  53.410  0.00  0.00     0.025 A 
ENDBRANCH   7   8
ENDBRANCH   6   7
ENDBRANCH   5   6
ENDBRANCH   4   5
ENDBRANCH   1   4
BRANCH   3  15
ATOM     15  C   UNL d   1      48.786  35.245  52.799  0.00  0.00     0.165 C 
BRANCH  15  16
ATOM     16  C   UNL d   1      48.314  35.624  52.238  0.00  0.00     0.035 C 
BRANCH  16  17
ATOM     17  C   UNL d   1      47.608  35.970  52.468  0.00  0.00     0.003 A 
ATOM     18  C   UNL d   1      47.539  36.344  53.206  0.00  0.00     0.000 A 
ATOM     19  C   UNL d   1      46.827  36.690  53.431  0.00  0.00     0.000 A 
ATOM     20  C   UNL d   1      46.178  36.666  52.922  0.00  0.00     0.000 A 
ATOM     21  C   UNL d   1      46.246  36.292  52.183  0.00  0.00     0.000 A 
ATOM     22  C   UNL d   1      46.959  35.946  51.959  0.00  0.00     0.000 A 
ENDBRANCH  16  17
ENDBRANCH  15  16
ENDBRANCH   3  15
TORSDOF 8
ENDMDL
MODEL 3
REMARK VINA RESULT:      -8.9      2.861      6.070
REMARK  8 active torsions:
REMARK  status: ('A' for Active; 'I' for Inactive)
REMARK       I    between atoms: N_3  and  C_1 
REMARK    1  A    between atoms: C_11  and  C_1 
REMARK    2  A    between atoms: C_7  and  N_3 
REMARK    3  A    between atoms: C_5  and  O_8 
REMARK    4  A    between atoms: C_12  and  C_7 
REMARK    5  A    between atoms: O_8  and  C_15 
REMARK    6  A    between atoms: C_9  and  C_12 
REMARK    7  A    between atoms: C_19  and  C_11 
REMARK    8  A    between atoms: C_15  and  C_19 
ROOT
ATOM      1  C   UNL d   1      51.043  34.244  52.558  0.00  0.00     0.328 C 
ATOM      2  O   UNL d   1      51.067  34.128  51.742  0.00  0.00    -0.251 OA
ATOM      3  N   UNL d   1      51.743  34.202  53.002  0.00  0.00    -0.362 NA
ENDROOT
BRANCH   1   4
ATOM      4  C   UNL d   1      50.326  34.403  52.932  0.00  0.00     0.078 C 
BRANCH   4   5
ATOM      5  C   UNL d   1      49.756  34.856  52.557  0.00  0.00     0.033 C 
BRANCH   5   6
ATOM      6  C   UNL d   1      49.092  35.113  52.971  0.00  0.00     0.123 C 
BRANCH   6   7
ATOM      7  O   UNL d   1      48.755  35.846  52.801  0.00  0.00    -0.305 OA
BRANCH   7   8
ATOM      8  C   UNL d   1      48.004  36.033  53.081  0.00  0.00     0.100 A 
ATOM      9  C   UNL d   1      47.379  36.160  52.549  0.00  0.00     0.025 A 
ATOM     10  C   UNL d   1      46.627  36.348  52.837  0.00  0.00     0.002 A 
ATOM     11  C   UNL d   1      46.010  36.473  52.307  0.00  0.00     0.000 C 
ATOM     12  C   UNL d   1      46.493  36.409  53.649  0.00  0.00     0.000 A 
ATOM     13  C   UNL d   1      47.109  36.284  54.180  0.00  0.00     0.002 A 
ATOM     14  C   UNL d   1      47.868  36.095  53.900  0.00  0.00     0.025 A 
ENDBRANCH   7   8
ENDBRANCH   6   7
ENDBRANCH   5   6
ENDBRANCH   4   5
ENDBRANCH   1   4
BRANCH   3  15
ATOM     15  C   UNL d   1      52.437  34.160  53.441  0.00  0.00     0.165 C 
BRANCH  15  16
ATOM     16  C   UNL d   1      52.746  33.425  53.655  0.00  0.00     0.035 C 
BRANCH  16  17
ATOM     17  C   UNL d   1      53.471  33.384  54.034  0.00  0.00     0.003 A 
ATOM     18  C   UNL d   1      53.575  33.714  54.789  0.00  0.00     0.000 A 
ATOM     19  C   UNL d   1      54.306  33.669  55.164  0.00  0.00     0.000 A 
ATOM     20  C   UNL d   1      54.939  33.294  54.791  0.00  0.00     0.000 A 
ATOM     21  C   UNL d   1      54.836  32.964  54.035  0.00  0.00     0.000 A 
ATOM     22  C   UNL d   1      54.105  33.009  53.661  0.00  0.00     0.000 A 
ENDBRANCH  16  17
ENDBRANCH  15  16
ENDBRANCH   3  15
TORSDOF 8
ENDMDL
MODEL 4
REMARK VINA RESULT:      -8.9      2.795      6.065
REMARK  8 active torsions:
REMARK  status: ('A' for Active; 'I' for Inactive)
REMARK       I    between atoms: N_3  and  C_1 
REMARK    1  A    between atoms: C_11  and  C_1 
REMARK    2  A    between atoms: C_7  and  N_3 
REMARK    3  A    between atoms: C_5  and  O_8 
REMARK    4  A    between atoms: C_12  and  C_7 
REMARK    5  A    between atoms: O_8  and  C_15 
REMARK    6  A    between atoms: C_9  and  C_12 
REMARK    7  A    between atoms: C_19  and  C_11 
REMARK    8  A    between atoms: C_15  and  C_19 
ROOT
ATOM      1  C   UNL d   1      51.090  33.994  52.641  0.00  0.00     0.328 C 
ATOM      2  O   UNL d   1      51.377  34.401  51.983  0.00  0.00    -0.251 OA
ATOM      3  N   UNL d   1      51.528  33.367  52.963  0.00  0.00    -0.362 NA
ENDROOT
BRANCH   1   4
ATOM      4  C   UNL d   1      50.369  34.210  52.978  0.00  0.00     0.078 C 
BRANCH   4   5
ATOM      5  C   UNL d   1      49.949  34.848  52.682  0.00  0.00     0.033 C 
BRANCH   5   6
ATOM      6  C   UNL d   1      49.232  35.068  53.023  0.00  0.00     0.123 C 
BRANCH   6   7
ATOM      7  O   UNL d   1      48.894  35.797  52.843  0.00  0.00    -0.305 OA
BRANCH   7   8
ATOM      8  C   UNL d   1      48.116  35.959  53.061  0.00  0.00     0.100 A 
ATOM      9  C   UNL d   1      47.533  36.070  52.480  0.00  0.00     0.025 A 
ATOM     10  C   UNL d   1      46.755  36.232  52.706  0.00  0.00     0.002 A 
ATOM     11  C   UNL d   1      46.179  36.341  52.127  0.00  0.00     0.000 C 
ATOM     12  C   UNL d   1      46.553  36.286  53.504  0.00  0.00     0.000 A 
ATOM     13  C   UNL d   1      47.127  36.177  54.084  0.00  0.00     0.002 A 
ATOM     14  C   UNL d   1      47.912  36.014  53.867  0.00  0.00     0.025 A 
ENDBRANCH   7   8
ENDBRANCH   6   7
ENDBRANCH   5   6
ENDBRANCH   4   5
ENDBRANCH   1   4
BRANCH   3  15
ATOM     15  C   UNL d   1      51.963  32.747  53.281  0.00  0.00     0.165 C 
BRANCH  15  16
ATOM     16  C   UNL d   1      52.563  32.393  52.838  0.00  0.00     0.035 C 
BRANCH  16  17
ATOM     17  C   UNL d   1      52.895  31.688  53.092  0.00  0.00     0.003 A 
ATOM     18  C   UNL d   1      52.579  30.959  52.852  0.00  0.00     0.000 A 
ATOM     19  C   UNL d   1      52.917  30.256  53.111  0.00  0.00     0.000 A 
ATOM     20  C   UNL d   1      53.573  30.272  53.611  0.00  0.00     0.000 A 
ATOM     21  C   UNL d   1      53.891  31.002  53.852  0.00  0.00     0.000 A 
ATOM     22  C   UNL d   1      53.551  31.705  53.592  0.00  0.00     0.000 A 
ENDBRANCH  16  17
ENDBRANCH  15  16
ENDBRANCH   3  15
TORSDOF 8
ENDMDL
MODEL 5
REMARK VINA RESULT:      -8.7      0.846      3.984
REMARK  8 active torsions:
REMARK  status: ('A' for Active; 'I' for Inactive)
REMARK       I    between atoms: N_3  and  C_1 
REMARK    1  A    between atoms: C_11  and  C_1 
REMARK    2  A    between atoms: C_7  and  N_3 
REMARK    3  A    between atoms: C_5  and  O_8 
REMARK    4  A    between atoms: C_12  and  C_7 
REMARK    5  A    between atoms: O_8  and  C_15 
REMARK    6  A    between atoms: C_9  and  C_12 
REMARK    7  A    between atoms: C_19  and  C_11 
REMARK    8  A    between atoms: C_15  and  C_19 
ROOT
ATOM      1  C   UNL d   1      54.360  33.457  55.060  0.00  0.00     0.328 C 
ATOM      2  O   UNL d   1      55.148  33.686  55.141  0.00  0.00    -0.251 OA
ATOM      3  N   UNL d   1      54.176  32.672  54.863  0.00  0.00    -0.362 NA
ENDROOT
BRANCH   1   4
ATOM      4  C   UNL d   1      53.756  34.006  55.174  0.00  0.00     0.078 C 
BRANCH   4   5
ATOM      5  C   UNL d   1      53.594  34.567  54.599  0.00  0.00     0.033 C 
BRANCH   5   6
ATOM      6  C   UNL d   1      52.823  34.675  54.329  0.00  0.00     0.123 C 
BRANCH   6   7
ATOM      7  O   UNL d   1      52.684  35.056  53.611  0.00  0.00    -0.305 OA
BRANCH   7   8
ATOM      8  C   UNL d   1      52.139  34.748  53.077  0.00  0.00     0.100 A 
ATOM      9  C   UNL d   1      51.355  34.605  53.313  0.00  0.00     0.025 A 
ATOM     10  C   UNL d   1      50.814  34.296  52.771  0.00  0.00     0.002 A 
ATOM     11  C   UNL d   1      50.038  34.156  53.009  0.00  0.00     0.000 C 
ATOM     12  C   UNL d   1      51.044  34.127  51.997  0.00  0.00     0.000 A 
ATOM     13  C   UNL d   1      51.820  34.267  51.758  0.00  0.00     0.002 A 
ATOM     14  C   UNL d   1      52.372  34.578  52.295  0.00  0.00     0.025 A 
ENDBRANCH   7   8
ENDBRANCH   6   7
ENDBRANCH   5   6
ENDBRANCH   4   5
ENDBRANCH   1   4
BRANCH   3  15
ATOM     15  C   UNL d   1      53.995  31.895  54.669  0.00  0.00     0.165 C 
BRANCH  15  16
ATOM     16  C   UNL d   1      54.017  31.650  53.881  0.00  0.00     0.035 C 
BRANCH  16  17
ATOM     17  C   UNL d   1      53.574  31.004  53.642  0.00  0.00     0.003 A 
ATOM     18  C   UNL d   1      53.665  30.266  54.013  0.00  0.00     0.000 A 
ATOM     19  C   UNL d   1      53.216  29.622  53.769  0.00  0.00     0.000 A 
ATOM     20  C   UNL d   1      52.673  29.706  53.153  0.00  0.00     0.000 A 
ATOM     21  C   UNL d   1      52.581  30.444  52.782  0.00  0.00     0.000 A 
ATOM     22  C   UNL d   1      53.031  31.088  53.027  0.00  0.00     0.000 A 
ENDBRANCH  16  17
ENDBRANCH  15  16
ENDBRANCH   3  15
TORSDOF 8
ENDMDL
MODEL 6
REMARK VINA RESULT:      -8.7      2.534      3.468
REMARK  8 active torsions:
REMARK  status: ('A' for Active; 'I' for Inactive)
REMARK       I    between atoms: N_3  and  C_1 
REMARK    1  A    between atoms: C_11  and  C_1 
REMARK    2  A    between atoms: C_7  and  N_3 
REMARK    3  A    between atoms: C_5  and  O_8 
REMARK    4  A    between atoms: C_12  and  C_7 
REMARK    5  A    between atoms: O_8  and  C_15 
REMARK    6  A    between atoms: C_9  and  C_12 
REMARK    7  A    between atoms: C_19  and  C_11 
REMARK    8  A    between atoms: C_15  and  C_19 
ROOT
ATOM      1  C   UNL d   1      50.439  34.625  53.061  0.00  0.00     0.328 C 
ATOM      2  O   UNL d   1      50.972  35.173  53.371  0.00  0.00    -0.251 OA
ATOM      3  N   UNL d   1      49.661  34.857  52.890  0.00  0.00    -0.362 NA
ENDROOT
BRANCH   1   4
ATOM      4  C   UNL d   1      50.678  33.849  52.921  0.00  0.00     0.078 C 
BRANCH   4   5
ATOM      5  C   UNL d   1      51.470  33.676  52.803  0.00  0.00     0.033 C 
BRANCH   5   6
ATOM      6  C   UNL d   1      51.781  32.957  53.057  0.00  0.00     0.123 C 
BRANCH   6   7
ATOM      7  O   UNL d   1      52.414  32.613  52.657  0.00  0.00    -0.305 OA
BRANCH   7   8
ATOM      8  C   UNL d   1      52.862  32.023  53.016  0.00  0.00     0.100 A 
ATOM      9  C   UNL d   1      52.660  31.224  52.911  0.00  0.00     0.025 A 
ATOM     10  C   UNL d   1      53.114  30.636  53.275  0.00  0.00     0.002 A 
ATOM     11  C   UNL d   1      52.911  29.845  53.168  0.00  0.00     0.000 C 
ATOM     12  C   UNL d   1      53.764  30.836  53.741  0.00  0.00     0.000 A 
ATOM     13  C   UNL d   1      53.968  31.627  53.848  0.00  0.00     0.002 A 
ATOM     14  C   UNL d   1      53.518  32.225  53.487  0.00  0.00     0.025 A 
ENDBRANCH   7   8
ENDBRANCH   6   7
ENDBRANCH   5   6
ENDBRANCH   4   5
ENDBRANCH   1   4
BRANCH   3  15
ATOM     15  C   UNL d   1      48.890  35.088  52.722  0.00  0.00     0.165 C 
BRANCH  15  16
ATOM     16  C   UNL d   1      48.592  35.792  53.033  0.00  0.00     0.035 C 
BRANCH  16  17
ATOM     17  C   UNL d   1      47.811  35.999  52.897  0.00  0.00     0.003 A 
ATOM     18  C   UNL d   1      47.501  36.000  52.127  0.00  0.00     0.000 A 
ATOM     19  C   UNL d   1      46.716  36.209  51.997  0.00  0.00     0.000 A 
ATOM     20  C   UNL d   1      46.234  36.419  52.632  0.00  0.00     0.000 A 
ATOM     21  C   UNL d   1      46.544  36.419  53.404  0.00  0.00     0.000 A 
ATOM     22  C   UNL d   1      47.329  36.209  53.532  0.00  0.00     0.000 A 
ENDBRANCH  16  17
ENDBRANCH  15  16
ENDBRANCH   3  15
TORSDOF 8
ENDMDL
MODEL 7
REMARK VINA RESULT:      -6.4      9.810     11.743
REMARK  8 active torsions:
REMARK  status: ('A' for Active; 'I' for Inactive)
REMARK       I    between atoms: N_3  and  C_1 
REMARK    1  A    between atoms: C_11  and  C_1 
REMARK    2  A    between atoms: C_7  and  N_3 
REMARK    3  A    between atoms: C_5  and  O_8 
REMARK    4  A    between atoms: C_12  and  C_7 
REMARK    5  A    between atoms: O_8  and  C_15 
REMARK    6  A    between atoms: C_9  and  C_12 
REMARK    7  A    between atoms: C_19  and  C_11 
REMARK    8  A    between atoms: C_15  and  C_19 
ROOT
ATOM      1  C   UNL d   1      44.798  24.307  55.307  0.00  0.00     0.328 C 
ATOM      2  O   UNL d   1      45.038  23.715  55.828  0.00  0.00    -0.251 OA
ATOM      3  N   UNL d   1      44.738  24.144  54.495  0.00  0.00    -0.362 NA
ENDROOT
BRANCH   1   4
ATOM      4  C   UNL d   1      44.618  25.059  55.591  0.00  0.00     0.078 C 
BRANCH   4   5
ATOM      5  C   UNL d   1      45.086  25.406  56.167  0.00  0.00     0.033 C 
BRANCH   5   6
ATOM      6  C   UNL d   1      44.911  26.161  56.446  0.00  0.00     0.123 C 
BRANCH   6   7
ATOM      7  O   UNL d   1      45.517  26.696  56.604  0.00  0.00    -0.305 OA
BRANCH   7   8
ATOM      8  C   UNL d   1      45.367  27.377  57.043  0.00  0.00     0.100 A 
ATOM      9  C   UNL d   1      45.158  28.084  56.661  0.00  0.00     0.025 A 
ATOM     10  C   UNL d   1      45.009  28.763  57.108  0.00  0.00     0.002 A 
ATOM     11  C   UNL d   1      44.802  29.462  56.726  0.00  0.00     0.000 C 
ATOM     12  C   UNL d   1      45.066  28.744  57.931  0.00  0.00     0.000 A 
ATOM     13  C   UNL d   1      45.273  28.045  58.315  0.00  0.00     0.002 A 
ATOM     14  C   UNL d   1      45.425  27.357  57.874  0.00  0.00     0.025 A 
ENDBRANCH   7   8
ENDBRANCH   6   7
ENDBRANCH   5   6
ENDBRANCH   4   5
ENDBRANCH   1   4
BRANCH   3  15
ATOM     15  C   UNL d   1      44.679  23.981  53.692  0.00  0.00     0.165 C 
BRANCH  15  16
ATOM     16  C   UNL d   1      45.066  23.327  53.373  0.00  0.00     0.035 C 
BRANCH  16  17
ATOM     17  C   UNL d   1      45.142  23.254  52.561  0.00  0.00     0.003 A 
ATOM     18  C   UNL d   1      45.767  22.818  52.230  0.00  0.00     0.000 A 
ATOM     19  C   UNL d   1      45.837  22.749  51.413  0.00  0.00     0.000 A 
ATOM     20  C   UNL d   1      45.285  23.114  50.919  0.00  0.00     0.000 A 
ATOM     21  C   UNL d   1      44.660  23.550  51.249  0.00  0.00     0.000 A 
ATOM     22  C   UNL d   1      44.591  23.618  52.067  0.00  0.00     0.000 A 
ENDBRANCH  16  17
ENDBRANCH  15  16
ENDBRANCH   3  15
TORSDOF 8
ENDMDL
MODEL 8
REMARK VINA RESULT:      -6.3      1.782      5.484
REMARK  8 active torsions:
REMARK  status: ('A' for Active; 'I' for Inactive)
REMARK       I    between atoms: N_3  and  C_1 
REMARK    1  A    between atoms: C_11  and  C_1 
REMARK    2  A    between atoms: C_7  and  N_3 
REMARK    3  A    between atoms: C_5  and  O_8 
REMARK    4  A    between atoms: C_12  and  C_7 
REMARK    5  A    between atoms: O_8  and  C_15 
REMARK    6  A    between atoms: C_9  and  C_12 
REMARK    7  A    between atoms: C_19  and  C_11 
REMARK    8  A    between atoms: C_15  and  C_19 
ROOT
ATOM      1  C   UNL d   1      52.455  32.402  52.850  0.00  0.00     0.328 C 
ATOM      2  O   UNL d   1      53.116  32.891  52.784  0.00  0.00    -0.251 OA
ATOM      3  N   UNL d   1      52.551  31.603  53.055  0.00  0.00    -0.362 NA
ENDROOT
BRANCH   1   4
ATOM      4  C   UNL d   1      51.702  32.705  52.712  0.00  0.00     0.078 C 
BRANCH   4   5
ATOM      5  C   UNL d   1      51.495  33.444  52.999  0.00  0.00     0.033 C 
BRANCH   5   6
ATOM      6  C   UNL d   1      50.727  33.727  52.905  0.00  0.00     0.123 C 
BRANCH   6   7
ATOM      7  O   UNL d   1      50.594  34.458  52.551  0.00  0.00    -0.305 OA
BRANCH   7   8
ATOM      8  C   UNL d   1      49.829  34.694  52.358  0.00  0.00     0.100 A 
ATOM      9  C   UNL d   1      49.518  34.530  51.606  0.00  0.00     0.025 A 
ATOM     10  C   UNL d   1      48.749  34.769  51.419  0.00  0.00     0.002 A 
ATOM     11  C   UNL d   1      48.444  34.605  50.672  0.00  0.00     0.000 C 
ATOM     12  C   UNL d   1      48.288  35.170  51.974  0.00  0.00     0.000 A 
ATOM     13  C   UNL d   1      48.592  35.335  52.721  0.00  0.00     0.002 A 
ATOM     14  C   UNL d   1      49.364  35.099  52.918  0.00  0.00     0.025 A 
ENDBRANCH   7   8
ENDBRANCH   6   7
ENDBRANCH   5   6
ENDBRANCH   4   5
ENDBRANCH   1   4
BRANCH   3  15
ATOM     15  C   UNL d   1      52.647  30.813  53.258  0.00  0.00     0.165 C 
BRANCH  15  16
ATOM     16  C   UNL d   1      53.360  30.553  53.581  0.00  0.00     0.035 C 
BRANCH  16  17
ATOM     17  C   UNL d   1      53.379  29.865  54.027  0.00  0.00     0.003 A 
ATOM     18  C   UNL d   1      53.090  29.856  54.805  0.00  0.00     0.000 A 
ATOM     19  C   UNL d   1      53.112  29.162  55.246  0.00  0.00     0.000 A 
ATOM     20  C   UNL d   1      53.421  28.472  54.916  0.00  0.00     0.000 A 
ATOM     21  C   UNL d   1      53.709  28.480  54.137  0.00  0.00     0.000 A 
ATOM     22  C   UNL d   1      53.687  29.175  53.696  0.00  0.00     0.000 A 
ENDBRANCH  16  17
ENDBRANCH  15  16
ENDBRANCH   3  15
TORSDOF 8
ENDMDL
MODEL 9
REMARK VINA RESULT:      -6.2      9.638     11.437
REMARK  8 active torsions:
REMARK  status: ('A' for Active; 'I' for Inactive)
REMARK       I    between atoms: N_3  and  C_1 
REMARK    1  A    between atoms: C_11  and  C_1 
REMARK    2  A    between atoms: C_7  and  N_3 
REMARK    3  A    between atoms: C_5  and  O_8 
REMARK    4  A    between atoms: C_12  and  C_7 
REMARK    5  A    between atoms: O_8  and  C_15 
REMARK    6  A    between atoms: C_9  and  C_12 
REMARK    7  A    between atoms: C_19  and  C_11 
REMARK    8  A    between atoms: C_15  and  C_19 
ROOT
ATOM      1  C   UNL d   1      44.968  26.479  58.127  0.00  0.00     0.328 C 
ATOM      2  O   UNL d   1      45.438  26.240  58.761  0.00  0.00    -0.251 OA
ATOM      3  N   UNL d   1      44.749  25.930  57.544  0.00  0.00    -0.362 NA
ENDROOT
BRANCH   1   4
ATOM      4  C   UNL d   1      44.715  27.262  58.073  0.00  0.00     0.078 C 
BRANCH   4   5
ATOM      5  C   UNL d   1      45.144  27.860  58.431  0.00  0.00     0.033 C 
BRANCH   5   6
ATOM      6  C   UNL d   1      44.852  28.631  58.443  0.00  0.00     0.123 C 
BRANCH   6   7
ATOM      7  O   UNL d   1      45.365  29.267  58.551  0.00  0.00    -0.305 OA
BRANCH   7   8
ATOM      8  C   UNL d   1      45.068  30.031  58.629  0.00  0.00     0.100 A 
ATOM      9  C   UNL d   1      45.024  30.532  57.968  0.00  0.00     0.025 A 
ATOM     10  C   UNL d   1      44.725  31.298  58.053  0.00  0.00     0.002 A 
ATOM     11  C   UNL d   1      44.683  31.792  57.396  0.00  0.00     0.000 C 
ATOM     12  C   UNL d   1      44.469  31.569  58.790  0.00  0.00     0.000 A 
ATOM     13  C   UNL d   1      44.511  31.076  59.448  0.00  0.00     0.002 A 
ATOM     14  C   UNL d   1      44.810  30.304  59.372  0.00  0.00     0.025 A 
ENDBRANCH   7   8
ENDBRANCH   6   7
ENDBRANCH   5   6
ENDBRANCH   4   5
ENDBRANCH   1   4
BRANCH   3  15
ATOM     15  C   UNL d   1      44.534  25.386  56.967  0.00  0.00     0.165 C 
BRANCH  15  16
ATOM     16  C   UNL d   1      44.977  25.321  56.275  0.00  0.00     0.035 C 
BRANCH  16  17
ATOM     17  C   UNL d   1      44.813  24.721  55.741  0.00  0.00     0.003 A 
ATOM     18  C   UNL d   1      44.974  23.929  55.929  0.00  0.00     0.000 A 
ATOM     19  C   UNL d   1      44.806  23.332  55.389  0.00  0.00     0.000 A 
ATOM     20  C   UNL d   1      44.476  23.520  54.656  0.00  0.00     0.000 A 
ATOM     21  C   UNL d   1      44.314  24.312  54.466  0.00  0.00     0.000 A 
ATOM     22  C   UNL d   1      44.483  24.909  55.008  0.00  0.00     0.000 A 
ENDBRANCH  16  17
ENDBRANCH  15  16
ENDBRANCH   3  15
TORSDOF 8
ENDMDL
