MODEL 1
REMARK VINA RESULT:      20.7      0.000      0.000
REMARK  0 active torsions:
REMARK  status: ('A' for Active; 'I' for Inactive)
ROOT
ATOM      1  C   UNL d   1      44.230 -16.236  36.542  0.00  0.00     0.267 A 
ATOM      2  N   UNL d   1      45.011 -16.090  36.639  0.00  0.00    -0.270 N 
ATOM      3  C   UNL d   1      43.720 -15.788  36.618  0.00  0.00     0.081 A 
ATOM      4  C   UNL d   1      43.682 -14.994  36.818  0.00  0.00     0.105 A 
ATOM      5  O   UNL d   1      44.166 -14.504  36.981  0.00  0.00    -0.305 OA
ATOM      6  C   UNL d   1      45.348 -15.358  36.852  0.00  0.00     0.090 A 
ATOM      7  C   UNL d   1      44.957 -14.622  37.011  0.00  0.00     0.116 A 
ATOM      8  C   UNL d   1      43.035 -16.204  36.459  0.00  0.00     0.028 A 
ATOM      9  O   UNL d   1      44.018 -17.000  36.330  0.00  0.00    -0.267 OA
ATOM     10  C   UNL d   1      42.959 -14.616  36.860  0.00  0.00     0.026 A 
ATOM     11  C   UNL d   1      42.303 -15.827  36.500  0.00  0.00     0.103 A 
ATOM     12  C   UNL d   1      45.525 -16.714  36.518  0.00  0.00     0.102 C 
ATOM     13  N   UNL d   1      41.617 -16.247  36.340  0.00  0.00    -0.148 N 
ATOM     14  C   UNL d   1      42.265 -15.033  36.700  0.00  0.00     0.023 A 
ATOM     15  C   UNL d   1      46.192 -15.408  36.904  0.00  0.00     0.020 A 
ATOM     16  C   UNL d   1      45.407 -13.948  37.218  0.00  0.00     0.026 A 
ATOM     17  C   UNL d   1      46.643 -14.726  37.113  0.00  0.00     0.002 A 
ATOM     18  C   UNL d   1      46.248 -13.990  37.271  0.00  0.00     0.002 A 
ENDROOT
TORSDOF 0
ENDMDL
