MODEL 1
REMARK VINA RESULT:      -7.4      0.000      0.000
REMARK  6 active torsions:
REMARK  status: ('A' for Active; 'I' for Inactive)
REMARK       I    between atoms: N_3  and  C_1 
REMARK    1  A    between atoms: O_10  and  C_1 
REMARK    2  A    between atoms: N_2  and  C_4 
REMARK    3  A    between atoms: C_9  and  N_3 
REMARK    4  A    between atoms: C_17  and  O_10 
REMARK    5  A    between atoms: C_18  and  C_17 
REMARK    6  A    between atoms: C_19  and  C_18 
ROOT
ATOM      1  C   UNL d   1      52.590  33.629  53.604  0.00  0.00     0.064 A 
ATOM      2  C   UNL d   1      51.935  33.119  53.583  0.00  0.00     0.020 A 
ATOM      3  C   UNL d   1      52.512  34.411  53.354  0.00  0.00     0.020 A 
ATOM      4  C   UNL d   1      51.124  34.172  53.062  0.00  0.00     0.137 A 
ATOM      5  C   UNL d   1      51.783  34.684  53.083  0.00  0.00     0.034 A 
ATOM      6  C   UNL d   1      51.206  33.391  53.313  0.00  0.00     0.034 A 
ENDROOT
BRANCH   4   7
ATOM      7  N   UNL d   1      50.397  34.438  52.794  0.00  0.00    -0.344 NA
ATOM      8  C   UNL d   1      49.667  34.702  52.520  0.00  0.00     0.445 C 
ATOM      9  O   UNL d   1      49.415  34.503  51.760  0.00  0.00    -0.220 OA
BRANCH   8  10
ATOM     10  O   UNL d   1      49.187  35.167  53.005  0.00  0.00    -0.246 OA
BRANCH  10  11
ATOM     11  C   UNL d   1      48.508  35.519  52.698  0.00  0.00     0.129 C 
BRANCH  11  12
ATOM     12  C   UNL d   1      48.019  35.980  53.185  0.00  0.00     0.027 C 
BRANCH  12  13
ATOM     13  C   UNL d   1      47.452  36.475  52.853  0.00  0.00     0.002 C 
ATOM     14  C   UNL d   1      46.800  36.710  53.298  0.00  0.00     0.000 C 
ENDBRANCH  12  13
ENDBRANCH  11  12
ENDBRANCH  10  11
ENDBRANCH   8  10
ENDBRANCH   4   7
BRANCH   1  15
ATOM     15  N   UNL d   1      53.318  33.349  53.877  0.00  0.00    -0.300 N 
ATOM     16  C   UNL d   1      53.800  32.901  53.379  0.00  0.00     0.107 A 
ATOM     17  C   UNL d   1      54.522  32.625  53.653  0.00  0.00     0.142 A 
ATOM     18  O   UNL d   1      54.765  32.796  54.422  0.00  0.00    -0.300 OA
ATOM     19  C   UNL d   1      54.284  33.245  54.920  0.00  0.00     0.142 A 
ATOM     20  C   UNL d   1      53.556  33.523  54.645  0.00  0.00     0.107 A 
ENDBRANCH   1  15
TORSDOF 6
ENDMDL
MODEL 2
REMARK VINA RESULT:      -6.5      1.169      5.278
REMARK  6 active torsions:
REMARK  status: ('A' for Active; 'I' for Inactive)
REMARK       I    between atoms: N_3  and  C_1 
REMARK    1  A    between atoms: O_10  and  C_1 
REMARK    2  A    between atoms: N_2  and  C_4 
REMARK    3  A    between atoms: C_9  and  N_3 
REMARK    4  A    between atoms: C_17  and  O_10 
REMARK    5  A    between atoms: C_18  and  C_17 
REMARK    6  A    between atoms: C_19  and  C_18 
ROOT
ATOM      1  C   UNL d   1      50.147  34.354  52.548  0.00  0.00     0.064 A 
ATOM      2  C   UNL d   1      50.228  33.819  53.178  0.00  0.00     0.020 A 
ATOM      3  C   UNL d   1      50.767  34.460  52.014  0.00  0.00     0.020 A 
ATOM      4  C   UNL d   1      51.549  33.496  52.741  0.00  0.00     0.137 A 
ATOM      5  C   UNL d   1      51.466  34.034  52.109  0.00  0.00     0.034 A 
ATOM      6  C   UNL d   1      50.926  33.393  53.273  0.00  0.00     0.034 A 
ENDROOT
BRANCH   4   7
ATOM      7  N   UNL d   1      52.241  33.070  52.841  0.00  0.00    -0.344 NA
ATOM      8  C   UNL d   1      52.934  32.637  52.938  0.00  0.00     0.445 C 
ATOM      9  O   UNL d   1      52.953  31.837  52.736  0.00  0.00    -0.220 OA
BRANCH   8  10
ATOM     10  O   UNL d   1      53.612  33.002  53.239  0.00  0.00    -0.246 OA
BRANCH  10  11
ATOM     11  C   UNL d   1      53.982  32.698  53.909  0.00  0.00     0.129 C 
BRANCH  11  12
ATOM     12  C   UNL d   1      54.632  33.092  54.243  0.00  0.00     0.027 C 
BRANCH  12  13
ATOM     13  C   UNL d   1      54.657  33.236  55.052  0.00  0.00     0.002 C 
ATOM     14  C   UNL d   1      55.201  33.774  55.357  0.00  0.00     0.000 C 
ENDBRANCH  12  13
ENDBRANCH  11  12
ENDBRANCH  10  11
ENDBRANCH   8  10
ENDBRANCH   4   7
BRANCH   1  15
ATOM     15  N   UNL d   1      49.444  34.778  52.458  0.00  0.00    -0.300 N 
ATOM     16  C   UNL d   1      49.181  35.274  53.063  0.00  0.00     0.107 A 
ATOM     17  C   UNL d   1      48.483  35.694  52.971  0.00  0.00     0.142 A 
ATOM     18  O   UNL d   1      48.045  35.620  52.276  0.00  0.00    -0.300 OA
ATOM     19  C   UNL d   1      48.307  35.124  51.671  0.00  0.00     0.142 A 
ATOM     20  C   UNL d   1      49.011  34.701  51.763  0.00  0.00     0.107 A 
ENDBRANCH   1  15
TORSDOF 6
ENDMDL
MODEL 3
REMARK VINA RESULT:      -6.3      1.627      5.432
REMARK  6 active torsions:
REMARK  status: ('A' for Active; 'I' for Inactive)
REMARK       I    between atoms: N_3  and  C_1 
REMARK    1  A    between atoms: O_10  and  C_1 
REMARK    2  A    between atoms: N_2  and  C_4 
REMARK    3  A    between atoms: C_9  and  N_3 
REMARK    4  A    between atoms: C_17  and  O_10 
REMARK    5  A    between atoms: C_18  and  C_17 
REMARK    6  A    between atoms: C_19  and  C_18 
ROOT
ATOM      1  C   UNL d   1      50.214  34.325  52.593  0.00  0.00     0.064 A 
ATOM      2  C   UNL d   1      50.284  33.782  53.217  0.00  0.00     0.020 A 
ATOM      3  C   UNL d   1      50.841  34.431  52.066  0.00  0.00     0.020 A 
ATOM      4  C   UNL d   1      51.605  33.451  52.790  0.00  0.00     0.137 A 
ATOM      5  C   UNL d   1      51.535  33.996  52.163  0.00  0.00     0.034 A 
ATOM      6  C   UNL d   1      50.977  33.347  53.314  0.00  0.00     0.034 A 
ENDROOT
BRANCH   4   7
ATOM      7  N   UNL d   1      52.292  33.016  52.891  0.00  0.00    -0.344 NA
ATOM      8  C   UNL d   1      52.986  32.584  52.994  0.00  0.00     0.445 C 
ATOM      9  O   UNL d   1      53.669  32.959  53.263  0.00  0.00    -0.220 OA
BRANCH   8  10
ATOM     10  O   UNL d   1      52.997  31.775  52.828  0.00  0.00    -0.246 OA
BRANCH  10  11
ATOM     11  C   UNL d   1      53.354  31.251  53.354  0.00  0.00     0.129 C 
BRANCH  11  12
ATOM     12  C   UNL d   1      53.184  30.439  53.315  0.00  0.00     0.027 C 
BRANCH  12  13
ATOM     13  C   UNL d   1      53.594  29.907  53.791  0.00  0.00     0.002 C 
ATOM     14  C   UNL d   1      53.207  29.249  54.098  0.00  0.00     0.000 C 
ENDBRANCH  12  13
ENDBRANCH  11  12
ENDBRANCH  10  11
ENDBRANCH   8  10
ENDBRANCH   4   7
BRANCH   1  15
ATOM     15  N   UNL d   1      49.516  34.757  52.501  0.00  0.00    -0.300 N 
ATOM     16  C   UNL d   1      49.251  35.246  53.111  0.00  0.00     0.107 A 
ATOM     17  C   UNL d   1      48.558  35.673  53.017  0.00  0.00     0.142 A 
ATOM     18  O   UNL d   1      48.128  35.615  52.315  0.00  0.00    -0.300 OA
ATOM     19  C   UNL d   1      48.393  35.126  51.706  0.00  0.00     0.142 A 
ATOM     20  C   UNL d   1      49.091  34.695  51.800  0.00  0.00     0.107 A 
ENDBRANCH   1  15
TORSDOF 6
ENDMDL
MODEL 4
REMARK VINA RESULT:      -6.1      1.116      1.506
REMARK  6 active torsions:
REMARK  status: ('A' for Active; 'I' for Inactive)
REMARK       I    between atoms: N_3  and  C_1 
REMARK    1  A    between atoms: O_10  and  C_1 
REMARK    2  A    between atoms: N_2  and  C_4 
REMARK    3  A    between atoms: C_9  and  N_3 
REMARK    4  A    between atoms: C_17  and  O_10 
REMARK    5  A    between atoms: C_18  and  C_17 
REMARK    6  A    between atoms: C_19  and  C_18 
ROOT
ATOM      1  C   UNL d   1      51.794  33.359  53.174  0.00  0.00     0.064 A 
ATOM      2  C   UNL d   1      51.887  34.169  53.016  0.00  0.00     0.020 A 
ATOM      3  C   UNL d   1      51.039  33.037  53.252  0.00  0.00     0.020 A 
ATOM      4  C   UNL d   1      50.469  34.335  53.014  0.00  0.00     0.137 A 
ATOM      5  C   UNL d   1      50.377  33.521  53.173  0.00  0.00     0.034 A 
ATOM      6  C   UNL d   1      51.226  34.654  52.937  0.00  0.00     0.034 A 
ENDROOT
BRANCH   4   7
ATOM      7  N   UNL d   1      49.815  34.822  52.934  0.00  0.00    -0.344 NA
ATOM      8  C   UNL d   1      49.159  35.315  52.859  0.00  0.00     0.445 C 
ATOM      9  O   UNL d   1      49.029  35.916  53.409  0.00  0.00    -0.220 OA
BRANCH   8  10
ATOM     10  O   UNL d   1      48.631  35.207  52.233  0.00  0.00    -0.246 OA
BRANCH  10  11
ATOM     11  C   UNL d   1      47.864  35.503  52.285  0.00  0.00     0.129 C 
BRANCH  11  12
ATOM     12  C   UNL d   1      47.351  35.451  51.634  0.00  0.00     0.027 C 
BRANCH  12  13
ATOM     13  C   UNL d   1      46.590  35.761  51.681  0.00  0.00     0.002 C 
ATOM     14  C   UNL d   1      46.063  35.651  51.058  0.00  0.00     0.000 C 
ENDBRANCH  12  13
ENDBRANCH  11  12
ENDBRANCH  10  11
ENDBRANCH   8  10
ENDBRANCH   4   7
BRANCH   1  15
ATOM     15  N   UNL d   1      52.462  32.877  53.252  0.00  0.00    -0.300 N 
ATOM     16  C   UNL d   1      52.454  32.109  52.951  0.00  0.00     0.107 A 
ATOM     17  C   UNL d   1      53.118  31.635  53.031  0.00  0.00     0.142 A 
ATOM     18  O   UNL d   1      53.791  31.926  53.410  0.00  0.00    -0.300 OA
ATOM     19  C   UNL d   1      53.799  32.694  53.710  0.00  0.00     0.142 A 
ATOM     20  C   UNL d   1      53.130  33.172  53.631  0.00  0.00     0.107 A 
ENDBRANCH   1  15
TORSDOF 6
ENDMDL
MODEL 5
REMARK VINA RESULT:      -6.0      3.167      5.145
REMARK  6 active torsions:
REMARK  status: ('A' for Active; 'I' for Inactive)
REMARK       I    between atoms: N_3  and  C_1 
REMARK    1  A    between atoms: O_10  and  C_1 
REMARK    2  A    between atoms: N_2  and  C_4 
REMARK    3  A    between atoms: C_9  and  N_3 
REMARK    4  A    between atoms: C_17  and  O_10 
REMARK    5  A    between atoms: C_18  and  C_17 
REMARK    6  A    between atoms: C_19  and  C_18 
ROOT
ATOM      1  C   UNL d   1      53.002  33.662  53.878  0.00  0.00     0.064 A 
ATOM      2  C   UNL d   1      53.680  33.184  53.900  0.00  0.00     0.020 A 
ATOM      3  C   UNL d   1      52.291  33.358  53.590  0.00  0.00     0.020 A 
ATOM      4  C   UNL d   1      52.938  32.097  53.348  0.00  0.00     0.137 A 
ATOM      5  C   UNL d   1      52.257  32.578  53.325  0.00  0.00     0.034 A 
ATOM      6  C   UNL d   1      53.647  32.405  53.636  0.00  0.00     0.034 A 
ENDROOT
BRANCH   4   7
ATOM      7  N   UNL d   1      52.910  31.321  53.086  0.00  0.00    -0.344 NA
ATOM      8  C   UNL d   1      52.884  30.543  52.818  0.00  0.00     0.445 C 
ATOM      9  O   UNL d   1      53.097  30.366  52.041  0.00  0.00    -0.220 OA
BRANCH   8  10
ATOM     10  O   UNL d   1      52.644  29.938  53.327  0.00  0.00    -0.246 OA
BRANCH  10  11
ATOM     11  C   UNL d   1      53.205  29.451  53.683  0.00  0.00     0.129 C 
BRANCH  11  12
ATOM     12  C   UNL d   1      52.974  28.898  54.257  0.00  0.00     0.027 C 
BRANCH  12  13
ATOM     13  C   UNL d   1      53.524  28.604  54.794  0.00  0.00     0.002 C 
ATOM     14  C   UNL d   1      53.386  28.671  55.603  0.00  0.00     0.000 C 
ENDBRANCH  12  13
ENDBRANCH  11  12
ENDBRANCH  10  11
ENDBRANCH   8  10
ENDBRANCH   4   7
BRANCH   1  15
ATOM     15  N   UNL d   1      53.043  34.444  54.145  0.00  0.00    -0.300 N 
ATOM     16  C   UNL d   1      52.892  35.066  53.624  0.00  0.00     0.107 A 
ATOM     17  C   UNL d   1      52.933  35.839  53.892  0.00  0.00     0.142 A 
ATOM     18  O   UNL d   1      53.125  35.994  54.679  0.00  0.00    -0.300 OA
ATOM     19  C   UNL d   1      53.276  35.372  55.200  0.00  0.00     0.142 A 
ATOM     20  C   UNL d   1      53.235  34.593  54.930  0.00  0.00     0.107 A 
ENDBRANCH   1  15
TORSDOF 6
ENDMDL
MODEL 6
REMARK VINA RESULT:      -5.1      1.545      5.788
REMARK  6 active torsions:
REMARK  status: ('A' for Active; 'I' for Inactive)
REMARK       I    between atoms: N_3  and  C_1 
REMARK    1  A    between atoms: O_10  and  C_1 
REMARK    2  A    between atoms: N_2  and  C_4 
REMARK    3  A    between atoms: C_9  and  N_3 
REMARK    4  A    between atoms: C_17  and  O_10 
REMARK    5  A    between atoms: C_18  and  C_17 
REMARK    6  A    between atoms: C_19  and  C_18 
ROOT
ATOM      1  C   UNL d   1      48.168  35.456  52.292  0.00  0.00     0.064 A 
ATOM      2  C   UNL d   1      48.502  35.033  51.660  0.00  0.00     0.020 A 
ATOM      3  C   UNL d   1      48.585  35.539  52.999  0.00  0.00     0.020 A 
ATOM      4  C   UNL d   1      49.668  34.775  52.442  0.00  0.00     0.137 A 
ATOM      5  C   UNL d   1      49.332  35.200  53.076  0.00  0.00     0.034 A 
ATOM      6  C   UNL d   1      49.249  34.695  51.736  0.00  0.00     0.034 A 
ENDROOT
BRANCH   4   7
ATOM      7  N   UNL d   1      50.411  34.436  52.513  0.00  0.00    -0.344 NA
ATOM      8  C   UNL d   1      51.157  34.095  52.578  0.00  0.00     0.445 C 
ATOM      9  O   UNL d   1      51.571  33.873  51.899  0.00  0.00    -0.220 OA
BRANCH   8  10
ATOM     10  O   UNL d   1      51.494  33.975  53.323  0.00  0.00    -0.246 OA
BRANCH  10  11
ATOM     11  C   UNL d   1      52.256  33.671  53.387  0.00  0.00     0.129 C 
BRANCH  11  12
ATOM     12  C   UNL d   1      52.640  33.656  54.123  0.00  0.00     0.027 C 
BRANCH  12  13
ATOM     13  C   UNL d   1      53.302  33.182  54.236  0.00  0.00     0.002 C 
ATOM     14  C   UNL d   1      53.836  33.357  54.838  0.00  0.00     0.000 C 
ENDBRANCH  12  13
ENDBRANCH  11  12
ENDBRANCH  10  11
ENDBRANCH   8  10
ENDBRANCH   4   7
BRANCH   1  15
ATOM     15  N   UNL d   1      47.418  35.794  52.208  0.00  0.00    -0.300 N 
ATOM     16  C   UNL d   1      47.165  36.371  52.740  0.00  0.00     0.107 A 
ATOM     17  C   UNL d   1      46.420  36.703  52.654  0.00  0.00     0.142 A 
ATOM     18  O   UNL d   1      45.927  36.461  52.038  0.00  0.00    -0.300 OA
ATOM     19  C   UNL d   1      46.181  35.883  51.507  0.00  0.00     0.142 A 
ATOM     20  C   UNL d   1      46.931  35.548  51.592  0.00  0.00     0.107 A 
ENDBRANCH   1  15
TORSDOF 6
ENDMDL
MODEL 7
REMARK VINA RESULT:      -4.4      9.920     10.939
REMARK  6 active torsions:
REMARK  status: ('A' for Active; 'I' for Inactive)
REMARK       I    between atoms: N_3  and  C_1 
REMARK    1  A    between atoms: O_10  and  C_1 
REMARK    2  A    between atoms: N_2  and  C_4 
REMARK    3  A    between atoms: C_9  and  N_3 
REMARK    4  A    between atoms: C_17  and  O_10 
REMARK    5  A    between atoms: C_18  and  C_17 
REMARK    6  A    between atoms: C_19  and  C_18 
ROOT
ATOM      1  C   UNL d   1      44.723  29.866  59.969  0.00  0.00     0.064 A 
ATOM      2  C   UNL d   1      45.121  30.197  59.319  0.00  0.00     0.020 A 
ATOM      3  C   UNL d   1      44.420  29.101  59.921  0.00  0.00     0.020 A 
ATOM      4  C   UNL d   1      44.912  28.997  58.574  0.00  0.00     0.137 A 
ATOM      5  C   UNL d   1      44.513  28.666  59.227  0.00  0.00     0.034 A 
ATOM      6  C   UNL d   1      45.214  29.763  58.626  0.00  0.00     0.034 A 
ENDROOT
BRANCH   4   7
ATOM      7  N   UNL d   1      45.008  28.570  57.881  0.00  0.00    -0.344 NA
ATOM      8  C   UNL d   1      45.104  28.145  57.183  0.00  0.00     0.445 C 
ATOM      9  O   UNL d   1      45.181  28.544  56.465  0.00  0.00    -0.220 OA
BRANCH   8  10
ATOM     10  O   UNL d   1      45.123  27.320  57.199  0.00  0.00    -0.246 OA
BRANCH  10  11
ATOM     11  C   UNL d   1      44.888  26.888  56.539  0.00  0.00     0.129 C 
BRANCH  11  12
ATOM     12  C   UNL d   1      44.712  26.080  56.608  0.00  0.00     0.027 C 
BRANCH  12  13
ATOM     13  C   UNL d   1      44.889  25.563  55.993  0.00  0.00     0.002 C 
ATOM     14  C   UNL d   1      44.773  24.754  56.090  0.00  0.00     0.000 C 
ENDBRANCH  12  13
ENDBRANCH  11  12
ENDBRANCH  10  11
ENDBRANCH   8  10
ENDBRANCH   4   7
BRANCH   1  15
ATOM     15  N   UNL d   1      44.633  30.307  60.662  0.00  0.00    -0.300 N 
ATOM     16  C   UNL d   1      44.403  31.098  60.621  0.00  0.00     0.107 A 
ATOM     17  C   UNL d   1      44.315  31.533  61.310  0.00  0.00     0.142 A 
ATOM     18  O   UNL d   1      44.456  31.179  62.042  0.00  0.00    -0.300 OA
ATOM     19  C   UNL d   1      44.686  30.388  62.084  0.00  0.00     0.142 A 
ATOM     20  C   UNL d   1      44.775  29.950  61.390  0.00  0.00     0.107 A 
ENDBRANCH   1  15
TORSDOF 6
ENDMDL
MODEL 8
REMARK VINA RESULT:      -4.4     10.228     10.979
REMARK  6 active torsions:
REMARK  status: ('A' for Active; 'I' for Inactive)
REMARK       I    between atoms: N_3  and  C_1 
REMARK    1  A    between atoms: O_10  and  C_1 
REMARK    2  A    between atoms: N_2  and  C_4 
REMARK    3  A    between atoms: C_9  and  N_3 
REMARK    4  A    between atoms: C_17  and  O_10 
REMARK    5  A    between atoms: C_18  and  C_17 
REMARK    6  A    between atoms: C_19  and  C_18 
ROOT
ATOM      1  C   UNL d   1      44.781  26.640  57.468  0.00  0.00     0.064 A 
ATOM      2  C   UNL d   1      45.288  27.226  57.170  0.00  0.00     0.020 A 
ATOM      3  C   UNL d   1      44.365  26.771  58.169  0.00  0.00     0.020 A 
ATOM      4  C   UNL d   1      44.965  28.074  58.273  0.00  0.00     0.137 A 
ATOM      5  C   UNL d   1      44.456  27.484  58.571  0.00  0.00     0.034 A 
ATOM      6  C   UNL d   1      45.378  27.939  57.572  0.00  0.00     0.034 A 
ENDROOT
BRANCH   4   7
ATOM      7  N   UNL d   1      45.058  28.785  58.668  0.00  0.00    -0.344 NA
ATOM      8  C   UNL d   1      45.156  29.501  59.062  0.00  0.00     0.445 C 
ATOM      9  O   UNL d   1      45.659  30.078  58.752  0.00  0.00    -0.220 OA
BRANCH   8  10
ATOM     10  O   UNL d   1      44.751  29.645  59.768  0.00  0.00    -0.246 OA
BRANCH  10  11
ATOM     11  C   UNL d   1      44.832  30.369  60.150  0.00  0.00     0.129 C 
BRANCH  11  12
ATOM     12  C   UNL d   1      44.440  30.509  60.868  0.00  0.00     0.027 C 
BRANCH  12  13
ATOM     13  C   UNL d   1      44.501  31.242  61.237  0.00  0.00     0.002 C 
ATOM     14  C   UNL d   1      44.423  31.298  62.055  0.00  0.00     0.000 C 
ENDBRANCH  12  13
ENDBRANCH  11  12
ENDBRANCH  10  11
ENDBRANCH   8  10
ENDBRANCH   4   7
BRANCH   1  15
ATOM     15  N   UNL d   1      44.695  25.926  57.060  0.00  0.00    -0.300 N 
ATOM     16  C   UNL d   1      44.837  25.896  56.248  0.00  0.00     0.107 A 
ATOM     17  C   UNL d   1      44.751  25.187  55.846  0.00  0.00     0.142 A 
ATOM     18  O   UNL d   1      44.522  24.506  56.253  0.00  0.00    -0.300 OA
ATOM     19  C   UNL d   1      44.379  24.537  57.065  0.00  0.00     0.142 A 
ATOM     20  C   UNL d   1      44.466  25.251  57.470  0.00  0.00     0.107 A 
ENDBRANCH   1  15
TORSDOF 6
ENDMDL
