MODEL 1
REMARK VINA RESULT:     -11.0      0.000      0.000
REMARK  2 active torsions:
REMARK  status: ('A' for Active; 'I' for Inactive)
REMARK    1  A    between atoms: N_11  and  C_4 
REMARK    2  A    between atoms: C_16  and  N_12 
ROOT
ATOM      1  N   UNL d   1      52.083  33.170  53.015  0.00  0.00    -0.195 N 
ATOM      2  C   UNL d   1      52.778  32.945  53.357  0.00  0.00     0.168 A 
ATOM      3  C   UNL d   1      53.005  32.183  53.353  0.00  0.00     0.073 A 
ATOM      4  C   UNL d   1      51.872  33.936  53.029  0.00  0.00     0.153 A 
ATOM      5  N   UNL d   1      51.836  31.870  52.664  0.00  0.00    -0.143 NA
ATOM      6  C   UNL d   1      52.531  31.646  53.005  0.00  0.00     0.185 A 
ATOM      7  N   UNL d   1      53.246  33.493  53.703  0.00  0.00    -0.227 NA
ATOM      8  C   UNL d   1      53.693  31.961  53.691  0.00  0.00     0.007 A 
ATOM      9  N   UNL d   1      52.747  30.869  52.993  0.00  0.00    -0.225 NA
ATOM     10  C   UNL d   1      52.332  34.482  53.370  0.00  0.00     0.057 A 
ATOM     11  C   UNL d   1      53.919  31.197  53.687  0.00  0.00     0.019 A 
ATOM     12  C   UNL d   1      53.028  34.257  53.712  0.00  0.00     0.086 A 
ATOM     13  C   UNL d   1      53.443  30.645  53.335  0.00  0.00     0.083 A 
ATOM     14  C   UNL d   1      54.161  32.512  54.038  0.00  0.00     0.000 C 
ATOM     15  C   UNL d   1      53.512  34.829  54.071  0.00  0.00     0.021 C 
ATOM     16  C   UNL d   1      53.662  29.885  53.328  0.00  0.00     0.021 C 
ENDROOT
BRANCH   4  17
ATOM     17  N   UNL d   1      51.154  34.160  52.674  0.00  0.00    -0.286 N 
ATOM     18  C   UNL d   1      50.502  34.297  53.173  0.00  0.00     0.101 A 
ATOM     19  C   UNL d   1      49.770  34.522  52.854  0.00  0.00     0.100 A 
ATOM     20  N   UNL d   1      49.695  34.609  52.036  0.00  0.00    -0.301 N 
ATOM     21  C   UNL d   1      50.340  34.474  51.530  0.00  0.00     0.100 A 
ATOM     22  C   UNL d   1      51.075  34.248  51.854  0.00  0.00     0.101 A 
BRANCH  20  23
ATOM     23  C   UNL d   1      48.968  34.832  51.716  0.00  0.00     0.065 A 
ATOM     24  C   UNL d   1      48.494  35.398  52.102  0.00  0.00     0.029 A 
ATOM     25  C   UNL d   1      47.757  35.623  51.775  0.00  0.00     0.059 A 
ATOM     26 CL   UNL d   1      47.283  36.185  52.157  0.00  0.00    -0.082 Cl
ATOM     27  C   UNL d   1      47.497  35.278  51.057  0.00  0.00     0.011 A 
ATOM     28  C   UNL d   1      47.979  34.709  50.673  0.00  0.00     0.002 A 
ATOM     29  C   UNL d   1      48.705  34.491  51.000  0.00  0.00     0.018 A 
ENDBRANCH  20  23
ENDBRANCH   4  17
TORSDOF 2
ENDMDL
MODEL 2
REMARK VINA RESULT:     -10.8      0.995      2.113
REMARK  2 active torsions:
REMARK  status: ('A' for Active; 'I' for Inactive)
REMARK    1  A    between atoms: N_11  and  C_4 
REMARK    2  A    between atoms: C_16  and  N_12 
ROOT
ATOM      1  N   UNL d   1      52.454  33.405  53.528  0.00  0.00    -0.195 N 
ATOM      2  C   UNL d   1      53.102  32.967  53.727  0.00  0.00     0.168 A 
ATOM      3  C   UNL d   1      53.673  33.273  54.188  0.00  0.00     0.073 A 
ATOM      4  C   UNL d   1      51.894  33.083  53.066  0.00  0.00     0.153 A 
ATOM      5  N   UNL d   1      52.945  34.458  54.251  0.00  0.00    -0.143 NA
ATOM      6  C   UNL d   1      53.593  34.020  54.450  0.00  0.00     0.185 A 
ATOM      7  N   UNL d   1      53.173  32.218  53.458  0.00  0.00    -0.227 NA
ATOM      8  C   UNL d   1      54.314  32.839  54.385  0.00  0.00     0.007 A 
ATOM      9  N   UNL d   1      54.163  34.344  54.918  0.00  0.00    -0.225 NA
ATOM     10  C   UNL d   1      51.959  32.341  52.798  0.00  0.00     0.057 A 
ATOM     11  C   UNL d   1      54.886  33.146  54.846  0.00  0.00     0.019 A 
ATOM     12  C   UNL d   1      52.607  31.903  52.997  0.00  0.00     0.086 A 
ATOM     13  C   UNL d   1      54.811  33.906  55.117  0.00  0.00     0.083 A 
ATOM     14  C   UNL d   1      54.383  32.087  54.114  0.00  0.00     0.000 C 
ATOM     15  C   UNL d   1      52.677  31.125  52.716  0.00  0.00     0.021 C 
ATOM     16  C   UNL d   1      55.375  34.217  55.576  0.00  0.00     0.021 C 
ENDROOT
BRANCH   4  17
ATOM     17  N   UNL d   1      51.229  33.540  52.866  0.00  0.00    -0.286 N 
ATOM     18  C   UNL d   1      50.561  33.491  53.360  0.00  0.00     0.101 A 
ATOM     19  C   UNL d   1      49.880  33.934  53.190  0.00  0.00     0.100 A 
ATOM     20  N   UNL d   1      49.872  34.424  52.525  0.00  0.00    -0.301 N 
ATOM     21  C   UNL d   1      50.534  34.480  52.026  0.00  0.00     0.100 A 
ATOM     22  C   UNL d   1      51.217  34.033  52.200  0.00  0.00     0.101 A 
BRANCH  20  23
ATOM     23  C   UNL d   1      49.196  34.865  52.354  0.00  0.00     0.065 A 
ATOM     24  C   UNL d   1      48.902  35.416  52.906  0.00  0.00     0.029 A 
ATOM     25  C   UNL d   1      48.216  35.863  52.728  0.00  0.00     0.059 A 
ATOM     26 CL   UNL d   1      47.922  36.412  53.276  0.00  0.00    -0.082 Cl
ATOM     27  C   UNL d   1      47.827  35.755  51.995  0.00  0.00     0.011 A 
ATOM     28  C   UNL d   1      48.127  35.199  51.444  0.00  0.00     0.002 A 
ATOM     29  C   UNL d   1      48.804  34.761  51.624  0.00  0.00     0.018 A 
ENDBRANCH  20  23
ENDBRANCH   4  17
TORSDOF 2
ENDMDL
MODEL 3
REMARK VINA RESULT:      -9.3      2.092      5.746
REMARK  2 active torsions:
REMARK  status: ('A' for Active; 'I' for Inactive)
REMARK    1  A    between atoms: N_11  and  C_4 
REMARK    2  A    between atoms: C_16  and  N_12 
ROOT
ATOM      1  N   UNL d   1      49.712  34.870  52.947  0.00  0.00    -0.195 N 
ATOM      2  C   UNL d   1      48.999  35.061  52.620  0.00  0.00     0.168 A 
ATOM      3  C   UNL d   1      48.460  35.472  53.035  0.00  0.00     0.073 A 
ATOM      4  C   UNL d   1      50.239  34.458  52.518  0.00  0.00     0.153 A 
ATOM      5  N   UNL d   1      49.349  35.501  54.106  0.00  0.00    -0.143 NA
ATOM      6  C   UNL d   1      48.637  35.692  53.780  0.00  0.00     0.185 A 
ATOM      7  N   UNL d   1      48.832  34.835  51.872  0.00  0.00    -0.227 NA
ATOM      8  C   UNL d   1      47.755  35.661  52.712  0.00  0.00     0.007 A 
ATOM      9  N   UNL d   1      48.100  36.109  54.212  0.00  0.00    -0.225 NA
ATOM     10  C   UNL d   1      50.078  34.233  51.776  0.00  0.00     0.057 A 
ATOM     11  C   UNL d   1      47.215  36.073  53.128  0.00  0.00     0.019 A 
ATOM     12  C   UNL d   1      49.365  34.423  51.450  0.00  0.00     0.086 A 
ATOM     13  C   UNL d   1      47.388  36.300  53.886  0.00  0.00     0.083 A 
ATOM     14  C   UNL d   1      47.589  35.433  51.961  0.00  0.00     0.000 C 
ATOM     15  C   UNL d   1      49.194  34.188  50.672  0.00  0.00     0.021 C 
ATOM     16  C   UNL d   1      46.856  36.709  54.304  0.00  0.00     0.021 C 
ENDROOT
BRANCH   4  17
ATOM     17  N   UNL d   1      50.972  34.265  52.861  0.00  0.00    -0.286 N 
ATOM     18  C   UNL d   1      51.036  33.532  53.250  0.00  0.00     0.101 A 
ATOM     19  C   UNL d   1      51.752  33.306  53.604  0.00  0.00     0.100 A 
ATOM     20  N   UNL d   1      52.400  33.817  53.567  0.00  0.00    -0.301 N 
ATOM     21  C   UNL d   1      52.345  34.552  53.181  0.00  0.00     0.100 A 
ATOM     22  C   UNL d   1      51.624  34.775  52.826  0.00  0.00     0.101 A 
BRANCH  20  23
ATOM     23  C   UNL d   1      53.113  33.596  53.918  0.00  0.00     0.065 A 
ATOM     24  C   UNL d   1      53.671  33.147  53.491  0.00  0.00     0.029 A 
ATOM     25  C   UNL d   1      54.394  32.925  53.850  0.00  0.00     0.059 A 
ATOM     26 CL   UNL d   1      54.950  32.478  53.428  0.00  0.00    -0.082 Cl
ATOM     27  C   UNL d   1      54.555  33.154  54.639  0.00  0.00     0.011 A 
ATOM     28  C   UNL d   1      53.989  33.605  55.064  0.00  0.00     0.002 A 
ATOM     29  C   UNL d   1      53.278  33.822  54.705  0.00  0.00     0.018 A 
ENDBRANCH  20  23
ENDBRANCH   4  17
TORSDOF 2
ENDMDL
