MODEL 1
REMARK VINA RESULT:      -1.6      0.000      0.000
REMARK  5 active torsions:
REMARK  status: ('A' for Active; 'I' for Inactive)
REMARK    1  A    between atoms: S_2  and  N_1 
REMARK    2  A    between atoms: C_10  and  S_2 
REMARK    3  A    between atoms: N_7  and  C_3 
REMARK    4  A    between atoms: C_12  and  C_6 
REMARK    5  A    between atoms: C_13  and  N_7 
ROOT
ATOM      1  N   UNL d   1      32.800  21.286 -21.876  0.00  0.00    -0.176 N 
ATOM      2  C   UNL d   1      33.048  21.547 -22.614  0.00  0.00     0.191 A 
ATOM      3  C   UNL d   1      32.740  20.473 -21.882  0.00  0.00     0.281 A 
ATOM      4  S   UNL d   1      33.142  20.873 -23.082  0.00  0.00    -0.044 SA
ATOM      5  C   UNL d   1      32.944  20.213 -22.603  0.00  0.00     0.089 A 
ATOM      6  O   UNL d   1      32.506  19.961 -21.251  0.00  0.00    -0.265 OA
ENDROOT
BRANCH   1   7
ATOM      7  S   UNL d   1      32.634  21.759 -21.225  0.00  0.00     0.275 S 
ATOM      8  O   UNL d   1      33.241  21.414 -20.770  0.00  0.00    -0.199 OA
ATOM      9  O   UNL d   1      32.016  22.133 -21.643  0.00  0.00    -0.199 OA
BRANCH   7  10
ATOM     10  C   UNL d   1      32.463  22.234 -20.582  0.00  0.00     0.104 A 
ATOM     11  C   UNL d   1      33.059  22.413 -20.031  0.00  0.00     0.013 A 
ATOM     12  C   UNL d   1      32.910  22.894 -19.368  0.00  0.00     0.001 A 
ATOM     13  C   UNL d   1      32.126  23.211 -19.248  0.00  0.00     0.000 A 
ATOM     14  C   UNL d   1      31.574  23.016 -19.802  0.00  0.00     0.001 A 
ATOM     15  C   UNL d   1      31.719  22.550 -20.445  0.00  0.00     0.013 A 
ENDBRANCH   7  10
ENDBRANCH   1   7
BRANCH   2  16
ATOM     16  N   UNL d   1      33.153  22.337 -22.759  0.00  0.00    -0.222 NA
BRANCH  16  17
ATOM     17  C   UNL d   1      33.137  22.616 -23.543  0.00  0.00     0.084 A 
ATOM     18  C   UNL d   1      33.018  22.087 -24.160  0.00  0.00     0.019 A 
ATOM     19  C   UNL d   1      33.001  22.351 -24.942  0.00  0.00     0.002 A 
ATOM     20  C   UNL d   1      33.107  23.174 -25.097  0.00  0.00     0.000 A 
ATOM     21  C   UNL d   1      33.226  23.701 -24.479  0.00  0.00     0.002 A 
ATOM     22  C   UNL d   1      33.240  23.416 -23.700  0.00  0.00     0.019 A 
ENDBRANCH  16  17
ENDBRANCH   2  16
BRANCH   5  23
ATOM     23  C   UNL d   1      32.946  19.418 -22.804  0.00  0.00     0.011 A 
ATOM     24  C   UNL d   1      33.171  18.863 -22.259  0.00  0.00     0.001 A 
ATOM     25  C   UNL d   1      33.175  18.060 -22.457  0.00  0.00     0.000 A 
ATOM     26  C   UNL d   1      32.954  17.810 -23.204  0.00  0.00     0.000 A 
ATOM     27  C   UNL d   1      32.723  18.384 -23.763  0.00  0.00     0.000 A 
ATOM     28  C   UNL d   1      32.717  19.190 -23.569  0.00  0.00     0.001 A 
ENDBRANCH   5  23
TORSDOF 5
ENDMDL
MODEL 2
REMARK VINA RESULT:       1.0      0.932      3.284
REMARK  5 active torsions:
REMARK  status: ('A' for Active; 'I' for Inactive)
REMARK    1  A    between atoms: S_2  and  N_1 
REMARK    2  A    between atoms: C_10  and  S_2 
REMARK    3  A    between atoms: N_7  and  C_3 
REMARK    4  A    between atoms: C_12  and  C_6 
REMARK    5  A    between atoms: C_13  and  N_7 
ROOT
ATOM      1  N   UNL d   1      32.795  22.283 -21.541  0.00  0.00    -0.176 N 
ATOM      2  C   UNL d   1      32.964  21.561 -21.895  0.00  0.00     0.191 A 
ATOM      3  C   UNL d   1      32.647  22.840 -22.119  0.00  0.00     0.281 A 
ATOM      4  S   UNL d   1      32.917  21.683 -22.710  0.00  0.00    -0.044 SA
ATOM      5  C   UNL d   1      32.717  22.490 -22.826  0.00  0.00     0.089 A 
ATOM      6  O   UNL d   1      32.450  23.656 -22.019  0.00  0.00    -0.265 OA
ENDROOT
BRANCH   1   7
ATOM      7  S   UNL d   1      32.775  22.434 -20.734  0.00  0.00     0.275 S 
ATOM      8  O   UNL d   1      32.345  21.737 -20.575  0.00  0.00    -0.199 OA
ATOM      9  O   UNL d   1      33.205  23.139 -20.846  0.00  0.00    -0.199 OA
BRANCH   7  10
ATOM     10  C   UNL d   1      32.760  22.590 -19.932  0.00  0.00     0.104 A 
ATOM     11  C   UNL d   1      33.054  22.027 -19.395  0.00  0.00     0.013 A 
ATOM     12  C   UNL d   1      33.049  22.163 -18.574  0.00  0.00     0.001 A 
ATOM     13  C   UNL d   1      32.735  22.898 -18.273  0.00  0.00     0.000 A 
ATOM     14  C   UNL d   1      32.459  23.420 -18.822  0.00  0.00     0.001 A 
ATOM     15  C   UNL d   1      32.464  23.287 -19.619  0.00  0.00     0.013 A 
ENDBRANCH   7  10
ENDBRANCH   1   7
BRANCH   2  16
ATOM     16  N   UNL d   1      33.132  20.909 -21.445  0.00  0.00    -0.222 NA
BRANCH  16  17
ATOM     17  C   UNL d   1      33.167  20.160 -21.804  0.00  0.00     0.084 A 
ATOM     18  C   UNL d   1      33.163  20.101 -22.623  0.00  0.00     0.019 A 
ATOM     19  C   UNL d   1      33.197  19.364 -22.993  0.00  0.00     0.002 A 
ATOM     20  C   UNL d   1      33.236  18.670 -22.513  0.00  0.00     0.000 A 
ATOM     21  C   UNL d   1      33.241  18.730 -21.694  0.00  0.00     0.002 A 
ATOM     22  C   UNL d   1      33.206  19.481 -21.343  0.00  0.00     0.019 A 
ENDBRANCH  16  17
ENDBRANCH   2  16
BRANCH   5  23
ATOM     23  C   UNL d   1      32.605  22.891 -23.533  0.00  0.00     0.011 A 
ATOM     24  C   UNL d   1      33.241  23.188 -23.936  0.00  0.00     0.001 A 
ATOM     25  C   UNL d   1      33.133  23.593 -24.648  0.00  0.00     0.000 A 
ATOM     26  C   UNL d   1      32.384  23.702 -24.961  0.00  0.00     0.000 A 
ATOM     27  C   UNL d   1      31.731  23.395 -24.543  0.00  0.00     0.000 A 
ATOM     28  C   UNL d   1      31.835  22.988 -23.828  0.00  0.00     0.001 A 
ENDBRANCH   5  23
TORSDOF 5
ENDMDL
