MODEL 1
REMARK VINA RESULT:      22.9      0.000      0.000
REMARK  4 active torsions:
REMARK  status: ('A' for Active; 'I' for Inactive)
REMARK    1  A    between atoms: S_6  and  C_2 
REMARK    2  A    between atoms: C_8  and  C_3 
REMARK    3  A    between atoms: C_10  and  S_6 
REMARK    4  A    between atoms: C_7  and  C_10 
ROOT
ATOM      1  N   UNL d   1     -51.259  25.454  33.339  0.00  0.00    -0.282 N 
ATOM      2  C   UNL d   1     -51.121  26.269  33.329  0.00  0.00     0.180 A 
ATOM      3  C   UNL d   1     -52.070  25.334  33.328  0.00  0.00     0.085 A 
ATOM      4  N   UNL d   1     -51.854  26.655  33.311  0.00  0.00    -0.219 NA
ATOM      5  C   UNL d   1     -52.443  26.068  33.311  0.00  0.00     0.119 A 
ATOM      6  C   UNL d   1     -50.659  24.855  33.358  0.00  0.00     0.101 C 
ENDROOT
BRANCH   3   7
ATOM      7  C   UNL d   1     -52.480  24.618  33.333  0.00  0.00     0.018 A 
ATOM      8  C   UNL d   1     -53.302  24.625  33.353  0.00  0.00     0.002 A 
ATOM      9  C   UNL d   1     -53.717  23.908  33.358  0.00  0.00     0.000 A 
ATOM     10  C   UNL d   1     -53.291  23.188  33.343  0.00  0.00     0.000 A 
ATOM     11  C   UNL d   1     -52.481  23.193  33.323  0.00  0.00     0.000 A 
ATOM     12  C   UNL d   1     -52.063  23.911  33.318  0.00  0.00     0.002 A 
ENDBRANCH   3   7
BRANCH   2  13
ATOM     13  S   UNL d   1     -50.374  26.645  33.334  0.00  0.00    -0.044 SA
BRANCH  13  14
ATOM     14  C   UNL d   1     -50.190  27.184  33.939  0.00  0.00     0.102 C 
BRANCH  14  15
ATOM     15  C   UNL d   1     -49.697  27.822  33.781  0.00  0.00     0.303 C 
ATOM     16  O   UNL d   1     -50.010  28.490  33.391  0.00  0.00    -0.263 OA
ATOM     17  N   UNL d   1     -48.907  27.797  34.006  0.00  0.00    -0.102 N 
ENDBRANCH  14  15
ENDBRANCH  13  14
ENDBRANCH   2  13
TORSDOF 4
ENDMDL
