MODEL 1
REMARK VINA RESULT:      -8.7      0.000      0.000
REMARK  4 active torsions:
REMARK  status: ('A' for Active; 'I' for Inactive)
REMARK    1  A    between atoms: N_4  and  C_1 
REMARK    2  A    between atoms: S_8  and  C_2 
REMARK    3  A    between atoms: N_6  and  C_9 
REMARK    4  A    between atoms: C_16  and  S_8 
ROOT
ATOM      1  S   UNL d   1      53.530  32.760  53.216  0.00  0.00    -0.066 SA
ENDROOT
BRANCH   1   2
ATOM      2  C   UNL d   1      53.325  33.339  53.770  0.00  0.00     0.136 A 
ATOM      3  C   UNL d   1      52.648  33.800  53.868  0.00  0.00     0.232 A 
ATOM      4  N   UNL d   1      52.784  34.281  54.534  0.00  0.00    -0.201 NA
ATOM      5  C   UNL d   1      53.537  34.108  54.831  0.00  0.00     0.185 A 
ATOM      6  N   UNL d   1      53.847  33.532  54.351  0.00  0.00    -0.279 N 
ATOM      7  C   UNL d   1      54.600  33.193  54.450  0.00  0.00     0.101 C 
BRANCH   3   8
ATOM      8  N   UNL d   1      51.965  33.792  53.400  0.00  0.00    -0.093 N 
ATOM      9  O   UNL d   1      51.983  34.101  52.633  0.00  0.00    -0.530 OA
ATOM     10  O   UNL d   1      51.254  33.473  53.699  0.00  0.00    -0.530 OA
ENDBRANCH   3   8
ENDBRANCH   1   2
BRANCH   1  11
ATOM     11  C   UNL d   1      53.392  31.967  53.344  0.00  0.00     0.031 A 
ATOM     12  C   UNL d   1      52.906  31.553  52.811  0.00  0.00     0.008 A 
ATOM     13  C   UNL d   1      52.760  30.748  52.932  0.00  0.00     0.024 A 
ATOM     14  C   UNL d   1      53.089  30.366  53.567  0.00  0.00     0.127 A 
ATOM     15  C   UNL d   1      53.573  30.784  54.097  0.00  0.00     0.024 A 
ATOM     16  C   UNL d   1      53.713  31.565  53.977  0.00  0.00     0.008 A 
BRANCH  14  17
ATOM     17  N   UNL d   1      52.942  29.565  53.686  0.00  0.00    -0.114 N 
ATOM     18  O   UNL d   1      52.453  29.159  53.160  0.00  0.00    -0.532 OA
ATOM     19  O   UNL d   1      53.280  29.172  54.323  0.00  0.00    -0.532 OA
ENDBRANCH  14  17
ENDBRANCH   1  11
TORSDOF 4
ENDMDL
MODEL 2
REMARK VINA RESULT:      -8.3      2.239      3.392
REMARK  4 active torsions:
REMARK  status: ('A' for Active; 'I' for Inactive)
REMARK    1  A    between atoms: N_4  and  C_1 
REMARK    2  A    between atoms: S_8  and  C_2 
REMARK    3  A    between atoms: N_6  and  C_9 
REMARK    4  A    between atoms: C_16  and  S_8 
ROOT
ATOM      1  S   UNL d   1      53.405  33.500  53.364  0.00  0.00    -0.066 SA
ENDROOT
BRANCH   1   2
ATOM      2  C   UNL d   1      53.628  33.136  54.072  0.00  0.00     0.136 A 
ATOM      3  C   UNL d   1      53.862  33.436  54.804  0.00  0.00     0.232 A 
ATOM      4  N   UNL d   1      54.013  32.780  55.293  0.00  0.00    -0.201 NA
ATOM      5  C   UNL d   1      53.869  32.091  54.856  0.00  0.00     0.185 A 
ATOM      6  N   UNL d   1      53.636  32.332  54.118  0.00  0.00    -0.279 N 
ATOM      7  C   UNL d   1      53.436  31.815  53.496  0.00  0.00     0.101 C 
BRANCH   3   8
ATOM      8  N   UNL d   1      53.935  34.233  55.017  0.00  0.00    -0.093 N 
ATOM      9  O   UNL d   1      54.563  34.685  54.724  0.00  0.00    -0.530 OA
ATOM     10  O   UNL d   1      53.377  34.586  55.527  0.00  0.00    -0.530 OA
ENDBRANCH   3   8
ENDBRANCH   1   2
BRANCH   1  11
ATOM     11  C   UNL d   1      52.632  33.700  53.202  0.00  0.00     0.031 A 
ATOM     12  C   UNL d   1      52.468  34.456  52.897  0.00  0.00     0.008 A 
ATOM     13  C   UNL d   1      51.686  34.667  52.730  0.00  0.00     0.024 A 
ATOM     14  C   UNL d   1      51.085  34.141  52.862  0.00  0.00     0.127 A 
ATOM     15  C   UNL d   1      51.253  33.387  53.167  0.00  0.00     0.024 A 
ATOM     16  C   UNL d   1      52.012  33.184  53.329  0.00  0.00     0.008 A 
BRANCH  14  17
ATOM     17  N   UNL d   1      50.307  34.354  52.694  0.00  0.00    -0.114 N 
ATOM     18  O   UNL d   1      49.979  34.153  51.964  0.00  0.00    -0.532 OA
ATOM     19  O   UNL d   1      49.860  34.763  53.249  0.00  0.00    -0.532 OA
ENDBRANCH  14  17
ENDBRANCH   1  11
TORSDOF 4
ENDMDL
MODEL 3
REMARK VINA RESULT:      -7.7      1.947      3.245
REMARK  4 active torsions:
REMARK  status: ('A' for Active; 'I' for Inactive)
REMARK    1  A    between atoms: N_4  and  C_1 
REMARK    2  A    between atoms: S_8  and  C_2 
REMARK    3  A    between atoms: N_6  and  C_9 
REMARK    4  A    between atoms: C_16  and  S_8 
ROOT
ATOM      1  S   UNL d   1      53.005  33.273  52.902  0.00  0.00    -0.066 SA
ENDROOT
BRANCH   1   2
ATOM      2  C   UNL d   1      52.226  33.011  52.995  0.00  0.00     0.136 A 
ATOM      3  C   UNL d   1      51.889  32.258  53.012  0.00  0.00     0.232 A 
ATOM      4  N   UNL d   1      51.072  32.366  53.123  0.00  0.00    -0.201 NA
ATOM      5  C   UNL d   1      50.921  33.179  53.172  0.00  0.00     0.185 A 
ATOM      6  N   UNL d   1      51.636  33.551  53.092  0.00  0.00    -0.279 N 
ATOM      7  C   UNL d   1      51.741  34.377  53.108  0.00  0.00     0.101 C 
BRANCH   3   8
ATOM      8  N   UNL d   1      52.282  31.534  52.934  0.00  0.00    -0.093 N 
ATOM      9  O   UNL d   1      52.662  31.341  52.225  0.00  0.00    -0.530 OA
ATOM     10  O   UNL d   1      52.298  30.992  53.569  0.00  0.00    -0.530 OA
ENDBRANCH   3   8
ENDBRANCH   1   2
BRANCH   1  11
ATOM     11  C   UNL d   1      53.506  33.382  53.536  0.00  0.00     0.031 A 
ATOM     12  C   UNL d   1      54.263  33.041  53.513  0.00  0.00     0.008 A 
ATOM     13  C   UNL d   1      54.778  33.146  54.151  0.00  0.00     0.024 A 
ATOM     14  C   UNL d   1      54.545  33.578  54.795  0.00  0.00     0.127 A 
ATOM     15  C   UNL d   1      53.787  33.917  54.815  0.00  0.00     0.024 A 
ATOM     16  C   UNL d   1      53.289  33.814  54.194  0.00  0.00     0.008 A 
BRANCH  14  17
ATOM     17  N   UNL d   1      55.059  33.682  55.430  0.00  0.00    -0.114 N 
ATOM     18  O   UNL d   1      54.905  33.297  56.144  0.00  0.00    -0.532 OA
ATOM     19  O   UNL d   1      55.720  34.163  55.355  0.00  0.00    -0.532 OA
ENDBRANCH  14  17
ENDBRANCH   1  11
TORSDOF 4
ENDMDL
MODEL 4
REMARK VINA RESULT:      -7.7      1.613      3.406
REMARK  4 active torsions:
REMARK  status: ('A' for Active; 'I' for Inactive)
REMARK    1  A    between atoms: N_4  and  C_1 
REMARK    2  A    between atoms: S_8  and  C_2 
REMARK    3  A    between atoms: N_6  and  C_9 
REMARK    4  A    between atoms: C_16  and  S_8 
ROOT
ATOM      1  S   UNL d   1      53.416  33.504  53.364  0.00  0.00    -0.066 SA
ENDROOT
BRANCH   1   2
ATOM      2  C   UNL d   1      53.648  33.161  54.079  0.00  0.00     0.136 A 
ATOM      3  C   UNL d   1      53.851  32.388  54.287  0.00  0.00     0.232 A 
ATOM      4  N   UNL d   1      54.034  32.401  55.098  0.00  0.00    -0.201 NA
ATOM      5  C   UNL d   1      53.942  33.177  55.374  0.00  0.00     0.185 A 
ATOM      6  N   UNL d   1      53.707  33.620  54.738  0.00  0.00    -0.279 N 
ATOM      7  C   UNL d   1      53.550  34.437  54.766  0.00  0.00     0.101 C 
BRANCH   3   8
ATOM      8  N   UNL d   1      53.870  31.726  53.790  0.00  0.00    -0.093 N 
ATOM      9  O   UNL d   1      54.412  31.691  53.166  0.00  0.00    -0.530 OA
ATOM     10  O   UNL d   1      53.345  31.090  53.915  0.00  0.00    -0.530 OA
ENDBRANCH   3   8
ENDBRANCH   1   2
BRANCH   1  11
ATOM     11  C   UNL d   1      52.640  33.701  53.208  0.00  0.00     0.031 A 
ATOM     12  C   UNL d   1      52.468  34.464  52.928  0.00  0.00     0.008 A 
ATOM     13  C   UNL d   1      51.685  34.673  52.767  0.00  0.00     0.024 A 
ATOM     14  C   UNL d   1      51.088  34.137  52.881  0.00  0.00     0.127 A 
ATOM     15  C   UNL d   1      51.265  33.374  53.161  0.00  0.00     0.024 A 
ATOM     16  C   UNL d   1      52.026  33.174  53.317  0.00  0.00     0.008 A 
BRANCH  14  17
ATOM     17  N   UNL d   1      50.309  34.346  52.720  0.00  0.00    -0.114 N 
ATOM     18  O   UNL d   1      49.875  34.762  53.287  0.00  0.00    -0.532 OA
ATOM     19  O   UNL d   1      49.965  34.145  52.003  0.00  0.00    -0.532 OA
ENDBRANCH  14  17
ENDBRANCH   1  11
TORSDOF 4
ENDMDL
MODEL 5
REMARK VINA RESULT:      -7.5      1.643      3.720
REMARK  4 active torsions:
REMARK  status: ('A' for Active; 'I' for Inactive)
REMARK    1  A    between atoms: N_4  and  C_1 
REMARK    2  A    between atoms: S_8  and  C_2 
REMARK    3  A    between atoms: N_6  and  C_9 
REMARK    4  A    between atoms: C_16  and  S_8 
ROOT
ATOM      1  S   UNL d   1      53.887  31.363  53.287  0.00  0.00    -0.066 SA
ENDROOT
BRANCH   1   2
ATOM      2  C   UNL d   1      53.157  30.976  53.312  0.00  0.00     0.136 A 
ATOM      3  C   UNL d   1      52.927  30.238  53.602  0.00  0.00     0.232 A 
ATOM      4  N   UNL d   1      52.109  30.173  53.462  0.00  0.00    -0.201 NA
ATOM      5  C   UNL d   1      51.852  30.867  53.091  0.00  0.00     0.185 A 
ATOM      6  N   UNL d   1      52.505  31.340  53.011  0.00  0.00    -0.279 N 
ATOM      7  C   UNL d   1      52.498  32.097  52.664  0.00  0.00     0.101 C 
BRANCH   3   8
ATOM      8  N   UNL d   1      53.410  29.670  53.962  0.00  0.00    -0.093 N 
ATOM      9  O   UNL d   1      54.102  29.416  53.587  0.00  0.00    -0.530 OA
ATOM     10  O   UNL d   1      53.203  29.350  54.704  0.00  0.00    -0.530 OA
ENDBRANCH   3   8
ENDBRANCH   1   2
BRANCH   1  11
ATOM     11  C   UNL d   1      54.063  31.993  53.775  0.00  0.00     0.031 A 
ATOM     12  C   UNL d   1      54.511  32.623  53.471  0.00  0.00     0.008 A 
ATOM     13  C   UNL d   1      54.694  33.265  53.958  0.00  0.00     0.024 A 
ATOM     14  C   UNL d   1      54.438  33.280  54.727  0.00  0.00     0.127 A 
ATOM     15  C   UNL d   1      53.991  32.647  55.027  0.00  0.00     0.024 A 
ATOM     16  C   UNL d   1      53.814  32.024  54.552  0.00  0.00     0.008 A 
BRANCH  14  17
ATOM     17  N   UNL d   1      54.622  33.920  55.211  0.00  0.00    -0.114 N 
ATOM     18  O   UNL d   1      54.058  34.511  55.333  0.00  0.00    -0.532 OA
ATOM     19  O   UNL d   1      55.359  33.972  55.569  0.00  0.00    -0.532 OA
ENDBRANCH  14  17
ENDBRANCH   1  11
TORSDOF 4
ENDMDL
