MODEL 1
REMARK VINA RESULT:      -8.0      0.000      0.000
REMARK  5 active torsions:
REMARK  status: ('A' for Active; 'I' for Inactive)
REMARK    1  A    between atoms: N_2  and  S_1 
REMARK    2  A    between atoms: C_8  and  S_1 
REMARK    3  A    between atoms: S_7  and  C_3 
REMARK    4  A    between atoms: C_11  and  S_7 
REMARK    5  A    between atoms: C_12  and  C_11 
ROOT
ATOM      1  N   UNL d   1     -49.257  13.762  22.355  0.00  0.00    -0.208 N 
ATOM      2  C   UNL d   1     -48.501  13.989  22.620  0.00  0.00     0.189 A 
ATOM      3  N   UNL d   1     -48.579  14.687  23.061  0.00  0.00    -0.219 NA
ATOM      4  C   UNL d   1     -49.806  14.325  22.635  0.00  0.00     0.114 A 
ATOM      5  C   UNL d   1     -49.385  14.891  23.067  0.00  0.00     0.121 A 
ENDROOT
BRANCH   1   6
ATOM      6  S   UNL d   1     -49.431  13.093  21.893  0.00  0.00     0.273 S 
ATOM      7  O   UNL d   1     -49.005  13.446  21.288  0.00  0.00    -0.200 OA
ATOM      8  O   UNL d   1     -49.467  12.556  21.263  0.00  0.00    -0.200 OA
BRANCH   6   9
ATOM      9  C   UNL d   1     -49.864  12.722  22.493  0.00  0.00     0.104 A 
ATOM     10  C   UNL d   1     -50.634  12.966  22.645  0.00  0.00     0.013 A 
ATOM     11  C   UNL d   1     -51.064  12.596  23.242  0.00  0.00     0.001 A 
ATOM     12  C   UNL d   1     -50.723  11.987  23.681  0.00  0.00     0.000 A 
ATOM     13  C   UNL d   1     -49.954  11.747  23.526  0.00  0.00     0.001 A 
ATOM     14  C   UNL d   1     -49.522  12.121  22.924  0.00  0.00     0.013 A 
ENDBRANCH   6   9
ENDBRANCH   1   6
BRANCH   2  15
ATOM     15  S   UNL d   1     -47.789  13.583  22.468  0.00  0.00    -0.049 SA
BRANCH  15  16
ATOM     16  C   UNL d   1     -47.091  13.820  22.846  0.00  0.00     0.038 C 
BRANCH  16  17
ATOM     17  C   UNL d   1     -46.397  13.389  22.729  0.00  0.00     0.007 A 
ATOM     18  C   UNL d   1     -46.276  12.673  23.119  0.00  0.00     0.001 A 
ATOM     19  C   UNL d   1     -45.569  12.249  22.990  0.00  0.00     0.000 A 
ATOM     20  C   UNL d   1     -44.993  12.546  22.475  0.00  0.00     0.000 A 
ATOM     21  C   UNL d   1     -45.109  13.260  22.085  0.00  0.00     0.000 A 
ATOM     22  C   UNL d   1     -45.805  13.683  22.208  0.00  0.00     0.001 A 
ENDBRANCH  16  17
ENDBRANCH  15  16
ENDBRANCH   2  15
TORSDOF 5
ENDMDL
MODEL 2
REMARK VINA RESULT:      -7.4      1.121      2.122
REMARK  5 active torsions:
REMARK  status: ('A' for Active; 'I' for Inactive)
REMARK    1  A    between atoms: N_2  and  S_1 
REMARK    2  A    between atoms: C_8  and  S_1 
REMARK    3  A    between atoms: S_7  and  C_3 
REMARK    4  A    between atoms: C_11  and  S_7 
REMARK    5  A    between atoms: C_12  and  C_11 
ROOT
ATOM      1  N   UNL d   1     -49.937  12.643  22.524  0.00  0.00    -0.208 N 
ATOM      2  C   UNL d   1     -49.424  12.310  23.091  0.00  0.00     0.189 A 
ATOM      3  N   UNL d   1     -49.887  11.983  23.698  0.00  0.00    -0.219 NA
ATOM      4  C   UNL d   1     -50.721  12.521  22.785  0.00  0.00     0.114 A 
ATOM      5  C   UNL d   1     -50.684  12.115  23.505  0.00  0.00     0.121 A 
ENDROOT
BRANCH   1   6
ATOM      6  S   UNL d   1     -49.705  13.029  21.825  0.00  0.00     0.273 S 
ATOM      7  O   UNL d   1     -49.425  12.304  21.563  0.00  0.00    -0.200 OA
ATOM      8  O   UNL d   1     -49.396  13.178  21.071  0.00  0.00    -0.200 OA
BRANCH   6   9
ATOM      9  C   UNL d   1     -49.983  13.768  22.074  0.00  0.00     0.104 A 
ATOM     10  C   UNL d   1     -49.446  14.336  22.327  0.00  0.00     0.013 A 
ATOM     11  C   UNL d   1     -49.723  15.071  22.575  0.00  0.00     0.001 A 
ATOM     12  C   UNL d   1     -50.532  15.233  22.567  0.00  0.00     0.000 A 
ATOM     13  C   UNL d   1     -51.064  14.661  22.313  0.00  0.00     0.001 A 
ATOM     14  C   UNL d   1     -50.783  13.921  22.064  0.00  0.00     0.013 A 
ENDBRANCH   6   9
ENDBRANCH   1   6
BRANCH   2  15
ATOM     15  S   UNL d   1     -48.592  12.307  23.053  0.00  0.00    -0.049 SA
BRANCH  15  16
ATOM     16  C   UNL d   1     -48.152  12.031  23.697  0.00  0.00     0.038 C 
BRANCH  16  17
ATOM     17  C   UNL d   1     -47.344  11.886  23.609  0.00  0.00     0.007 A 
ATOM     18  C   UNL d   1     -47.042  11.124  23.697  0.00  0.00     0.001 A 
ATOM     19  C   UNL d   1     -46.223  10.993  23.605  0.00  0.00     0.000 A 
ATOM     20  C   UNL d   1     -45.718  11.625  23.425  0.00  0.00     0.000 A 
ATOM     21  C   UNL d   1     -46.016  12.386  23.336  0.00  0.00     0.000 A 
ATOM     22  C   UNL d   1     -46.822  12.521  23.426  0.00  0.00     0.001 A 
ENDBRANCH  16  17
ENDBRANCH  15  16
ENDBRANCH   2  15
TORSDOF 5
ENDMDL
MODEL 3
REMARK VINA RESULT:      -6.1      1.188      1.877
REMARK  5 active torsions:
REMARK  status: ('A' for Active; 'I' for Inactive)
REMARK    1  A    between atoms: N_2  and  S_1 
REMARK    2  A    between atoms: C_8  and  S_1 
REMARK    3  A    between atoms: S_7  and  C_3 
REMARK    4  A    between atoms: C_11  and  S_7 
REMARK    5  A    between atoms: C_12  and  C_11 
ROOT
ATOM      1  N   UNL d   1     -49.058  13.038  23.249  0.00  0.00    -0.208 N 
ATOM      2  C   UNL d   1     -48.310  12.672  23.287  0.00  0.00     0.189 A 
ATOM      3  N   UNL d   1     -48.415  11.897  23.563  0.00  0.00    -0.219 NA
ATOM      4  C   UNL d   1     -49.628  12.483  23.504  0.00  0.00     0.114 A 
ATOM      5  C   UNL d   1     -49.228  11.785  23.695  0.00  0.00     0.121 A 
ENDROOT
BRANCH   1   6
ATOM      6  S   UNL d   1     -49.207  13.817  23.001  0.00  0.00     0.273 S 
ATOM      7  O   UNL d   1     -48.685  14.063  23.584  0.00  0.00    -0.200 OA
ATOM      8  O   UNL d   1     -49.190  14.644  22.940  0.00  0.00    -0.200 OA
BRANCH   6   9
ATOM      9  C   UNL d   1     -49.736  13.587  22.407  0.00  0.00     0.104 A 
ATOM     10  C   UNL d   1     -49.451  13.419  21.656  0.00  0.00     0.013 A 
ATOM     11  C   UNL d   1     -49.978  13.190  21.066  0.00  0.00     0.001 A 
ATOM     12  C   UNL d   1     -50.784  13.131  21.231  0.00  0.00     0.000 A 
ATOM     13  C   UNL d   1     -51.064  13.301  21.984  0.00  0.00     0.001 A 
ATOM     14  C   UNL d   1     -50.531  13.531  22.577  0.00  0.00     0.013 A 
ENDBRANCH   6   9
ENDBRANCH   1   6
BRANCH   2  15
ATOM     15  S   UNL d   1     -47.584  13.026  23.083  0.00  0.00    -0.049 SA
BRANCH  15  16
ATOM     16  C   UNL d   1     -46.876  12.615  23.211  0.00  0.00     0.038 C 
BRANCH  16  17
ATOM     17  C   UNL d   1     -46.190  12.852  22.818  0.00  0.00     0.007 A 
ATOM     18  C   UNL d   1     -46.063  13.646  22.635  0.00  0.00     0.001 A 
ATOM     19  C   UNL d   1     -45.364  13.869  22.237  0.00  0.00     0.000 A 
ATOM     20  C   UNL d   1     -44.803  13.297  22.028  0.00  0.00     0.000 A 
ATOM     21  C   UNL d   1     -44.926  12.505  22.208  0.00  0.00     0.000 A 
ATOM     22  C   UNL d   1     -45.613  12.278  22.600  0.00  0.00     0.001 A 
ENDBRANCH  16  17
ENDBRANCH  15  16
ENDBRANCH   2  15
TORSDOF 5
ENDMDL
MODEL 4
REMARK VINA RESULT:      -5.9      8.402     10.035
REMARK  5 active torsions:
REMARK  status: ('A' for Active; 'I' for Inactive)
REMARK    1  A    between atoms: N_2  and  S_1 
REMARK    2  A    between atoms: C_8  and  S_1 
REMARK    3  A    between atoms: S_7  and  C_3 
REMARK    4  A    between atoms: C_11  and  S_7 
REMARK    5  A    between atoms: C_12  and  C_11 
ROOT
ATOM      1  N   UNL d   1     -39.790  14.801  20.520  0.00  0.00    -0.208 N 
ATOM      2  C   UNL d   1     -40.048  14.497  19.788  0.00  0.00     0.189 A 
ATOM      3  N   UNL d   1     -40.840  14.262  19.870  0.00  0.00    -0.219 NA
ATOM      4  C   UNL d   1     -40.427  14.753  21.056  0.00  0.00     0.114 A 
ATOM      5  C   UNL d   1     -41.069  14.421  20.652  0.00  0.00     0.121 A 
ENDROOT
BRANCH   1   6
ATOM      6  S   UNL d   1     -39.031  15.098  20.682  0.00  0.00     0.273 S 
ATOM      7  O   UNL d   1     -39.170  15.665  20.106  0.00  0.00    -0.200 OA
ATOM      8  O   UNL d   1     -38.342  15.559  20.662  0.00  0.00    -0.200 OA
BRANCH   6   9
ATOM      9  C   UNL d   1     -38.874  14.534  21.267  0.00  0.00     0.104 A 
ATOM     10  C   UNL d   1     -38.430  13.869  21.076  0.00  0.00     0.013 A 
ATOM     11  C   UNL d   1     -38.274  13.307  21.658  0.00  0.00     0.001 A 
ATOM     12  C   UNL d   1     -38.562  13.415  22.424  0.00  0.00     0.000 A 
ATOM     13  C   UNL d   1     -39.004  14.081  22.609  0.00  0.00     0.001 A 
ATOM     14  C   UNL d   1     -39.160  14.645  22.021  0.00  0.00     0.013 A 
ENDBRANCH   6   9
ENDBRANCH   1   6
BRANCH   2  15
ATOM     15  S   UNL d   1     -39.590  14.440  19.094  0.00  0.00    -0.049 SA
BRANCH  15  16
ATOM     16  C   UNL d   1     -39.913  14.097  18.414  0.00  0.00     0.038 C 
BRANCH  16  17
ATOM     17  C   UNL d   1     -39.441  13.993  17.745  0.00  0.00     0.007 A 
ATOM     18  C   UNL d   1     -39.424  14.564  17.150  0.00  0.00     0.001 A 
ATOM     19  C   UNL d   1     -38.942  14.445  16.479  0.00  0.00     0.000 A 
ATOM     20  C   UNL d   1     -38.485  13.757  16.412  0.00  0.00     0.000 A 
ATOM     21  C   UNL d   1     -38.499  13.187  17.003  0.00  0.00     0.000 A 
ATOM     22  C   UNL d   1     -38.972  13.298  17.667  0.00  0.00     0.001 A 
ENDBRANCH  16  17
ENDBRANCH  15  16
ENDBRANCH   2  15
TORSDOF 5
ENDMDL
MODEL 5
REMARK VINA RESULT:      -5.7      8.688     10.228
REMARK  5 active torsions:
REMARK  status: ('A' for Active; 'I' for Inactive)
REMARK    1  A    between atoms: N_2  and  S_1 
REMARK    2  A    between atoms: C_8  and  S_1 
REMARK    3  A    between atoms: S_7  and  C_3 
REMARK    4  A    between atoms: C_11  and  S_7 
REMARK    5  A    between atoms: C_12  and  C_11 
ROOT
ATOM      1  N   UNL d   1     -40.229  14.717  17.590  0.00  0.00    -0.208 N 
ATOM      2  C   UNL d   1     -40.468  15.151  18.261  0.00  0.00     0.189 A 
ATOM      3  N   UNL d   1     -40.942  15.783  18.005  0.00  0.00    -0.219 NA
ATOM      4  C   UNL d   1     -40.558  15.085  16.917  0.00  0.00     0.114 A 
ATOM      5  C   UNL d   1     -40.994  15.738  17.177  0.00  0.00     0.121 A 
ENDROOT
BRANCH   1   6
ATOM      6  S   UNL d   1     -39.749  14.039  17.595  0.00  0.00     0.273 S 
ATOM      7  O   UNL d   1     -40.324  13.680  18.057  0.00  0.00    -0.200 OA
ATOM      8  O   UNL d   1     -39.462  13.275  17.742  0.00  0.00    -0.200 OA
BRANCH   6   9
ATOM      9  C   UNL d   1     -39.158  14.386  17.130  0.00  0.00     0.104 A 
ATOM     10  C   UNL d   1     -39.211  14.341  16.312  0.00  0.00     0.013 A 
ATOM     11  C   UNL d   1     -38.623  14.686  15.849  0.00  0.00     0.001 A 
ATOM     12  C   UNL d   1     -37.988  15.072  16.208  0.00  0.00     0.000 A 
ATOM     13  C   UNL d   1     -37.939  15.113  17.027  0.00  0.00     0.001 A 
ATOM     14  C   UNL d   1     -38.533  14.765  17.490  0.00  0.00     0.013 A 
ENDBRANCH   6   9
ENDBRANCH   1   6
BRANCH   2  15
ATOM     15  S   UNL d   1     -40.266  14.978  19.050  0.00  0.00    -0.049 SA
BRANCH  15  16
ATOM     16  C   UNL d   1     -40.547  15.460  19.662  0.00  0.00     0.038 C 
BRANCH  16  17
ATOM     17  C   UNL d   1     -40.237  15.378  20.422  0.00  0.00     0.007 A 
ATOM     18  C   UNL d   1     -40.490  14.768  20.916  0.00  0.00     0.001 A 
ATOM     19  C   UNL d   1     -40.166  14.698  21.682  0.00  0.00     0.000 A 
ATOM     20  C   UNL d   1     -39.597  15.238  21.944  0.00  0.00     0.000 A 
ATOM     21  C   UNL d   1     -39.342  15.848  21.456  0.00  0.00     0.000 A 
ATOM     22  C   UNL d   1     -39.657  15.922  20.699  0.00  0.00     0.001 A 
ENDBRANCH  16  17
ENDBRANCH  15  16
ENDBRANCH   2  15
TORSDOF 5
ENDMDL
MODEL 6
REMARK VINA RESULT:      -5.3      8.205     10.115
REMARK  5 active torsions:
REMARK  status: ('A' for Active; 'I' for Inactive)
REMARK    1  A    between atoms: N_2  and  S_1 
REMARK    2  A    between atoms: C_8  and  S_1 
REMARK    3  A    between atoms: S_7  and  C_3 
REMARK    4  A    between atoms: C_11  and  S_7 
REMARK    5  A    between atoms: C_12  and  C_11 
ROOT
ATOM      1  N   UNL d   1     -39.503  15.503  19.317  0.00  0.00    -0.208 N 
ATOM      2  C   UNL d   1     -38.816  15.152  19.002  0.00  0.00     0.189 A 
ATOM      3  N   UNL d   1     -38.175  15.351  19.491  0.00  0.00    -0.219 NA
ATOM      4  C   UNL d   1     -39.284  15.921  20.005  0.00  0.00     0.114 A 
ATOM      5  C   UNL d   1     -38.468  15.825  20.107  0.00  0.00     0.121 A 
ENDROOT
BRANCH   1   6
ATOM      6  S   UNL d   1     -40.269  15.444  19.000  0.00  0.00     0.273 S 
ATOM      7  O   UNL d   1     -39.963  15.749  18.303  0.00  0.00    -0.200 OA
ATOM      8  O   UNL d   1     -40.913  15.481  18.480  0.00  0.00    -0.200 OA
BRANCH   6   9
ATOM      9  C   UNL d   1     -40.594  15.135  19.695  0.00  0.00     0.104 A 
ATOM     10  C   UNL d   1     -40.615  14.321  19.804  0.00  0.00     0.013 A 
ATOM     11  C   UNL d   1     -40.939  14.014  20.496  0.00  0.00     0.001 A 
ATOM     12  C   UNL d   1     -41.239  14.522  21.073  0.00  0.00     0.000 A 
ATOM     13  C   UNL d   1     -41.216  15.335  20.959  0.00  0.00     0.001 A 
ATOM     14  C   UNL d   1     -40.889  15.641  20.261  0.00  0.00     0.013 A 
ENDBRANCH   6   9
ENDBRANCH   1   6
BRANCH   2  15
ATOM     15  S   UNL d   1     -38.780  14.682  18.315  0.00  0.00    -0.049 SA
BRANCH  15  16
ATOM     16  C   UNL d   1     -38.046  14.428  18.028  0.00  0.00     0.038 C 
BRANCH  16  17
ATOM     17  C   UNL d   1     -38.015  13.868  17.422  0.00  0.00     0.007 A 
ATOM     18  C   UNL d   1     -38.028  13.062  17.593  0.00  0.00     0.001 A 
ATOM     19  C   UNL d   1     -37.997  12.508  16.970  0.00  0.00     0.000 A 
ATOM     20  C   UNL d   1     -37.953  12.768  16.185  0.00  0.00     0.000 A 
ATOM     21  C   UNL d   1     -37.940  13.570  16.010  0.00  0.00     0.000 A 
ATOM     22  C   UNL d   1     -37.971  14.121  16.620  0.00  0.00     0.001 A 
ENDBRANCH  16  17
ENDBRANCH  15  16
ENDBRANCH   2  15
TORSDOF 5
ENDMDL
