MODEL 1
REMARK VINA RESULT:       2.1      0.000      0.000
REMARK  3 active torsions:
REMARK  status: ('A' for Active; 'I' for Inactive)
REMARK    1  A    between atoms: C_16  and  N_3 
REMARK    2  A    between atoms: C_10  and  C_5 
REMARK    3  A    between atoms: C_26  and  C_16 
ROOT
ATOM      1  C   UNL d   1      58.693  -9.476  30.675  0.00  0.00     0.083 A 
ATOM      2  C   UNL d   1      57.962  -9.644  31.014  0.00  0.00     0.161 A 
ATOM      3  N   UNL d   1      57.774  -9.508  29.696  0.00  0.00    -0.268 N 
ATOM      4  C   UNL d   1      57.390  -9.665  30.413  0.00  0.00     0.288 A 
ATOM      5  C   UNL d   1      58.581  -9.391  29.859  0.00  0.00     0.072 A 
ATOM      6  C   UNL d   1      59.368  -9.420  31.144  0.00  0.00     0.201 A 
ATOM      7  O   UNL d   1      57.905  -9.758  31.836  0.00  0.00    -0.302 OA
ATOM      8  C   UNL d   1      59.308  -9.534  31.959  0.00  0.00     0.063 A 
ATOM      9  C   UNL d   1      58.579  -9.702  32.302  0.00  0.00     0.103 A 
ATOM     10  O   UNL d   1      56.590  -9.814  30.508  0.00  0.00    -0.264 OA
ATOM     11  O   UNL d   1      60.099  -9.252  30.806  0.00  0.00    -0.286 OA
ATOM     12  C   UNL d   1      59.986  -9.479  32.433  0.00  0.00     0.017 A 
ATOM     13  C   UNL d   1      58.528  -9.816  33.126  0.00  0.00     0.026 A 
ATOM     14  C   UNL d   1      59.933  -9.591  33.244  0.00  0.00     0.058 A 
ATOM     15  C   UNL d   1      59.202  -9.760  33.592  0.00  0.00     0.013 A 
ATOM     16 CL   UNL d   1      60.603  -9.536  33.711  0.00  0.00    -0.082 Cl
ENDROOT
BRANCH   5  17
ATOM     17  C   UNL d   1      59.310  -9.222  29.516  0.00  0.00     0.017 A 
ATOM     18  C   UNL d   1      59.470  -8.468  29.218  0.00  0.00     0.008 A 
ATOM     19  C   UNL d   1      60.200  -8.303  28.877  0.00  0.00     0.035 A 
ATOM     20 BR   UNL d   1      60.353  -7.550  28.582  0.00  0.00    -0.049 Br
ATOM     21  C   UNL d   1      60.783  -8.895  28.828  0.00  0.00     0.007 A 
ATOM     22  C   UNL d   1      60.623  -9.651  29.126  0.00  0.00     0.001 A 
ATOM     23  C   UNL d   1      59.884  -9.812  29.471  0.00  0.00     0.002 A 
ENDBRANCH   5  17
BRANCH   3  24
ATOM     24  C   UNL d   1      57.421  -9.474  28.954  0.00  0.00     0.129 C 
BRANCH  24  25
ATOM     25  C   UNL d   1      56.632  -9.688  28.865  0.00  0.00     0.253 C 
ATOM     26  O   UNL d   1      56.102  -9.172  28.507  0.00  0.00    -0.281 OA
ENDBRANCH  24  25
ENDBRANCH   3  24
TORSDOF 3
ENDMDL
