MODEL 1
REMARK VINA RESULT:      -4.7      0.000      0.000
REMARK  4 active torsions:
REMARK  status: ('A' for Active; 'I' for Inactive)
REMARK    1  A    between atoms: N_2  and  S_1 
REMARK    2  A    between atoms: C_3  and  S_1 
REMARK    3  A    between atoms: C_11  and  N_2 
REMARK    4  A    between atoms: C_6  and  C_7 
ROOT
ATOM      1  S   UNL d   1      57.575   0.338  30.898  0.00  0.00     0.285 S 
ATOM      2  O   UNL d   1      57.071   0.011  30.332  0.00  0.00    -0.198 OA
ATOM      3  O   UNL d   1      58.078   0.666  31.463  0.00  0.00    -0.198 OA
ENDROOT
BRANCH   1   4
ATOM      4  N   UNL d   1      58.025   0.682  30.298  0.00  0.00    -0.158 NA
BRANCH   4   5
ATOM      5  C   UNL d   1      58.649   0.266  29.953  0.00  0.00     0.094 A 
ATOM      6  C   UNL d   1      59.391   0.247  30.314  0.00  0.00     0.020 A 
ATOM      7  C   UNL d   1      60.010  -0.168  29.967  0.00  0.00     0.005 A 
ATOM      8  C   UNL d   1      59.890  -0.571  29.248  0.00  0.00     0.039 A 
ATOM      9  C   UNL d   1      59.149  -0.552  28.887  0.00  0.00     0.005 A 
ATOM     10  C   UNL d   1      58.525  -0.137  29.231  0.00  0.00     0.020 A 
BRANCH   8  11
ATOM     11  C   UNL d   1      60.514  -0.994  28.891  0.00  0.00     0.196 C 
ATOM     12  O   UNL d   1      61.133  -0.588  28.532  0.00  0.00    -0.287 OA
ATOM     13  C   UNL d   1      60.519  -1.832  28.893  0.00  0.00     0.045 C 
ENDBRANCH   8  11
ENDBRANCH   4   5
ENDBRANCH   1   4
BRANCH   1  14
ATOM     14  C   UNL d   1      57.124  -0.005  31.498  0.00  0.00     0.105 A 
ATOM     15  C   UNL d   1      56.820   0.464  32.096  0.00  0.00     0.013 A 
ATOM     16  C   UNL d   1      56.362   0.116  32.705  0.00  0.00     0.001 A 
ATOM     17  C   UNL d   1      56.221  -0.693  32.701  0.00  0.00     0.000 A 
ATOM     18  C   UNL d   1      56.528  -1.167  32.096  0.00  0.00     0.001 A 
ATOM     19  C   UNL d   1      55.771  -1.036  33.301  0.00  0.00     0.000 C 
ATOM     20  C   UNL d   1      56.986  -0.819  31.487  0.00  0.00     0.013 A 
ENDBRANCH   1  14
TORSDOF 4
ENDMDL
MODEL 2
REMARK VINA RESULT:      -4.5      0.987      4.310
REMARK  4 active torsions:
REMARK  status: ('A' for Active; 'I' for Inactive)
REMARK    1  A    between atoms: N_2  and  S_1 
REMARK    2  A    between atoms: C_3  and  S_1 
REMARK    3  A    between atoms: C_11  and  N_2 
REMARK    4  A    between atoms: C_6  and  C_7 
ROOT
ATOM      1  S   UNL d   1      58.259   0.216  30.090  0.00  0.00     0.285 S 
ATOM      2  O   UNL d   1      58.709   0.682  30.602  0.00  0.00    -0.198 OA
ATOM      3  O   UNL d   1      57.810  -0.250  29.579  0.00  0.00    -0.198 OA
ENDROOT
BRANCH   1   4
ATOM      4  N   UNL d   1      57.568   0.538  30.405  0.00  0.00    -0.158 NA
BRANCH   4   5
ATOM      5  C   UNL d   1      57.211   0.198  31.067  0.00  0.00     0.094 A 
ATOM      6  C   UNL d   1      57.025  -0.606  31.076  0.00  0.00     0.020 A 
ATOM      7  C   UNL d   1      56.669  -0.940  31.738  0.00  0.00     0.005 A 
ATOM      8  C   UNL d   1      56.496  -0.467  32.402  0.00  0.00     0.039 A 
ATOM      9  C   UNL d   1      56.682   0.337  32.392  0.00  0.00     0.005 A 
ATOM     10  C   UNL d   1      57.038   0.676  31.731  0.00  0.00     0.020 A 
BRANCH   8  11
ATOM     11  C   UNL d   1      56.135  -0.801  33.076  0.00  0.00     0.196 C 
ATOM     12  O   UNL d   1      56.302  -1.578  33.290  0.00  0.00    -0.287 OA
ATOM     13  C   UNL d   1      55.602  -0.352  33.541  0.00  0.00     0.045 C 
ENDBRANCH   8  11
ENDBRANCH   4   5
ENDBRANCH   1   4
BRANCH   1  14
ATOM     14  C   UNL d   1      58.951  -0.105  29.776  0.00  0.00     0.105 A 
ATOM     15  C   UNL d   1      58.905  -0.732  29.251  0.00  0.00     0.013 A 
ATOM     16  C   UNL d   1      59.608  -1.059  28.932  0.00  0.00     0.001 A 
ATOM     17  C   UNL d   1      60.338  -0.750  29.146  0.00  0.00     0.000 A 
ATOM     18  C   UNL d   1      60.384  -0.117  29.676  0.00  0.00     0.001 A 
ATOM     19  C   UNL d   1      61.029  -1.072  28.831  0.00  0.00     0.000 C 
ATOM     20  C   UNL d   1      59.682   0.210  29.996  0.00  0.00     0.013 A 
ENDBRANCH   1  14
TORSDOF 4
ENDMDL
MODEL 3
REMARK VINA RESULT:      -4.2      1.043      4.221
REMARK  4 active torsions:
REMARK  status: ('A' for Active; 'I' for Inactive)
REMARK    1  A    between atoms: N_2  and  S_1 
REMARK    2  A    between atoms: C_3  and  S_1 
REMARK    3  A    between atoms: C_11  and  N_2 
REMARK    4  A    between atoms: C_6  and  C_7 
ROOT
ATOM      1  S   UNL d   1      58.383  -0.163  29.846  0.00  0.00     0.285 S 
ATOM      2  O   UNL d   1      57.936  -0.812  29.604  0.00  0.00    -0.198 OA
ATOM      3  O   UNL d   1      58.831   0.486  30.088  0.00  0.00    -0.198 OA
ENDROOT
BRANCH   1   4
ATOM      4  N   UNL d   1      57.697   0.214  30.105  0.00  0.00    -0.158 NA
BRANCH   4   5
ATOM      5  C   UNL d   1      57.420   0.098  30.874  0.00  0.00     0.094 A 
ATOM      6  C   UNL d   1      57.003  -0.586  31.071  0.00  0.00     0.020 A 
ATOM      7  C   UNL d   1      56.729  -0.698  31.838  0.00  0.00     0.005 A 
ATOM      8  C   UNL d   1      56.873  -0.119  32.420  0.00  0.00     0.039 A 
ATOM      9  C   UNL d   1      57.290   0.565  32.223  0.00  0.00     0.005 A 
ATOM     10  C   UNL d   1      57.566   0.681  31.455  0.00  0.00     0.020 A 
BRANCH   8  11
ATOM     11  C   UNL d   1      56.598  -0.226  33.200  0.00  0.00     0.196 C 
ATOM     12  O   UNL d   1      56.861   0.270  33.801  0.00  0.00    -0.287 OA
ATOM     13  C   UNL d   1      56.053  -0.837  33.381  0.00  0.00     0.045 C 
ENDBRANCH   8  11
ENDBRANCH   4   5
ENDBRANCH   1   4
BRANCH   1  14
ATOM     14  C   UNL d   1      59.070  -0.540  29.586  0.00  0.00     0.105 A 
ATOM     15  C   UNL d   1      59.792  -0.159  29.653  0.00  0.00     0.013 A 
ATOM     16  C   UNL d   1      60.489  -0.542  29.390  0.00  0.00     0.001 A 
ATOM     17  C   UNL d   1      60.447  -1.295  29.066  0.00  0.00     0.000 A 
ATOM     18  C   UNL d   1      59.717  -1.680  28.999  0.00  0.00     0.001 A 
ATOM     19  C   UNL d   1      61.133  -1.671  28.807  0.00  0.00     0.000 C 
ATOM     20  C   UNL d   1      59.020  -1.297  29.262  0.00  0.00     0.013 A 
ENDBRANCH   1  14
TORSDOF 4
ENDMDL
MODEL 4
REMARK VINA RESULT:      -3.7      9.094      9.676
REMARK  4 active torsions:
REMARK  status: ('A' for Active; 'I' for Inactive)
REMARK    1  A    between atoms: N_2  and  S_1 
REMARK    2  A    between atoms: C_3  and  S_1 
REMARK    3  A    between atoms: C_11  and  N_2 
REMARK    4  A    between atoms: C_6  and  C_7 
ROOT
ATOM      1  S   UNL d   1      59.733  -9.101  34.659  0.00  0.00     0.285 S 
ATOM      2  O   UNL d   1      59.136  -9.316  35.186  0.00  0.00    -0.198 OA
ATOM      3  O   UNL d   1      60.331  -8.886  34.133  0.00  0.00    -0.198 OA
ENDROOT
BRANCH   1   4
ATOM      4  N   UNL d   1      59.618  -9.804  34.242  0.00  0.00    -0.158 NA
BRANCH   4   5
ATOM      5  C   UNL d   1      59.224  -9.801  33.517  0.00  0.00     0.094 A 
ATOM      6  C   UNL d   1      59.648  -9.811  32.810  0.00  0.00     0.020 A 
ATOM      7  C   UNL d   1      59.251  -9.809  32.089  0.00  0.00     0.005 A 
ATOM      8  C   UNL d   1      58.419  -9.795  32.072  0.00  0.00     0.039 A 
ATOM      9  C   UNL d   1      57.994  -9.784  32.780  0.00  0.00     0.005 A 
ATOM     10  C   UNL d   1      58.388  -9.787  33.504  0.00  0.00     0.020 A 
BRANCH   8  11
ATOM     11  C   UNL d   1      58.011  -9.792  31.345  0.00  0.00     0.196 C 
ATOM     12  O   UNL d   1      58.430  -9.817  30.637  0.00  0.00    -0.287 OA
ATOM     13  C   UNL d   1      57.173  -9.762  31.324  0.00  0.00     0.045 C 
ENDBRANCH   8  11
ENDBRANCH   4   5
ENDBRANCH   1   4
BRANCH   1  14
ATOM     14  C   UNL d   1      59.848  -8.399  35.076  0.00  0.00     0.105 A 
ATOM     15  C   UNL d   1      60.608  -8.150  35.250  0.00  0.00     0.013 A 
ATOM     16  C   UNL d   1      60.725  -7.436  35.674  0.00  0.00     0.001 A 
ATOM     17  C   UNL d   1      60.079  -6.990  35.912  0.00  0.00     0.000 A 
ATOM     18  C   UNL d   1      59.310  -7.242  35.737  0.00  0.00     0.001 A 
ATOM     19  C   UNL d   1      60.194  -6.288  36.329  0.00  0.00     0.000 C 
ATOM     20  C   UNL d   1      59.193  -7.955  35.313  0.00  0.00     0.013 A 
ENDBRANCH   1  14
TORSDOF 4
ENDMDL
