MODEL 1
REMARK VINA RESULT:      -7.5      0.000      0.000
REMARK  4 active torsions:
REMARK  status: ('A' for Active; 'I' for Inactive)
REMARK    1  A    between atoms: N_7  and  C_3 
REMARK       I    between atoms: C_8  and  N_7 
REMARK    2  A    between atoms: C_14  and  C_8 
REMARK    3  A    between atoms: C_15  and  C_14 
REMARK    4  A    between atoms: C_16  and  C_14 
ROOT
ATOM      1  C   UNL d   1     -46.620  12.620  23.320  0.00  0.00     0.343 A 
ATOM      2  N   UNL d   1     -47.106  13.246  23.127  0.00  0.00    -0.241 N 
ATOM      3  C   UNL d   1     -47.921  13.146  23.112  0.00  0.00     0.159 A 
ATOM      4  N   UNL d   1     -46.946  11.885  23.502  0.00  0.00    -0.224 N 
ATOM      5  C   UNL d   1     -48.247  12.412  23.293  0.00  0.00     0.099 A 
ATOM      6  C   UNL d   1     -47.763  11.769  23.491  0.00  0.00     0.271 A 
ATOM      7  O   UNL d   1     -45.800  12.721  23.335  0.00  0.00    -0.245 OA
ATOM      8  O   UNL d   1     -48.086  11.042  23.671  0.00  0.00    -0.266 OA
ATOM      9  C   UNL d   1     -46.780  13.980  22.945  0.00  0.00     0.105 C 
ATOM     10  C   UNL d   1     -46.453  11.252  23.698  0.00  0.00     0.107 C 
ENDROOT
BRANCH   3  11
ATOM     11  N   UNL d   1     -48.414  13.779  22.915  0.00  0.00    -0.190 NA
ATOM     12  C   UNL d   1     -49.193  13.789  23.177  0.00  0.00     0.280 C 
ATOM     13  O   UNL d   1     -49.483  13.168  23.634  0.00  0.00    -0.265 OA
BRANCH  12  14
ATOM     14  C   UNL d   1     -49.683  14.420  22.980  0.00  0.00     0.058 C 
BRANCH  14  15
ATOM     15  C   UNL d   1     -49.439  15.203  23.128  0.00  0.00     0.005 C 
ATOM     16  C   UNL d   1     -49.959  15.730  23.501  0.00  0.00     0.000 C 
ENDBRANCH  14  15
BRANCH  14  17
ATOM     17  C   UNL d   1     -50.397  14.293  22.646  0.00  0.00     0.005 C 
ATOM     18  C   UNL d   1     -50.595  14.621  21.911  0.00  0.00     0.000 C 
ENDBRANCH  14  17
ENDBRANCH  12  14
ENDBRANCH   3  11
TORSDOF 4
ENDMDL
MODEL 2
REMARK VINA RESULT:      -7.4      0.816      1.717
REMARK  4 active torsions:
REMARK  status: ('A' for Active; 'I' for Inactive)
REMARK    1  A    between atoms: N_7  and  C_3 
REMARK       I    between atoms: C_8  and  N_7 
REMARK    2  A    between atoms: C_14  and  C_8 
REMARK    3  A    between atoms: C_15  and  C_14 
REMARK    4  A    between atoms: C_16  and  C_14 
ROOT
ATOM      1  C   UNL d   1     -47.442  11.494  23.571  0.00  0.00     0.343 A 
ATOM      2  N   UNL d   1     -48.087  11.989  23.496  0.00  0.00    -0.241 N 
ATOM      3  C   UNL d   1     -47.978  12.792  23.369  0.00  0.00     0.159 A 
ATOM      4  N   UNL d   1     -46.679  11.802  23.520  0.00  0.00    -0.224 N 
ATOM      5  C   UNL d   1     -47.215  13.100  23.318  0.00  0.00     0.099 A 
ATOM      6  C   UNL d   1     -46.553  12.607  23.393  0.00  0.00     0.271 A 
ATOM      7  O   UNL d   1     -47.553  10.686  23.698  0.00  0.00    -0.245 OA
ATOM      8  O   UNL d   1     -45.798  12.911  23.342  0.00  0.00    -0.266 OA
ATOM      9  C   UNL d   1     -48.850  11.682  23.547  0.00  0.00     0.105 C 
ATOM     10  C   UNL d   1     -46.027  11.300  23.596  0.00  0.00     0.107 C 
ENDROOT
BRANCH   3  11
ATOM     11  N   UNL d   1     -48.630  13.294  23.293  0.00  0.00    -0.190 NA
ATOM     12  C   UNL d   1     -48.640  13.870  22.707  0.00  0.00     0.280 C 
ATOM     13  O   UNL d   1     -47.999  13.948  22.195  0.00  0.00    -0.265 OA
BRANCH  12  14
ATOM     14  C   UNL d   1     -49.290  14.368  22.633  0.00  0.00     0.058 C 
BRANCH  14  15
ATOM     15  C   UNL d   1     -49.678  14.446  21.900  0.00  0.00     0.005 C 
ATOM     16  C   UNL d   1     -50.494  14.307  21.853  0.00  0.00     0.000 C 
ENDBRANCH  14  15
BRANCH  14  17
ATOM     17  C   UNL d   1     -49.558  14.783  23.261  0.00  0.00     0.005 C 
ATOM     18  C   UNL d   1     -49.693  15.600  23.212  0.00  0.00     0.000 C 
ENDBRANCH  14  17
ENDBRANCH  12  14
ENDBRANCH   3  11
TORSDOF 4
ENDMDL
MODEL 3
REMARK VINA RESULT:      -7.1      1.494      3.855
REMARK  4 active torsions:
REMARK  status: ('A' for Active; 'I' for Inactive)
REMARK    1  A    between atoms: N_7  and  C_3 
REMARK       I    between atoms: C_8  and  N_7 
REMARK    2  A    between atoms: C_14  and  C_8 
REMARK    3  A    between atoms: C_15  and  C_14 
REMARK    4  A    between atoms: C_16  and  C_14 
ROOT
ATOM      1  C   UNL d   1     -50.176  14.063  21.964  0.00  0.00     0.343 A 
ATOM      2  N   UNL d   1     -49.495  13.616  22.012  0.00  0.00    -0.241 N 
ATOM      3  C   UNL d   1     -48.931  13.783  22.584  0.00  0.00     0.159 A 
ATOM      4  N   UNL d   1     -50.298  14.686  22.489  0.00  0.00    -0.224 N 
ATOM      5  C   UNL d   1     -49.053  14.406  23.110  0.00  0.00     0.099 A 
ATOM      6  C   UNL d   1     -49.740  14.867  23.070  0.00  0.00     0.271 A 
ATOM      7  O   UNL d   1     -50.743  13.893  21.388  0.00  0.00    -0.245 OA
ATOM      8  O   UNL d   1     -49.861  15.483  23.590  0.00  0.00    -0.266 OA
ATOM      9  C   UNL d   1     -49.373  12.993  21.486  0.00  0.00     0.105 C 
ATOM     10  C   UNL d   1     -50.987  15.138  22.439  0.00  0.00     0.107 C 
ENDROOT
BRANCH   3  11
ATOM     11  N   UNL d   1     -48.242  13.331  22.634  0.00  0.00    -0.190 NA
ATOM     12  C   UNL d   1     -47.523  13.694  22.797  0.00  0.00     0.280 C 
ATOM     13  O   UNL d   1     -47.488  14.509  22.911  0.00  0.00    -0.265 OA
BRANCH  12  14
ATOM     14  C   UNL d   1     -46.837  13.241  22.847  0.00  0.00     0.058 C 
BRANCH  14  15
ATOM     15  C   UNL d   1     -46.659  12.825  23.546  0.00  0.00     0.005 C 
ATOM     16  C   UNL d   1     -46.387  12.043  23.498  0.00  0.00     0.000 C 
ENDBRANCH  14  15
BRANCH  14  17
ATOM     17  C   UNL d   1     -46.334  13.195  22.228  0.00  0.00     0.005 C 
ATOM     18  C   UNL d   1     -45.536  13.401  22.305  0.00  0.00     0.000 C 
ENDBRANCH  14  17
ENDBRANCH  12  14
ENDBRANCH   3  11
TORSDOF 4
ENDMDL
MODEL 4
REMARK VINA RESULT:      -7.1      1.436      1.766
REMARK  4 active torsions:
REMARK  status: ('A' for Active; 'I' for Inactive)
REMARK    1  A    between atoms: N_7  and  C_3 
REMARK       I    between atoms: C_8  and  N_7 
REMARK    2  A    between atoms: C_14  and  C_8 
REMARK    3  A    between atoms: C_15  and  C_14 
REMARK    4  A    between atoms: C_16  and  C_14 
ROOT
ATOM      1  C   UNL d   1     -46.444  12.859  23.081  0.00  0.00     0.343 A 
ATOM      2  N   UNL d   1     -47.240  13.040  23.062  0.00  0.00    -0.241 N 
ATOM      3  C   UNL d   1     -47.798  12.469  23.253  0.00  0.00     0.159 A 
ATOM      4  N   UNL d   1     -46.199  12.101  23.292  0.00  0.00    -0.224 N 
ATOM      5  C   UNL d   1     -47.553  11.712  23.464  0.00  0.00     0.099 A 
ATOM      6  C   UNL d   1     -46.747  11.516  23.487  0.00  0.00     0.271 A 
ATOM      7  O   UNL d   1     -45.884  13.434  22.888  0.00  0.00    -0.245 OA
ATOM      8  O   UNL d   1     -46.505  10.767  23.696  0.00  0.00    -0.266 OA
ATOM      9  C   UNL d   1     -47.485  13.798  22.851  0.00  0.00     0.105 C 
ATOM     10  C   UNL d   1     -45.394  11.919  23.311  0.00  0.00     0.107 C 
ENDROOT
BRANCH   3  11
ATOM     11  N   UNL d   1     -48.603  12.652  23.235  0.00  0.00    -0.190 NA
ATOM     12  C   UNL d   1     -49.129  12.150  22.852  0.00  0.00     0.280 C 
ATOM     13  O   UNL d   1     -48.855  11.464  22.487  0.00  0.00    -0.265 OA
BRANCH  12  14
ATOM     14  C   UNL d   1     -49.931  12.333  22.835  0.00  0.00     0.058 C 
BRANCH  14  15
ATOM     15  C   UNL d   1     -50.216  12.925  22.323  0.00  0.00     0.005 C 
ATOM     16  C   UNL d   1     -50.685  12.714  21.673  0.00  0.00     0.000 C 
ENDBRANCH  14  15
BRANCH  14  17
ATOM     17  C   UNL d   1     -50.447  11.947  23.307  0.00  0.00     0.005 C 
ATOM     18  C   UNL d   1     -51.061  12.348  23.693  0.00  0.00     0.000 C 
ENDBRANCH  14  17
ENDBRANCH  12  14
ENDBRANCH   3  11
TORSDOF 4
ENDMDL
MODEL 5
REMARK VINA RESULT:      -6.7      1.402      3.212
REMARK  4 active torsions:
REMARK  status: ('A' for Active; 'I' for Inactive)
REMARK    1  A    between atoms: N_7  and  C_3 
REMARK       I    between atoms: C_8  and  N_7 
REMARK    2  A    between atoms: C_14  and  C_8 
REMARK    3  A    between atoms: C_15  and  C_14 
REMARK    4  A    between atoms: C_16  and  C_14 
ROOT
ATOM      1  C   UNL d   1     -50.304  13.042  23.004  0.00  0.00     0.343 A 
ATOM      2  N   UNL d   1     -49.591  13.349  22.751  0.00  0.00    -0.241 N 
ATOM      3  C   UNL d   1     -48.912  12.890  22.776  0.00  0.00     0.159 A 
ATOM      4  N   UNL d   1     -50.342  12.268  23.284  0.00  0.00    -0.224 N 
ATOM      5  C   UNL d   1     -48.950  12.116  23.056  0.00  0.00     0.099 A 
ATOM      6  C   UNL d   1     -49.668  11.793  23.315  0.00  0.00     0.271 A 
ATOM      7  O   UNL d   1     -50.987  13.505  22.979  0.00  0.00    -0.245 OA
ATOM      8  O   UNL d   1     -49.706  11.027  23.592  0.00  0.00    -0.266 OA
ATOM      9  C   UNL d   1     -49.553  14.123  22.471  0.00  0.00     0.105 C 
ATOM     10  C   UNL d   1     -51.064  11.957  23.539  0.00  0.00     0.107 C 
ENDROOT
BRANCH   3  11
ATOM     11  N   UNL d   1     -48.190  13.201  22.521  0.00  0.00    -0.190 NA
ATOM     12  C   UNL d   1     -47.516  13.105  22.981  0.00  0.00     0.280 C 
ATOM     13  O   UNL d   1     -47.559  12.699  23.697  0.00  0.00    -0.265 OA
BRANCH  12  14
ATOM     14  C   UNL d   1     -46.798  13.415  22.725  0.00  0.00     0.058 C 
BRANCH  14  15
ATOM     15  C   UNL d   1     -46.440  14.042  23.140  0.00  0.00     0.005 C 
ATOM     16  C   UNL d   1     -46.188  14.715  22.726  0.00  0.00     0.000 C 
ENDBRANCH  14  15
BRANCH  14  17
ATOM     17  C   UNL d   1     -46.435  13.119  22.078  0.00  0.00     0.005 C 
ATOM     18  C   UNL d   1     -45.621  12.960  22.075  0.00  0.00     0.000 C 
ENDBRANCH  14  17
ENDBRANCH  12  14
ENDBRANCH   3  11
TORSDOF 4
ENDMDL
MODEL 6
REMARK VINA RESULT:      -5.5      8.326      9.845
REMARK  4 active torsions:
REMARK  status: ('A' for Active; 'I' for Inactive)
REMARK    1  A    between atoms: N_7  and  C_3 
REMARK       I    between atoms: C_8  and  N_7 
REMARK    2  A    between atoms: C_14  and  C_8 
REMARK    3  A    between atoms: C_15  and  C_14 
REMARK    4  A    between atoms: C_16  and  C_14 
ROOT
ATOM      1  C   UNL d   1     -39.536  14.871  16.952  0.00  0.00     0.343 A 
ATOM      2  N   UNL d   1     -39.996  15.034  17.606  0.00  0.00    -0.241 N 
ATOM      3  C   UNL d   1     -40.021  14.509  18.236  0.00  0.00     0.159 A 
ATOM      4  N   UNL d   1     -39.094  14.176  16.923  0.00  0.00    -0.224 N 
ATOM      5  C   UNL d   1     -39.579  13.814  18.207  0.00  0.00     0.099 A 
ATOM      6  C   UNL d   1     -39.107  13.637  17.548  0.00  0.00     0.271 A 
ATOM      7  O   UNL d   1     -39.512  15.401  16.319  0.00  0.00    -0.245 OA
ATOM      8  O   UNL d   1     -38.670  12.950  17.519  0.00  0.00    -0.266 OA
ATOM      9  C   UNL d   1     -40.438  15.729  17.635  0.00  0.00     0.105 C 
ATOM     10  C   UNL d   1     -38.628  14.011  16.261  0.00  0.00     0.107 C 
ENDROOT
BRANCH   3  11
ATOM     11  N   UNL d   1     -40.487  14.673  18.898  0.00  0.00    -0.190 NA
ATOM     12  C   UNL d   1     -40.169  14.601  19.652  0.00  0.00     0.280 C 
ATOM     13  O   UNL d   1     -39.385  14.365  19.749  0.00  0.00    -0.265 OA
BRANCH  12  14
ATOM     14  C   UNL d   1     -40.634  14.766  20.310  0.00  0.00     0.058 C 
BRANCH  14  15
ATOM     15  C   UNL d   1     -40.423  15.381  20.831  0.00  0.00     0.005 C 
ATOM     16  C   UNL d   1     -41.000  15.920  21.081  0.00  0.00     0.000 C 
ENDBRANCH  14  15
BRANCH  14  17
ATOM     17  C   UNL d   1     -41.293  14.339  20.459  0.00  0.00     0.005 C 
ATOM     18  C   UNL d   1     -41.388  13.928  21.172  0.00  0.00     0.000 C 
ENDBRANCH  14  17
ENDBRANCH  12  14
ENDBRANCH   3  11
TORSDOF 4
ENDMDL
MODEL 7
REMARK VINA RESULT:      -5.5      9.149      9.911
REMARK  4 active torsions:
REMARK  status: ('A' for Active; 'I' for Inactive)
REMARK    1  A    between atoms: N_7  and  C_3 
REMARK       I    between atoms: C_8  and  N_7 
REMARK    2  A    between atoms: C_14  and  C_8 
REMARK    3  A    between atoms: C_15  and  C_14 
REMARK    4  A    between atoms: C_16  and  C_14 
ROOT
ATOM      1  C   UNL d   1     -39.485  15.407  17.914  0.00  0.00     0.343 A 
ATOM      2  N   UNL d   1     -39.191  15.355  18.673  0.00  0.00    -0.241 N 
ATOM      3  C   UNL d   1     -39.536  14.844  19.216  0.00  0.00     0.159 A 
ATOM      4  N   UNL d   1     -40.130  14.946  17.689  0.00  0.00    -0.224 N 
ATOM      5  C   UNL d   1     -40.180  14.383  18.991  0.00  0.00     0.099 A 
ATOM      6  C   UNL d   1     -40.488  14.427  18.222  0.00  0.00     0.271 A 
ATOM      7  O   UNL d   1     -39.138  15.921  17.369  0.00  0.00    -0.245 OA
ATOM      8  O   UNL d   1     -41.126  13.971  18.001  0.00  0.00    -0.266 OA
ATOM      9  C   UNL d   1     -38.546  15.817  18.898  0.00  0.00     0.105 C 
ATOM     10  C   UNL d   1     -40.427  14.999  16.920  0.00  0.00     0.107 C 
ENDROOT
BRANCH   3  11
ATOM     11  N   UNL d   1     -39.239  14.791  19.985  0.00  0.00    -0.190 NA
ATOM     12  C   UNL d   1     -39.755  14.751  20.622  0.00  0.00     0.280 C 
ATOM     13  O   UNL d   1     -40.569  14.763  20.496  0.00  0.00    -0.265 OA
BRANCH  12  14
ATOM     14  C   UNL d   1     -39.457  14.698  21.387  0.00  0.00     0.058 C 
BRANCH  14  15
ATOM     15  C   UNL d   1     -38.970  14.059  21.605  0.00  0.00     0.005 C 
ATOM     16  C   UNL d   1     -39.187  13.577  22.244  0.00  0.00     0.000 C 
ENDBRANCH  14  15
BRANCH  14  17
ATOM     17  C   UNL d   1     -39.631  15.257  21.931  0.00  0.00     0.005 C 
ATOM     18  C   UNL d   1     -39.039  15.609  22.392  0.00  0.00     0.000 C 
ENDBRANCH  14  17
ENDBRANCH  12  14
ENDBRANCH   3  11
TORSDOF 4
ENDMDL
MODEL 8
REMARK VINA RESULT:      -5.2      8.350      9.480
REMARK  4 active torsions:
REMARK  status: ('A' for Active; 'I' for Inactive)
REMARK    1  A    between atoms: N_7  and  C_3 
REMARK       I    between atoms: C_8  and  N_7 
REMARK    2  A    between atoms: C_14  and  C_8 
REMARK    3  A    between atoms: C_15  and  C_14 
REMARK    4  A    between atoms: C_16  and  C_14 
ROOT
ATOM      1  C   UNL d   1     -39.194  14.680  20.740  0.00  0.00     0.343 A 
ATOM      2  N   UNL d   1     -39.244  14.970  19.979  0.00  0.00    -0.241 N 
ATOM      3  C   UNL d   1     -39.953  14.932  19.568  0.00  0.00     0.159 A 
ATOM      4  N   UNL d   1     -39.857  14.347  21.099  0.00  0.00    -0.224 N 
ATOM      5  C   UNL d   1     -40.616  14.599  19.926  0.00  0.00     0.099 A 
ATOM      6  C   UNL d   1     -40.578  14.301  20.699  0.00  0.00     0.271 A 
ATOM      7  O   UNL d   1     -38.479  14.720  21.153  0.00  0.00    -0.245 OA
ATOM      8  O   UNL d   1     -41.234  13.971  21.054  0.00  0.00    -0.266 OA
ATOM      9  C   UNL d   1     -38.581  15.303  19.621  0.00  0.00     0.105 C 
ATOM     10  C   UNL d   1     -39.806  14.054  21.869  0.00  0.00     0.107 C 
ENDROOT
BRANCH   3  11
ATOM     11  N   UNL d   1     -40.005  15.225  18.798  0.00  0.00    -0.190 NA
ATOM     12  C   UNL d   1     -40.384  14.786  18.216  0.00  0.00     0.280 C 
ATOM     13  O   UNL d   1     -40.714  14.054  18.399  0.00  0.00    -0.265 OA
BRANCH  12  14
ATOM     14  C   UNL d   1     -40.434  15.080  17.449  0.00  0.00     0.058 C 
BRANCH  14  15
ATOM     15  C   UNL d   1     -40.881  15.765  17.290  0.00  0.00     0.005 C 
ATOM     16  C   UNL d   1     -41.442  15.755  16.680  0.00  0.00     0.000 C 
ENDBRANCH  14  15
BRANCH  14  17
ATOM     17  C   UNL d   1     -40.057  14.714  16.847  0.00  0.00     0.005 C 
ATOM     18  C   UNL d   1     -39.565  15.133  16.329  0.00  0.00     0.000 C 
ENDBRANCH  14  17
ENDBRANCH  12  14
ENDBRANCH   3  11
TORSDOF 4
ENDMDL
MODEL 9
REMARK VINA RESULT:      -5.1      8.589     10.388
REMARK  4 active torsions:
REMARK  status: ('A' for Active; 'I' for Inactive)
REMARK    1  A    between atoms: N_7  and  C_3 
REMARK       I    between atoms: C_8  and  N_7 
REMARK    2  A    between atoms: C_14  and  C_8 
REMARK    3  A    between atoms: C_15  and  C_14 
REMARK    4  A    between atoms: C_16  and  C_14 
ROOT
ATOM      1  C   UNL d   1     -39.843  14.866  20.569  0.00  0.00     0.343 A 
ATOM      2  N   UNL d   1     -39.338  14.469  20.065  0.00  0.00    -0.241 N 
ATOM      3  C   UNL d   1     -39.418  14.550  19.253  0.00  0.00     0.159 A 
ATOM      4  N   UNL d   1     -40.435  15.350  20.262  0.00  0.00    -0.224 N 
ATOM      5  C   UNL d   1     -40.011  15.034  18.945  0.00  0.00     0.099 A 
ATOM      6  C   UNL d   1     -40.529  15.442  19.448  0.00  0.00     0.271 A 
ATOM      7  O   UNL d   1     -39.761  14.784  21.387  0.00  0.00    -0.245 OA
ATOM      8  O   UNL d   1     -41.115  15.920  19.144  0.00  0.00    -0.266 OA
ATOM      9  C   UNL d   1     -38.746  13.986  20.372  0.00  0.00     0.105 C 
ATOM     10  C   UNL d   1     -40.945  15.751  20.773  0.00  0.00     0.107 C 
ENDROOT
BRANCH   3  11
ATOM     11  N   UNL d   1     -38.908  14.149  18.742  0.00  0.00    -0.190 NA
ATOM     12  C   UNL d   1     -39.213  13.713  18.115  0.00  0.00     0.280 C 
ATOM     13  O   UNL d   1     -40.027  13.676  17.996  0.00  0.00    -0.265 OA
BRANCH  12  14
ATOM     14  C   UNL d   1     -38.703  13.314  17.608  0.00  0.00     0.058 C 
BRANCH  14  15
ATOM     15  C   UNL d   1     -38.693  12.481  17.591  0.00  0.00     0.005 C 
ATOM     16  C   UNL d   1     -37.968  12.081  17.560  0.00  0.00     0.000 C 
ENDBRANCH  14  15
BRANCH  14  17
ATOM     17  C   UNL d   1     -38.211  13.718  17.125  0.00  0.00     0.005 C 
ATOM     18  C   UNL d   1     -38.262  13.647  16.301  0.00  0.00     0.000 C 
ENDBRANCH  14  17
ENDBRANCH  12  14
ENDBRANCH   3  11
TORSDOF 4
ENDMDL
