MODEL 1
REMARK VINA RESULT:      75.3      0.000      0.000
REMARK  3 active torsions:
REMARK  status: ('A' for Active; 'I' for Inactive)
REMARK    1  A    between atoms: C_2  and  C_1 
REMARK    2  A    between atoms: C_3  and  C_2 
REMARK    3  A    between atoms: C_8  and  C_2 
ROOT
ATOM      1  C   UNL d   1     -57.999 -99.304 -44.338  0.00  0.00     0.018 C 
ENDROOT
BRANCH   1   2
ATOM      2  C   UNL d   1     -57.237 -99.634 -44.334  0.00  0.00     0.078 A 
ATOM      3  C   UNL d   1     -56.601 -99.280 -44.869  0.00  0.00     0.195 A 
ATOM      4  C   UNL d   1     -55.893 -99.653 -44.809  0.00  0.00     0.019 A 
ATOM      5  O   UNL d   1     -56.640 -98.755 -45.303  0.00  0.00    -0.287 OA
ATOM      6  C   UNL d   1     -55.730-100.295 -44.320  0.00  0.00     0.043 A 
ATOM      7  C   UNL d   1     -56.317-100.609 -43.837  0.00  0.00     0.019 A 
ATOM      8  C   UNL d   1     -55.188-100.859 -44.037  0.00  0.00     0.009 C 
ATOM      9  C   UNL d   1     -55.018-100.135 -44.717  0.00  0.00     0.009 C 
ATOM     10  C   UNL d   1     -57.071-100.279 -43.844  0.00  0.00     0.195 A 
ATOM     11  O   UNL d   1     -57.661-100.600 -43.354  0.00  0.00    -0.287 OA
ENDBRANCH   1   2
BRANCH   1  12
ATOM     12  C   UNL d   1     -58.401 -99.180 -43.622  0.00  0.00     0.078 A 
ATOM     13  C   UNL d   1     -59.205 -99.301 -43.572  0.00  0.00     0.195 A 
ATOM     14  C   UNL d   1     -59.605 -99.180 -42.867  0.00  0.00     0.019 A 
ATOM     15  O   UNL d   1     -59.622 -99.553 -44.251  0.00  0.00    -0.287 OA
ATOM     16  C   UNL d   1     -59.198 -98.934 -42.200  0.00  0.00     0.043 A 
ATOM     17  C   UNL d   1     -58.378 -98.806 -42.237  0.00  0.00     0.019 A 
ATOM     18  C   UNL d   1     -59.397 -98.758 -41.415  0.00  0.00     0.009 C 
ATOM     19  C   UNL d   1     -59.960 -98.977 -41.881  0.00  0.00     0.009 C 
ATOM     20  C   UNL d   1     -57.976 -98.930 -42.952  0.00  0.00     0.195 A 
ATOM     21  O   UNL d   1     -57.482 -98.844 -42.942  0.00  0.00    -0.287 OA
ENDBRANCH   1  12
BRANCH   1  22
ATOM     22  C   UNL d   1     -58.355 -99.100 -45.042  0.00  0.00     0.030 A 
ATOM     23  S   UNL d   1     -58.049 -98.921 -45.790  0.00  0.00    -0.086 SA
ATOM     24  C   UNL d   1     -58.676 -98.755 -46.291  0.00  0.00     0.035 A 
ATOM     25  C   UNL d   1     -59.371 -98.826 -45.870  0.00  0.00     0.007 A 
ATOM     26  C   UNL d   1     -59.173 -99.038 -45.101  0.00  0.00     0.007 A 
ENDBRANCH   1  22
TORSDOF 3
ENDMDL
