MODEL 1
REMARK VINA RESULT:       3.4      0.000      0.000
REMARK  4 active torsions:
REMARK  status: ('A' for Active; 'I' for Inactive)
REMARK    1  A    between atoms: N_5  and  C_1 
REMARK    2  A    between atoms: N_8  and  C_3 
REMARK    3  A    between atoms: C_13  and  N_8 
REMARK    4  A    between atoms: C_12  and  C_13 
ROOT
ATOM      1  C   UNL d   1     -41.625-122.674 -51.741  0.00  0.00     0.200 A 
ATOM      2  C   UNL d   1     -41.644-122.549 -50.927  0.00  0.00     0.288 A 
ATOM      3  C   UNL d   1     -41.489-122.041 -52.264  0.00  0.00     0.109 A 
ATOM      4  N   UNL d   1     -41.527-121.783 -50.628  0.00  0.00    -0.270 N 
ATOM      5  C   UNL d   1     -41.373-121.278 -51.957  0.00  0.00     0.036 A 
ATOM      6  C   UNL d   1     -41.392-121.151 -51.140  0.00  0.00     0.069 A 
ATOM      7  O   UNL d   1     -41.778-123.181 -50.415  0.00  0.00    -0.265 OA
ATOM      8  C   UNL d   1     -41.546-121.657 -49.814  0.00  0.00     0.102 C 
ATOM      9  C   UNL d   1     -41.239-120.645 -52.469  0.00  0.00     0.003 A 
ATOM     10  C   UNL d   1     -41.277-120.393 -50.839  0.00  0.00     0.018 A 
ATOM     11  C   UNL d   1     -41.123-119.886 -52.165  0.00  0.00     0.000 A 
ATOM     12  C   UNL d   1     -41.142-119.760 -51.352  0.00  0.00     0.002 A 
ENDROOT
BRANCH   3  13
ATOM     13  N   UNL d   1     -41.470-122.165 -53.078  0.00  0.00    -0.242 NA
BRANCH  13  14
ATOM     14  C   UNL d   1     -42.119-121.959 -53.544  0.00  0.00     0.100 C 
BRANCH  14  15
ATOM     15  C   UNL d   1     -42.072-122.015 -54.364  0.00  0.00     0.030 A 
ATOM     16  C   UNL d   1     -42.756-121.931 -54.817  0.00  0.00     0.059 A 
ATOM     17 CL   UNL d   1     -43.484-121.792 -54.456  0.00  0.00    -0.082 Cl
ATOM     18  C   UNL d   1     -42.710-121.986 -55.637  0.00  0.00     0.011 A 
ATOM     19  C   UNL d   1     -41.978-122.126 -56.004  0.00  0.00     0.001 A 
ATOM     20  C   UNL d   1     -41.298-122.209 -55.545  0.00  0.00     0.000 A 
ATOM     21  C   UNL d   1     -41.345-122.153 -54.725  0.00  0.00     0.002 A 
ENDBRANCH  14  15
ENDBRANCH  13  14
ENDBRANCH   3  13
BRANCH   1  22
ATOM     22  N   UNL d   1     -41.741-123.437 -52.048  0.00  0.00    -0.107 N 
ATOM     23  O   UNL d   1     -42.463-123.817 -51.938  0.00  0.00    -0.531 OA
ATOM     24  O   UNL d   1     -41.133-123.816 -52.462  0.00  0.00    -0.531 OA
ENDBRANCH   1  22
TORSDOF 4
ENDMDL
MODEL 2
REMARK VINA RESULT:       4.9      1.908      4.092
REMARK  4 active torsions:
REMARK  status: ('A' for Active; 'I' for Inactive)
REMARK    1  A    between atoms: N_5  and  C_1 
REMARK    2  A    between atoms: N_8  and  C_3 
REMARK    3  A    between atoms: C_13  and  N_8 
REMARK    4  A    between atoms: C_12  and  C_13 
ROOT
ATOM      1  C   UNL d   1     -41.675-121.060 -52.744  0.00  0.00     0.200 A 
ATOM      2  C   UNL d   1     -41.734-120.905 -53.552  0.00  0.00     0.288 A 
ATOM      3  C   UNL d   1     -41.511-121.829 -52.471  0.00  0.00     0.109 A 
ATOM      4  N   UNL d   1     -41.627-121.524 -54.095  0.00  0.00    -0.270 N 
ATOM      5  C   UNL d   1     -41.406-122.442 -53.021  0.00  0.00     0.036 A 
ATOM      6  C   UNL d   1     -41.464-122.288 -53.832  0.00  0.00     0.069 A 
ATOM      7  O   UNL d   1     -41.897-120.141 -53.815  0.00  0.00    -0.265 OA
ATOM      8  C   UNL d   1     -41.686-121.370 -54.902  0.00  0.00     0.102 C 
ATOM      9  C   UNL d   1     -41.243-123.207 -52.758  0.00  0.00     0.003 A 
ATOM     10  C   UNL d   1     -41.360-122.899 -54.375  0.00  0.00     0.018 A 
ATOM     11  C   UNL d   1     -41.138-123.817 -53.304  0.00  0.00     0.000 A 
ATOM     12  C   UNL d   1     -41.197-123.664 -54.111  0.00  0.00     0.002 A 
ENDROOT
BRANCH   3  13
ATOM     13  N   UNL d   1     -41.453-121.984 -51.664  0.00  0.00    -0.242 NA
BRANCH  13  14
ATOM     14  C   UNL d   1     -42.029-122.438 -51.287  0.00  0.00     0.100 C 
BRANCH  14  15
ATOM     15  C   UNL d   1     -41.951-122.622 -50.489  0.00  0.00     0.030 A 
ATOM     16  C   UNL d   1     -42.626-122.679 -50.017  0.00  0.00     0.059 A 
ATOM     17 CL   UNL d   1     -43.374-122.553 -50.339  0.00  0.00    -0.082 Cl
ATOM     18  C   UNL d   1     -42.550-122.863 -49.219  0.00  0.00     0.011 A 
ATOM     19  C   UNL d   1     -41.797-122.991 -48.891  0.00  0.00     0.001 A 
ATOM     20  C   UNL d   1     -41.126-122.932 -49.368  0.00  0.00     0.000 A 
ATOM     21  C   UNL d   1     -41.204-122.748 -50.167  0.00  0.00     0.002 A 
ENDBRANCH  14  15
ENDBRANCH  13  14
ENDBRANCH   3  13
BRANCH   1  22
ATOM     22  N   UNL d   1     -41.780-120.447 -52.195  0.00  0.00    -0.107 N 
ATOM     23  O   UNL d   1     -42.541-120.191 -52.006  0.00  0.00    -0.531 OA
ATOM     24  O   UNL d   1     -41.125-120.093 -51.835  0.00  0.00    -0.531 OA
ENDBRANCH   1  22
TORSDOF 4
ENDMDL
MODEL 3
REMARK VINA RESULT:       5.4      2.179      3.348
REMARK  4 active torsions:
REMARK  status: ('A' for Active; 'I' for Inactive)
REMARK    1  A    between atoms: N_5  and  C_1 
REMARK    2  A    between atoms: N_8  and  C_3 
REMARK    3  A    between atoms: C_13  and  N_8 
REMARK    4  A    between atoms: C_12  and  C_13 
ROOT
ATOM      1  C   UNL d   1     -43.316-122.322 -49.793  0.00  0.00     0.200 A 
ATOM      2  C   UNL d   1     -43.539-122.094 -49.034  0.00  0.00     0.288 A 
ATOM      3  C   UNL d   1     -42.654-122.812 -49.912  0.00  0.00     0.109 A 
ATOM      4  N   UNL d   1     -43.097-122.357 -48.382  0.00  0.00    -0.270 N 
ATOM      5  C   UNL d   1     -42.217-123.071 -49.254  0.00  0.00     0.036 A 
ATOM      6  C   UNL d   1     -42.439-122.843 -48.492  0.00  0.00     0.069 A 
ATOM      7  O   UNL d   1     -44.196-121.609 -48.924  0.00  0.00    -0.265 OA
ATOM      8  C   UNL d   1     -43.318-122.129 -47.622  0.00  0.00     0.102 C 
ATOM      9  C   UNL d   1     -41.559-123.557 -49.364  0.00  0.00     0.003 A 
ATOM     10  C   UNL d   1     -42.003-123.101 -47.842  0.00  0.00     0.018 A 
ATOM     11  C   UNL d   1     -41.123-123.814 -48.711  0.00  0.00     0.000 A 
ATOM     12  C   UNL d   1     -41.345-123.587 -47.951  0.00  0.00     0.002 A 
ENDROOT
BRANCH   3  13
ATOM     13  N   UNL d   1     -42.431-123.041 -50.671  0.00  0.00    -0.242 NA
BRANCH  13  14
ATOM     14  C   UNL d   1     -41.776-122.692 -51.033  0.00  0.00     0.100 C 
BRANCH  14  15
ATOM     15  C   UNL d   1     -41.611-122.849 -51.824  0.00  0.00     0.030 A 
ATOM     16  C   UNL d   1     -41.290-122.254 -52.297  0.00  0.00     0.059 A 
ATOM     17 CL   UNL d   1     -41.134-121.507 -51.985  0.00  0.00    -0.082 Cl
ATOM     18  C   UNL d   1     -41.124-122.409 -53.088  0.00  0.00     0.011 A 
ATOM     19  C   UNL d   1     -41.279-123.161 -53.406  0.00  0.00     0.001 A 
ATOM     20  C   UNL d   1     -41.601-123.751 -52.927  0.00  0.00     0.000 A 
ATOM     21  C   UNL d   1     -41.766-123.594 -52.136  0.00  0.00     0.002 A 
ENDBRANCH  14  15
ENDBRANCH  13  14
ENDBRANCH   3  13
BRANCH   1  22
ATOM     22  N   UNL d   1     -43.753-122.064 -50.450  0.00  0.00    -0.107 N 
ATOM     23  O   UNL d   1     -43.624-121.311 -50.758  0.00  0.00    -0.531 OA
ATOM     24  O   UNL d   1     -44.318-122.560 -50.796  0.00  0.00    -0.531 OA
ENDBRANCH   1  22
TORSDOF 4
ENDMDL
