MODEL 1
REMARK VINA RESULT:      15.3      0.000      0.000
REMARK  2 active torsions:
REMARK  status: ('A' for Active; 'I' for Inactive)
REMARK    1  A    between atoms: C_6  and  C_2 
REMARK    2  A    between atoms: C_7  and  C_6 
ROOT
ATOM      1  N   UNL d   1     -58.487 -98.756 -45.263  0.00  0.00    -0.193 NA
ATOM      2  C   UNL d   1     -57.588 -98.756 -44.278  0.00  0.00     0.153 A 
ATOM      3  N   UNL d   1     -58.336 -98.756 -43.937  0.00  0.00    -0.306 N 
ATOM      4  C   UNL d   1     -58.892 -98.756 -44.545  0.00  0.00     0.147 A 
ATOM      5  C   UNL d   1     -57.674 -98.756 -45.099  0.00  0.00     0.276 A 
ATOM      6  C   UNL d   1     -58.590 -98.756 -43.147  0.00  0.00     0.077 A 
ATOM      7  C   UNL d   1     -59.708 -98.757 -44.371  0.00  0.00     0.037 A 
ATOM      8  O   UNL d   1     -57.065 -98.756 -45.655  0.00  0.00    -0.268 OA
ATOM      9  C   UNL d   1     -59.392 -98.756 -42.973  0.00  0.00     0.019 A 
ATOM     10  C   UNL d   1     -59.954 -98.757 -43.588  0.00  0.00     0.005 A 
ATOM     11  C   UNL d   1     -57.410 -98.756 -43.473  0.00  0.00     0.033 C 
ENDROOT
BRANCH   2  12
ATOM     12  C   UNL d   1     -56.845 -98.755 -44.647  0.00  0.00     0.128 C 
BRANCH  12  13
ATOM     13  C   UNL d   1     -56.226 -99.186 -44.313  0.00  0.00     0.188 C 
ATOM     14  O   UNL d   1     -56.249-100.007 -44.296  0.00  0.00    -0.647 OA
ATOM     15  O   UNL d   1     -55.576 -98.784 -43.991  0.00  0.00    -0.647 OA
ENDBRANCH  12  13
ENDBRANCH   2  12
TORSDOF 2
ENDMDL
