MODEL 1
REMARK VINA RESULT:       2.0      0.000      0.000
REMARK  5 active torsions:
REMARK  status: ('A' for Active; 'I' for Inactive)
REMARK    1  A    between atoms: S_3  and  C_17 
REMARK    2  A    between atoms: N_11  and  S_3 
REMARK    3  A    between atoms: C_13  and  C_10 
REMARK    4  A    between atoms: C_12  and  N_11 
REMARK       I    between atoms: N_19  and  C_13 
REMARK    5  A    between atoms: C_31  and  N_19 
ROOT
ATOM      1  C   UNL d   1      57.370  -7.490  28.473  0.00  0.00     0.105 A 
ATOM      2  C   UNL d   1      58.156  -7.487  28.494  0.00  0.00     0.015 A 
ATOM      3  C   UNL d   1      56.961  -6.792  28.457  0.00  0.00     0.015 A 
ATOM      4  C   UNL d   1      58.150  -6.126  28.482  0.00  0.00     0.085 A 
ATOM      5  C   UNL d   1      57.366  -6.127  28.462  0.00  0.00     0.020 A 
ATOM      6  C   UNL d   1      58.564  -6.784  28.499  0.00  0.00     0.020 A 
ENDROOT
BRANCH   4   7
ATOM      7  N   UNL d   1      58.557  -5.472  28.488  0.00  0.00    -0.208 NA
ATOM      8  C   UNL d   1      58.175  -4.748  28.629  0.00  0.00     0.285 C 
ATOM      9  O   UNL d   1      57.349  -4.728  28.766  0.00  0.00    -0.265 OA
BRANCH   8  10
ATOM     10  C   UNL d   1      58.609  -4.033  28.637  0.00  0.00     0.089 A 
ATOM     11  C   UNL d   1      59.424  -3.956  28.746  0.00  0.00     0.018 A 
ATOM     12  C   UNL d   1      59.614  -3.140  28.712  0.00  0.00     0.081 A 
ATOM     13  C   UNL d   1      58.904  -2.718  28.579  0.00  0.00     0.117 A 
ATOM     14  C   UNL d   1      60.335  -2.735  28.783  0.00  0.00     0.268 A 
ATOM     15  N   UNL d   1      58.926  -1.893  28.521  0.00  0.00    -0.221 NA
ATOM     16  S   UNL d   1      58.284  -3.269  28.533  0.00  0.00    -0.063 SA
ATOM     17  C   UNL d   1      59.647  -1.480  28.591  0.00  0.00     0.151 A 
ATOM     18  N   UNL d   1      60.346  -1.905  28.722  0.00  0.00    -0.258 N 
ATOM     19  C   UNL d   1      59.664  -0.657  28.532  0.00  0.00     0.038 A 
ATOM     20  C   UNL d   1      61.078  -1.497  28.795  0.00  0.00     0.084 A 
ATOM     21  C   UNL d   1      61.081  -0.666  28.733  0.00  0.00     0.019 A 
ATOM     22  C   UNL d   1      60.377  -0.248  28.602  0.00  0.00     0.005 A 
ATOM     23  O   UNL d   1      61.045  -3.158  28.915  0.00  0.00    -0.267 OA
ENDBRANCH   8  10
ENDBRANCH   4   7
BRANCH   1  24
ATOM     24  S   UNL d   1      57.004  -8.150  28.469  0.00  0.00     0.287 S 
ATOM     25  O   UNL d   1      56.076  -8.692  28.462  0.00  0.00    -0.198 OA
ATOM     26  O   UNL d   1      56.074  -7.601  28.465  0.00  0.00    -0.198 OA
BRANCH  24  27
ATOM     27  N   UNL d   1      57.502  -9.022  28.469  0.00  0.00    -0.139 NA
BRANCH  27  28
ATOM     28  C   UNL d   1      57.817  -9.278  29.128  0.00  0.00     0.178 A 
ATOM     29  N   UNL d   1      58.628  -9.413  29.120  0.00  0.00    -0.207 NA
ATOM     30  C   UNL d   1      58.948  -9.683  29.820  0.00  0.00     0.164 A 
ATOM     31  C   UNL d   1      59.695  -9.811  29.825  0.00  0.00     0.042 C 
ATOM     32  N   UNL d   1      58.484  -9.817  30.508  0.00  0.00    -0.227 NA
ATOM     33  C   UNL d   1      57.680  -9.678  30.499  0.00  0.00     0.086 A 
ATOM     34  C   UNL d   1      57.350  -9.409  29.808  0.00  0.00     0.059 A 
ATOM     35  C   UNL d   1      57.261  -9.797  31.113  0.00  0.00     0.021 C 
ENDBRANCH  27  28
ENDBRANCH  24  27
ENDBRANCH   1  24
TORSDOF 5
ENDMDL
