MODEL 1
REMARK VINA RESULT:      37.2      0.000      0.000
REMARK  5 active torsions:
REMARK  status: ('A' for Active; 'I' for Inactive)
REMARK    1  A    between atoms: O_4  and  C_1 
REMARK    2  A    between atoms: C_9  and  C_2 
REMARK    3  A    between atoms: C_5  and  O_4 
REMARK    4  A    between atoms: C_13  and  C_5 
REMARK    5  A    between atoms: N_10  and  C_9 
ROOT
ATOM      1  C   UNL d   1      46.438 -18.193  43.319  0.00  0.00     0.122 A 
ATOM      2  C   UNL d   1      46.436 -18.192  42.500  0.00  0.00     0.043 A 
ATOM      3  C   UNL d   1      46.506 -18.898  43.731  0.00  0.00     0.105 A 
ATOM      4  C   UNL d   1      46.572 -19.611  43.318  0.00  0.00     0.030 A 
ATOM      5  C   UNL d   1      46.570 -19.610  42.499  0.00  0.00     0.059 A 
ATOM      6  C   UNL d   1      46.502 -18.905  42.088  0.00  0.00     0.015 A 
ATOM      7  N   UNL d   1      46.507 -18.896  44.543  0.00  0.00    -0.242 NA
ATOM      8 CL   UNL d   1      46.637 -20.329  42.112  0.00  0.00    -0.082 Cl
ATOM      9  C   UNL d   1      46.639 -20.312  43.723  0.00  0.00     0.004 A 
ATOM     10  C   UNL d   1      46.575 -19.601  44.955  0.00  0.00     0.099 A 
ATOM     11  C   UNL d   1      46.642 -20.313  44.542  0.00  0.00     0.021 A 
ENDROOT
BRANCH   1  12
ATOM     12  O   UNL d   1      46.379 -17.558  43.700  0.00  0.00    -0.271 OA
BRANCH  12  13
ATOM     13  C   UNL d   1      45.768 -17.088  44.268  0.00  0.00     0.300 C 
ATOM     14  O   UNL d   1      45.152 -17.674  44.789  0.00  0.00    -0.259 OA
BRANCH  13  15
ATOM     15  C   UNL d   1      45.767 -16.263  44.308  0.00  0.00     0.064 A 
ATOM     16  C   UNL d   1      46.472 -15.848  44.182  0.00  0.00     0.005 A 
ATOM     17  C   UNL d   1      46.469 -15.021  44.224  0.00  0.00     0.000 A 
ATOM     18  C   UNL d   1      45.765 -14.606  44.390  0.00  0.00     0.000 A 
ATOM     19  C   UNL d   1      45.068 -15.033  44.514  0.00  0.00     0.000 A 
ATOM     20  C   UNL d   1      45.071 -15.862  44.473  0.00  0.00     0.005 A 
ENDBRANCH  13  15
ENDBRANCH  12  13
ENDBRANCH   1  12
BRANCH   2  21
ATOM     21  C   UNL d   1      46.372 -17.534  41.886  0.00  0.00     0.082 C 
BRANCH  21  22
ATOM     22  N   UNL d   1      46.093 -17.692  41.143  0.00  0.00    -0.299 N 
ATOM     23  C   UNL d   1      46.592 -17.679  40.503  0.00  0.00     0.107 A 
ATOM     24  C   UNL d   1      46.311 -17.840  39.744  0.00  0.00     0.142 A 
ATOM     25  O   UNL d   1      45.519 -18.015  39.639  0.00  0.00    -0.300 OA
ATOM     26  C   UNL d   1      45.013 -18.029  40.288  0.00  0.00     0.142 A 
ATOM     27  C   UNL d   1      45.303 -17.868  41.030  0.00  0.00     0.107 A 
ENDBRANCH  21  22
ENDBRANCH   2  21
TORSDOF 5
ENDMDL
