MODEL 1
REMARK VINA RESULT:      88.7      0.000      0.000
REMARK  5 active torsions:
REMARK  status: ('A' for Active; 'I' for Inactive)
REMARK    1  A    between atoms: C_12  and  C_1 
REMARK    2  A    between atoms: N_7  and  C_2 
REMARK    3  A    between atoms: C_3  and  C_6 
REMARK       I    between atoms: C_6  and  N_7 
REMARK    4  A    between atoms: O_18  and  C_12 
REMARK    5  A    between atoms: C_23  and  O_18 
ROOT
ATOM      1  C   UNL d   1     -50.014  25.880  33.607  0.00  0.00     0.111 A 
ATOM      2  C   UNL d   1     -50.418  25.199  33.568  0.00  0.00     0.096 A 
ATOM      3  S   UNL d   1     -49.195  25.686  33.543  0.00  0.00    -0.080 SA
ATOM      4  C   UNL d   1     -49.905  24.567  33.481  0.00  0.00     0.024 A 
ATOM      5  C   UNL d   1     -49.140  24.873  33.466  0.00  0.00     0.031 A 
ATOM      6  C   UNL d   1     -50.032  23.751  33.415  0.00  0.00     0.002 A 
ATOM      7  C   UNL d   1     -48.490  24.373  33.383  0.00  0.00     0.006 A 
ATOM      8  C   UNL d   1     -49.381  23.246  33.332  0.00  0.00     0.000 A 
ATOM      9  C   UNL d   1     -48.616  23.553  33.316  0.00  0.00     0.001 A 
ENDROOT
BRANCH   2  10
ATOM     10  N   UNL d   1     -51.259  25.165  33.613  0.00  0.00    -0.207 NA
ATOM     11  C   UNL d   1     -51.639  24.433  33.585  0.00  0.00     0.284 C 
ATOM     12  O   UNL d   1     -51.136  23.724  33.510  0.00  0.00    -0.265 OA
BRANCH  11  13
ATOM     13  C   UNL d   1     -52.457  24.451  33.632  0.00  0.00     0.121 A 
ATOM     14  C   UNL d   1     -52.837  23.831  34.019  0.00  0.00     0.204 A 
ATOM     15  C   UNL d   1     -53.665  23.812  34.088  0.00  0.00     0.062 A 
ATOM     16  O   UNL d   1     -52.371  23.202  34.350  0.00  0.00    -0.286 OA
ATOM     17  C   UNL d   1     -54.028  23.189  34.474  0.00  0.00     0.005 A 
ATOM     18  C   UNL d   1     -54.113  24.430  33.761  0.00  0.00     0.103 A 
ATOM     19  C   UNL d   1     -54.853  23.188  34.533  0.00  0.00     0.000 A 
ATOM     20  C   UNL d   1     -55.309  23.792  34.215  0.00  0.00     0.002 A 
ATOM     21  C   UNL d   1     -54.941  24.404  33.834  0.00  0.00     0.025 A 
ATOM     22  O   UNL d   1     -53.743  25.054  33.373  0.00  0.00    -0.305 OA
ATOM     23  C   UNL d   1     -52.915  25.070  33.306  0.00  0.00     0.131 A 
ENDBRANCH  11  13
ENDBRANCH   2  10
BRANCH   1  24
ATOM     24  C   UNL d   1     -50.355  26.630  33.695  0.00  0.00     0.308 C 
ATOM     25  O   UNL d   1     -51.145  26.717  33.876  0.00  0.00    -0.258 OA
BRANCH  24  26
ATOM     26  O   UNL d   1     -49.867  27.247  33.591  0.00  0.00    -0.271 OA
BRANCH  26  27
ATOM     27  C   UNL d   1     -50.119  28.105  33.545  0.00  0.00     0.126 C 
ATOM     28  C   UNL d   1     -49.636  28.685  33.817  0.00  0.00     0.029 C 
ENDBRANCH  26  27
ENDBRANCH  24  26
ENDBRANCH   1  24
TORSDOF 5
ENDMDL
