MODEL 1
REMARK VINA RESULT:      26.1      0.000      0.000
REMARK  4 active torsions:
REMARK  status: ('A' for Active; 'I' for Inactive)
REMARK    1  A    between atoms: C_14  and  C_2 
REMARK    2  A    between atoms: C_4  and  C_5 
REMARK    3  A    between atoms: C_5  and  O_9 
REMARK    4  A    between atoms: O_9  and  C_14 
ROOT
ATOM      1  N   UNL d   1      58.325  49.702  49.608  0.00  0.00    -0.236 NA
ATOM      2  C   UNL d   1      58.885  49.676  50.201  0.00  0.00     0.136 A 
ATOM      3  S   UNL d   1      58.489  49.646  50.935  0.00  0.00    -0.064 SA
ATOM      4  C   UNL d   1      57.579  49.688  49.966  0.00  0.00     0.088 A 
ATOM      5  C   UNL d   1      57.678  49.654  50.778  0.00  0.00     0.049 A 
ATOM      6  C   UNL d   1      56.819  49.703  49.644  0.00  0.00     0.020 A 
ATOM      7  C   UNL d   1      57.012  49.634  51.269  0.00  0.00     0.008 A 
ATOM      8  C   UNL d   1      56.245  49.649  50.951  0.00  0.00     0.001 A 
ATOM      9  C   UNL d   1      56.149  49.684  50.138  0.00  0.00     0.002 A 
ENDROOT
BRANCH   2  10
ATOM     10  C   UNL d   1      59.698  49.678  50.127  0.00  0.00     0.152 C 
BRANCH  10  11
ATOM     11  O   UNL d   1      60.133  49.153  50.613  0.00  0.00    -0.269 OA
BRANCH  11  12
ATOM     12  C   UNL d   1      60.906  49.367  50.869  0.00  0.00     0.306 C 
ATOM     13  O   UNL d   1      61.506  49.485  50.309  0.00  0.00    -0.258 OA
BRANCH  12  14
ATOM     14  C   UNL d   1      61.079  49.462  51.696  0.00  0.00     0.093 A 
ATOM     15  S   UNL d   1      60.588  49.608  52.337  0.00  0.00    -0.081 SA
ATOM     16  C   UNL d   1      61.072  49.646  53.007  0.00  0.00     0.036 A 
ATOM     17  C   UNL d   1      61.837  49.526  52.777  0.00  0.00     0.008 A 
ATOM     18  C   UNL d   1      61.852  49.411  51.964  0.00  0.00     0.012 A 
ENDBRANCH  12  14
ENDBRANCH  11  12
ENDBRANCH  10  11
ENDBRANCH   2  10
TORSDOF 4
ENDMDL
