MODEL 1
REMARK VINA RESULT:      18.9      0.000      0.000
REMARK  6 active torsions:
REMARK  status: ('A' for Active; 'I' for Inactive)
REMARK    1  A    between atoms: N_2  and  S_1 
REMARK    2  A    between atoms: C_6  and  S_1 
REMARK    3  A    between atoms: C_4  and  N_2 
REMARK    4  A    between atoms: C_5  and  C_3 
REMARK    5  A    between atoms: O_12  and  C_5 
REMARK    6  A    between atoms: C_18  and  O_12 
ROOT
ATOM      1  C   UNL d   1      45.280 -14.548  44.569  0.00  0.00     0.082 A 
ATOM      2  C   UNL d   1      45.385 -15.361  44.571  0.00  0.00     0.099 A 
ATOM      3  C   UNL d   1      44.544 -14.229  44.760  0.00  0.00     0.007 A 
ATOM      4  C   UNL d   1      44.754 -15.853  44.764  0.00  0.00     0.020 A 
ATOM      5  C   UNL d   1      43.916 -14.724  44.953  0.00  0.00     0.000 A 
ATOM      6  C   UNL d   1      44.021 -15.536  44.955  0.00  0.00     0.002 A 
ENDROOT
BRANCH   2   7
ATOM      7  N   UNL d   1      46.131 -15.694  44.377  0.00  0.00    -0.158 NA
BRANCH   7   8
ATOM      8  S   UNL d   1      46.170 -16.489  44.170  0.00  0.00     0.285 S 
ATOM      9  O   UNL d   1      46.065 -16.288  43.354  0.00  0.00    -0.198 OA
ATOM     10  O   UNL d   1      46.274 -16.710  44.955  0.00  0.00    -0.198 OA
BRANCH   8  11
ATOM     11  C   UNL d   1      46.208 -17.293  43.939  0.00  0.00     0.105 A 
ATOM     12  C   UNL d   1      46.319 -17.878  44.516  0.00  0.00     0.013 A 
ATOM     13  C   UNL d   1      46.357 -18.671  44.288  0.00  0.00     0.001 A 
ATOM     14  C   UNL d   1      46.282 -18.858  43.488  0.00  0.00     0.000 A 
ATOM     15  C   UNL d   1      46.172 -18.283  42.911  0.00  0.00     0.001 A 
ATOM     16  C   UNL d   1      46.317 -19.645  43.240  0.00  0.00     0.000 C 
ATOM     17  C   UNL d   1      46.135 -17.490  43.139  0.00  0.00     0.013 A 
ENDBRANCH   8  11
ENDBRANCH   7   8
ENDBRANCH   2   7
BRANCH   1  18
ATOM     18  C   UNL d   1      45.934 -14.036  44.368  0.00  0.00     0.302 C 
ATOM     19  O   UNL d   1      46.638 -14.100  44.773  0.00  0.00    -0.259 OA
BRANCH  18  20
ATOM     20  O   UNL d   1      45.860 -13.472  43.764  0.00  0.00    -0.271 OA
BRANCH  20  21
ATOM     21  C   UNL d   1      45.767 -12.665  43.964  0.00  0.00     0.126 C 
ATOM     22  C   UNL d   1      45.813 -12.093  43.385  0.00  0.00     0.029 C 
ENDBRANCH  20  21
ENDBRANCH  18  20
ENDBRANCH   1  18
TORSDOF 6
ENDMDL
MODEL 2
REMARK VINA RESULT:      20.8      1.149      4.464
REMARK  6 active torsions:
REMARK  status: ('A' for Active; 'I' for Inactive)
REMARK    1  A    between atoms: N_2  and  S_1 
REMARK    2  A    between atoms: C_6  and  S_1 
REMARK    3  A    between atoms: C_4  and  N_2 
REMARK    4  A    between atoms: C_5  and  C_3 
REMARK    5  A    between atoms: O_12  and  C_5 
REMARK    6  A    between atoms: C_18  and  O_12 
ROOT
ATOM      1  C   UNL d   1      46.374 -18.363  43.532  0.00  0.00     0.082 A 
ATOM      2  C   UNL d   1      46.212 -17.566  43.626  0.00  0.00     0.099 A 
ATOM      3  C   UNL d   1      46.381 -18.696  42.777  0.00  0.00     0.007 A 
ATOM      4  C   UNL d   1      46.056 -17.101  42.964  0.00  0.00     0.020 A 
ATOM      5  C   UNL d   1      46.225 -18.228  42.119  0.00  0.00     0.000 A 
ATOM      6  C   UNL d   1      46.063 -17.430  42.212  0.00  0.00     0.002 A 
ENDROOT
BRANCH   2   7
ATOM      7  N   UNL d   1      46.203 -17.220  44.391  0.00  0.00    -0.158 NA
BRANCH   7   8
ATOM      8  S   UNL d   1      45.933 -16.448  44.476  0.00  0.00     0.285 S 
ATOM      9  O   UNL d   1      45.192 -16.734  44.773  0.00  0.00    -0.198 OA
ATOM     10  O   UNL d   1      46.642 -16.146  44.191  0.00  0.00    -0.198 OA
BRANCH   8  11
ATOM     11  C   UNL d   1      45.639 -15.670  44.571  0.00  0.00     0.105 A 
ATOM     12  C   UNL d   1      44.860 -15.559  44.833  0.00  0.00     0.013 A 
ATOM     13  C   UNL d   1      44.570 -14.791  44.927  0.00  0.00     0.001 A 
ATOM     14  C   UNL d   1      45.067 -14.155  44.755  0.00  0.00     0.000 A 
ATOM     15  C   UNL d   1      45.840 -14.259  44.495  0.00  0.00     0.001 A 
ATOM     16  C   UNL d   1      44.795 -13.380  44.843  0.00  0.00     0.000 C 
ATOM     17  C   UNL d   1      46.130 -15.027  44.402  0.00  0.00     0.013 A 
ENDBRANCH   8  11
ENDBRANCH   7   8
ENDBRANCH   2   7
BRANCH   1  18
ATOM     18  C   UNL d   1      46.536 -18.848  44.217  0.00  0.00     0.302 C 
ATOM     19  O   UNL d   1      46.583 -18.504  44.955  0.00  0.00    -0.259 OA
BRANCH  18  20
ATOM     20  O   UNL d   1      46.645 -19.667  44.141  0.00  0.00    -0.271 OA
BRANCH  20  21
ATOM     21  C   UNL d   1      46.411 -20.172  44.765  0.00  0.00     0.126 C 
ATOM     22  C   UNL d   1      45.622 -20.247  44.955  0.00  0.00     0.029 C 
ENDBRANCH  20  21
ENDBRANCH  18  20
ENDBRANCH   1  18
TORSDOF 6
ENDMDL
MODEL 3
REMARK VINA RESULT:      21.3      1.654      4.650
REMARK  6 active torsions:
REMARK  status: ('A' for Active; 'I' for Inactive)
REMARK    1  A    between atoms: N_2  and  S_1 
REMARK    2  A    between atoms: C_6  and  S_1 
REMARK    3  A    between atoms: C_4  and  N_2 
REMARK    4  A    between atoms: C_5  and  C_3 
REMARK    5  A    between atoms: O_12  and  C_5 
REMARK    6  A    between atoms: C_18  and  O_12 
ROOT
ATOM      1  C   UNL d   1      46.278 -19.501  43.332  0.00  0.00     0.082 A 
ATOM      2  C   UNL d   1      46.517 -18.852  43.771  0.00  0.00     0.099 A 
ATOM      3  C   UNL d   1      46.156 -20.227  43.706  0.00  0.00     0.007 A 
ATOM      4  C   UNL d   1      46.633 -18.929  44.583  0.00  0.00     0.020 A 
ATOM      5  C   UNL d   1      46.273 -20.299  44.517  0.00  0.00     0.000 A 
ATOM      6  C   UNL d   1      46.511 -19.650  44.955  0.00  0.00     0.002 A 
ENDROOT
BRANCH   2   7
ATOM      7  N   UNL d   1      46.644 -18.111  43.399  0.00  0.00    -0.158 NA
BRANCH   7   8
ATOM      8  S   UNL d   1      46.304 -17.437  43.725  0.00  0.00     0.285 S 
ATOM      9  O   UNL d   1      46.534 -16.984  43.047  0.00  0.00    -0.198 OA
ATOM     10  O   UNL d   1      46.069 -17.854  44.394  0.00  0.00    -0.198 OA
BRANCH   8  11
ATOM     11  C   UNL d   1      45.963 -16.740  44.040  0.00  0.00     0.105 A 
ATOM     12  C   UNL d   1      45.295 -16.799  44.528  0.00  0.00     0.013 A 
ATOM     13  C   UNL d   1      44.959 -16.111  44.839  0.00  0.00     0.001 A 
ATOM     14  C   UNL d   1      45.300 -15.383  44.653  0.00  0.00     0.000 A 
ATOM     15  C   UNL d   1      45.962 -15.318  44.170  0.00  0.00     0.001 A 
ATOM     16  C   UNL d   1      44.978 -14.684  44.954  0.00  0.00     0.000 C 
ATOM     17  C   UNL d   1      46.298 -16.006  43.859  0.00  0.00     0.013 A 
ENDBRANCH   8  11
ENDBRANCH   7   8
ENDBRANCH   2   7
BRANCH   1  18
ATOM     18  C   UNL d   1      46.158 -19.424  42.490  0.00  0.00     0.302 C 
ATOM     19  O   UNL d   1      45.662 -18.845  42.203  0.00  0.00    -0.259 OA
BRANCH  18  20
ATOM     20  O   UNL d   1      46.540 -19.934  41.958  0.00  0.00    -0.271 OA
BRANCH  20  21
ATOM     21  C   UNL d   1      46.189 -20.094  41.217  0.00  0.00     0.126 C 
ATOM     22  C   UNL d   1      46.630 -20.030  40.534  0.00  0.00     0.029 C 
ENDBRANCH  20  21
ENDBRANCH  18  20
ENDBRANCH   1  18
TORSDOF 6
ENDMDL
