MODEL 1
REMARK VINA RESULT:      -9.1      0.000      0.000
REMARK  2 active torsions:
REMARK  status: ('A' for Active; 'I' for Inactive)
REMARK    1  A    between atoms: C_13  and  C_6 
REMARK    2  A    between atoms: N_7  and  C_12 
ROOT
ATOM      1  C   UNL d   1     -49.233  13.928  22.774  0.00  0.00     0.095 A 
ATOM      2  C   UNL d   1     -49.248  12.540  23.040  0.00  0.00     0.095 A 
ATOM      3  C   UNL d   1     -50.060  13.953  22.859  0.00  0.00     0.143 A 
ATOM      4  C   UNL d   1     -50.076  12.566  23.125  0.00  0.00     0.143 A 
ATOM      5  S   UNL d   1     -50.469  13.269  23.034  0.00  0.00    -0.044 SA
ATOM      6  C   UNL d   1     -48.846  13.218  22.867  0.00  0.00     0.023 A 
ATOM      7  C   UNL d   1     -48.843  11.815  23.133  0.00  0.00     0.103 C 
ATOM      8  C   UNL d   1     -48.811  14.642  22.592  0.00  0.00     0.103 C 
ATOM      9  N   UNL d   1     -48.371  15.342  22.411  0.00  0.00    -0.191 NA
ATOM     10  N   UNL d   1     -48.419  11.089  23.225  0.00  0.00    -0.191 NA
ATOM     11  N   UNL d   1     -50.500  11.867  23.304  0.00  0.00    -0.140 N 
ATOM     12  N   UNL d   1     -50.468  14.694  22.763  0.00  0.00    -0.140 N 
ENDROOT
BRANCH   6  13
ATOM     13  C   UNL d   1     -48.016  13.192  22.781  0.00  0.00     0.002 A 
ATOM     14  C   UNL d   1     -47.524  13.311  23.425  0.00  0.00     0.002 A 
ATOM     15  C   UNL d   1     -46.712  13.286  23.341  0.00  0.00     0.024 A 
ATOM     16  C   UNL d   1     -46.370  13.141  22.611  0.00  0.00     0.127 A 
ATOM     17  C   UNL d   1     -46.862  13.021  21.961  0.00  0.00     0.024 A 
ATOM     18  C   UNL d   1     -47.675  13.046  22.045  0.00  0.00     0.002 A 
BRANCH  16  19
ATOM     19  N   UNL d   1     -45.559  13.116  22.528  0.00  0.00    -0.114 N 
ATOM     20  O   UNL d   1     -45.147  12.454  22.774  0.00  0.00    -0.532 OA
ATOM     21  O   UNL d   1     -45.165  13.746  22.201  0.00  0.00    -0.532 OA
ENDBRANCH  16  19
ENDBRANCH   6  13
TORSDOF 2
ENDMDL
MODEL 2
REMARK VINA RESULT:      -9.0      0.020      1.935
REMARK  2 active torsions:
REMARK  status: ('A' for Active; 'I' for Inactive)
REMARK    1  A    between atoms: C_13  and  C_6 
REMARK    2  A    between atoms: N_7  and  C_12 
ROOT
ATOM      1  C   UNL d   1     -49.241  12.546  23.061  0.00  0.00     0.095 A 
ATOM      2  C   UNL d   1     -49.222  13.932  22.786  0.00  0.00     0.095 A 
ATOM      3  C   UNL d   1     -50.068  12.575  23.150  0.00  0.00     0.143 A 
ATOM      4  C   UNL d   1     -50.049  13.961  22.874  0.00  0.00     0.143 A 
ATOM      5  S   UNL d   1     -50.460  13.286  23.054  0.00  0.00    -0.044 SA
ATOM      6  C   UNL d   1     -48.837  13.229  22.880  0.00  0.00     0.023 A 
ATOM      7  C   UNL d   1     -48.799  14.629  22.600  0.00  0.00     0.103 C 
ATOM      8  C   UNL d   1     -48.838  11.805  23.161  0.00  0.00     0.103 C 
ATOM      9  N   UNL d   1     -48.416  11.078  23.256  0.00  0.00    -0.191 NA
ATOM     10  N   UNL d   1     -48.358  15.326  22.412  0.00  0.00    -0.191 NA
ATOM     11  N   UNL d   1     -50.456  14.687  22.778  0.00  0.00    -0.140 N 
ATOM     12  N   UNL d   1     -50.494  11.863  23.339  0.00  0.00    -0.140 N 
ENDROOT
BRANCH   6  13
ATOM     13  C   UNL d   1     -48.007  13.200  22.791  0.00  0.00     0.002 A 
ATOM     14  C   UNL d   1     -47.513  13.318  23.432  0.00  0.00     0.002 A 
ATOM     15  C   UNL d   1     -46.701  13.290  23.345  0.00  0.00     0.024 A 
ATOM     16  C   UNL d   1     -46.363  13.143  22.614  0.00  0.00     0.127 A 
ATOM     17  C   UNL d   1     -46.858  13.023  21.966  0.00  0.00     0.024 A 
ATOM     18  C   UNL d   1     -47.670  13.051  22.054  0.00  0.00     0.002 A 
BRANCH  16  19
ATOM     19  N   UNL d   1     -45.552  13.114  22.527  0.00  0.00    -0.114 N 
ATOM     20  O   UNL d   1     -45.141  12.453  22.777  0.00  0.00    -0.532 OA
ATOM     21  O   UNL d   1     -45.158  13.741  22.194  0.00  0.00    -0.532 OA
ENDBRANCH  16  19
ENDBRANCH   6  13
TORSDOF 2
ENDMDL
MODEL 3
REMARK VINA RESULT:      -8.5      2.251      3.748
REMARK  2 active torsions:
REMARK  status: ('A' for Active; 'I' for Inactive)
REMARK    1  A    between atoms: C_13  and  C_6 
REMARK    2  A    between atoms: N_7  and  C_12 
ROOT
ATOM      1  C   UNL d   1     -47.998  12.244  23.224  0.00  0.00     0.095 A 
ATOM      2  C   UNL d   1     -47.237  13.417  23.017  0.00  0.00     0.095 A 
ATOM      3  C   UNL d   1     -47.312  11.841  23.467  0.00  0.00     0.143 A 
ATOM      4  C   UNL d   1     -46.550  13.014  23.260  0.00  0.00     0.143 A 
ATOM      5  S   UNL d   1     -46.596  12.235  23.481  0.00  0.00    -0.044 SA
ATOM      6  C   UNL d   1     -47.943  13.026  23.004  0.00  0.00     0.023 A 
ATOM      7  C   UNL d   1     -47.189  14.219  22.790  0.00  0.00     0.103 C 
ATOM      8  C   UNL d   1     -48.740  11.831  23.211  0.00  0.00     0.103 C 
ATOM      9  N   UNL d   1     -49.489  11.439  23.191  0.00  0.00    -0.191 NA
ATOM     10  N   UNL d   1     -47.156  15.032  22.557  0.00  0.00    -0.191 NA
ATOM     11  N   UNL d   1     -45.814  13.412  23.276  0.00  0.00    -0.140 N 
ATOM     12  N   UNL d   1     -47.365  11.024  23.698  0.00  0.00    -0.140 N 
ENDROOT
BRANCH   6  13
ATOM     13  C   UNL d   1     -48.632  13.430  22.760  0.00  0.00     0.002 A 
ATOM     14  C   UNL d   1     -49.101  13.822  23.304  0.00  0.00     0.002 A 
ATOM     15  C   UNL d   1     -49.775  14.218  23.065  0.00  0.00     0.024 A 
ATOM     16  C   UNL d   1     -49.997  14.231  22.277  0.00  0.00     0.127 A 
ATOM     17  C   UNL d   1     -49.526  13.836  21.728  0.00  0.00     0.024 A 
ATOM     18  C   UNL d   1     -48.852  13.441  21.966  0.00  0.00     0.002 A 
BRANCH  16  19
ATOM     19  N   UNL d   1     -50.670  14.626  22.039  0.00  0.00    -0.114 N 
ATOM     20  O   UNL d   1     -50.943  15.261  22.476  0.00  0.00    -0.532 OA
ATOM     21  O   UNL d   1     -51.064  14.388  21.371  0.00  0.00    -0.532 OA
ENDBRANCH  16  19
ENDBRANCH   6  13
TORSDOF 2
ENDMDL
MODEL 4
REMARK VINA RESULT:      -8.5      2.238      3.284
REMARK  2 active torsions:
REMARK  status: ('A' for Active; 'I' for Inactive)
REMARK    1  A    between atoms: C_13  and  C_6 
REMARK    2  A    between atoms: N_7  and  C_12 
ROOT
ATOM      1  C   UNL d   1     -47.238  13.401  23.029  0.00  0.00     0.095 A 
ATOM      2  C   UNL d   1     -48.059  12.270  23.243  0.00  0.00     0.095 A 
ATOM      3  C   UNL d   1     -46.571  12.959  23.258  0.00  0.00     0.143 A 
ATOM      4  C   UNL d   1     -47.391  11.829  23.472  0.00  0.00     0.143 A 
ATOM      5  S   UNL d   1     -46.659  12.177  23.477  0.00  0.00    -0.044 SA
ATOM      6  C   UNL d   1     -47.969  13.043  23.027  0.00  0.00     0.023 A 
ATOM      7  C   UNL d   1     -48.813  11.911  23.238  0.00  0.00     0.103 C 
ATOM      8  C   UNL d   1     -47.141  14.214  22.802  0.00  0.00     0.103 C 
ATOM      9  N   UNL d   1     -47.068  15.025  22.572  0.00  0.00    -0.191 NA
ATOM     10  N   UNL d   1     -49.583  11.561  23.229  0.00  0.00    -0.191 NA
ATOM     11  N   UNL d   1     -47.476  11.027  23.697  0.00  0.00    -0.140 N 
ATOM     12  N   UNL d   1     -45.804  13.330  23.261  0.00  0.00    -0.140 N 
ENDROOT
BRANCH   6  13
ATOM     13  C   UNL d   1     -48.638  13.486  22.797  0.00  0.00     0.002 A 
ATOM     14  C   UNL d   1     -49.084  13.889  23.352  0.00  0.00     0.002 A 
ATOM     15  C   UNL d   1     -49.740  14.323  23.127  0.00  0.00     0.024 A 
ATOM     16  C   UNL d   1     -49.966  14.363  22.342  0.00  0.00     0.127 A 
ATOM     17  C   UNL d   1     -49.518  13.958  21.780  0.00  0.00     0.024 A 
ATOM     18  C   UNL d   1     -48.863  13.525  22.005  0.00  0.00     0.002 A 
BRANCH  16  19
ATOM     19  N   UNL d   1     -50.620  14.796  22.117  0.00  0.00    -0.114 N 
ATOM     20  O   UNL d   1     -51.064  14.554  21.475  0.00  0.00    -0.532 OA
ATOM     21  O   UNL d   1     -50.826  15.463  22.531  0.00  0.00    -0.532 OA
ENDBRANCH  16  19
ENDBRANCH   6  13
TORSDOF 2
ENDMDL
MODEL 5
REMARK VINA RESULT:      -7.6      2.324      3.499
REMARK  2 active torsions:
REMARK  status: ('A' for Active; 'I' for Inactive)
REMARK    1  A    between atoms: C_13  and  C_6 
REMARK    2  A    between atoms: N_7  and  C_12 
ROOT
ATOM      1  C   UNL d   1     -47.002  13.575  22.766  0.00  0.00     0.095 A 
ATOM      2  C   UNL d   1     -46.833  12.222  23.137  0.00  0.00     0.095 A 
ATOM      3  C   UNL d   1     -46.177  13.679  22.769  0.00  0.00     0.143 A 
ATOM      4  C   UNL d   1     -46.008  12.326  23.140  0.00  0.00     0.143 A 
ATOM      5  S   UNL d   1     -45.691  13.050  22.957  0.00  0.00    -0.044 SA
ATOM      6  C   UNL d   1     -47.311  12.845  22.951  0.00  0.00     0.023 A 
ATOM      7  C   UNL d   1     -47.159  11.476  23.326  0.00  0.00     0.103 C 
ATOM      8  C   UNL d   1     -47.504  14.232  22.570  0.00  0.00     0.103 C 
ATOM      9  N   UNL d   1     -48.021  14.873  22.378  0.00  0.00    -0.191 NA
ATOM     10  N   UNL d   1     -47.503  10.726  23.514  0.00  0.00    -0.191 NA
ATOM     11  N   UNL d   1     -45.505  11.684  23.332  0.00  0.00    -0.140 N 
ATOM     12  N   UNL d   1     -45.850  14.441  22.576  0.00  0.00    -0.140 N 
ENDROOT
BRANCH   6  13
ATOM     13  C   UNL d   1     -48.140  12.741  22.948  0.00  0.00     0.002 A 
ATOM     14  C   UNL d   1     -48.529  12.501  22.269  0.00  0.00     0.002 A 
ATOM     15  C   UNL d   1     -49.340  12.399  22.266  0.00  0.00     0.024 A 
ATOM     16  C   UNL d   1     -49.782  12.534  22.942  0.00  0.00     0.127 A 
ATOM     17  C   UNL d   1     -49.392  12.775  23.627  0.00  0.00     0.024 A 
ATOM     18  C   UNL d   1     -48.582  12.878  23.630  0.00  0.00     0.002 A 
BRANCH  16  19
ATOM     19  N   UNL d   1     -50.591  12.432  22.939  0.00  0.00    -0.114 N 
ATOM     20  O   UNL d   1     -51.064  12.960  22.532  0.00  0.00    -0.532 OA
ATOM     21  O   UNL d   1     -50.922  11.808  23.339  0.00  0.00    -0.532 OA
ENDBRANCH  16  19
ENDBRANCH   6  13
TORSDOF 2
ENDMDL
MODEL 6
REMARK VINA RESULT:      -6.1      8.591      9.801
REMARK  2 active torsions:
REMARK  status: ('A' for Active; 'I' for Inactive)
REMARK    1  A    between atoms: C_13  and  C_6 
REMARK    2  A    between atoms: N_7  and  C_12 
ROOT
ATOM      1  C   UNL d   1     -38.945  14.152  19.776  0.00  0.00     0.095 A 
ATOM      2  C   UNL d   1     -39.934  14.913  20.440  0.00  0.00     0.095 A 
ATOM      3  C   UNL d   1     -38.621  13.932  20.511  0.00  0.00     0.143 A 
ATOM      4  C   UNL d   1     -39.610  14.693  21.174  0.00  0.00     0.143 A 
ATOM      5  S   UNL d   1     -38.961  14.208  21.201  0.00  0.00    -0.044 SA
ATOM      6  C   UNL d   1     -39.596  14.640  19.759  0.00  0.00     0.023 A 
ATOM      7  C   UNL d   1     -40.603  15.413  20.413  0.00  0.00     0.103 C 
ATOM      8  C   UNL d   1     -38.588  13.864  19.061  0.00  0.00     0.103 C 
ATOM      9  N   UNL d   1     -38.248  13.588  18.337  0.00  0.00    -0.191 NA
ATOM     10  N   UNL d   1     -41.279  15.919  20.371  0.00  0.00    -0.191 NA
ATOM     11  N   UNL d   1     -39.955  14.972  21.884  0.00  0.00    -0.140 N 
ATOM     12  N   UNL d   1     -37.940  13.423  20.533  0.00  0.00    -0.140 N 
ENDROOT
BRANCH   6  13
ATOM     13  C   UNL d   1     -39.920  14.861  19.022  0.00  0.00     0.002 A 
ATOM     14  C   UNL d   1     -40.500  14.405  18.666  0.00  0.00     0.002 A 
ATOM     15  C   UNL d   1     -40.817  14.621  17.945  0.00  0.00     0.024 A 
ATOM     16  C   UNL d   1     -40.564  15.298  17.562  0.00  0.00     0.127 A 
ATOM     17  C   UNL d   1     -39.980  15.759  17.918  0.00  0.00     0.024 A 
ATOM     18  C   UNL d   1     -39.662  15.543  18.639  0.00  0.00     0.002 A 
BRANCH  16  19
ATOM     19  N   UNL d   1     -40.881  15.514  16.841  0.00  0.00    -0.114 N 
ATOM     20  O   UNL d   1     -41.691  15.506  16.737  0.00  0.00    -0.532 OA
ATOM     21  O   UNL d   1     -40.391  15.735  16.233  0.00  0.00    -0.532 OA
ENDBRANCH  16  19
ENDBRANCH   6  13
TORSDOF 2
ENDMDL
