MODEL 1
REMARK VINA RESULT:      -3.6      0.000      0.000
REMARK  2 active torsions:
REMARK  status: ('A' for Active; 'I' for Inactive)
REMARK    1  A    between atoms: C_6  and  N_1 
REMARK    2  A    between atoms: C_7  and  C_6 
ROOT
ATOM      1  N   UNL d   1      30.327  16.889 -24.444  0.00  0.00    -0.287 N 
ATOM      2  N   UNL d   1      29.127  17.475 -24.611  0.00  0.00    -0.224 NA
ATOM      3  C   UNL d   1      29.908  17.498 -24.823  0.00  0.00     0.183 A 
ATOM      4  C   UNL d   1      29.783  16.468 -23.975  0.00  0.00     0.083 A 
ATOM      5  C   UNL d   1      29.021  16.840 -24.081  0.00  0.00     0.099 A 
ATOM      6  C   UNL d   1      29.831  15.828 -23.481  0.00  0.00     0.019 A 
ATOM      7  C   UNL d   1      28.386  16.534 -23.682  0.00  0.00     0.021 A 
ATOM      8  C   UNL d   1      29.207  15.539 -23.097  0.00  0.00     0.002 A 
ATOM      9  C   UNL d   1      28.445  15.911 -23.203  0.00  0.00     0.002 A 
ENDROOT
BRANCH   1  10
ATOM     10  C   UNL d   1      31.128  16.829 -24.594  0.00  0.00     0.082 C 
BRANCH  10  11
ATOM     11  C   UNL d   1      31.649  17.425 -24.466  0.00  0.00     0.018 A 
ATOM     12  C   UNL d   1      31.993  17.567 -23.746  0.00  0.00     0.002 A 
ATOM     13  C   UNL d   1      32.521  18.168 -23.612  0.00  0.00     0.000 A 
ATOM     14  C   UNL d   1      32.861  18.296 -22.867  0.00  0.00     0.000 C 
ATOM     15  C   UNL d   1      32.718  18.662 -24.243  0.00  0.00     0.000 A 
ATOM     16  C   UNL d   1      32.380  18.537 -24.986  0.00  0.00     0.000 A 
ATOM     17  C   UNL d   1      31.846  17.918 -25.097  0.00  0.00     0.002 A 
ENDBRANCH  10  11
ENDBRANCH   1  10
TORSDOF 2
ENDMDL
MODEL 2
REMARK VINA RESULT:      -3.1      0.902      3.739
REMARK  2 active torsions:
REMARK  status: ('A' for Active; 'I' for Inactive)
REMARK    1  A    between atoms: C_6  and  N_1 
REMARK    2  A    between atoms: C_7  and  C_6 
ROOT
ATOM      1  N   UNL d   1      31.693  16.947 -24.168  0.00  0.00    -0.287 N 
ATOM      2  N   UNL d   1      32.582  17.240 -23.202  0.00  0.00    -0.224 NA
ATOM      3  C   UNL d   1      32.016  16.711 -23.441  0.00  0.00     0.183 A 
ATOM      4  C   UNL d   1      32.073  17.652 -24.393  0.00  0.00     0.083 A 
ATOM      5  C   UNL d   1      32.638  17.839 -23.779  0.00  0.00     0.099 A 
ATOM      6  C   UNL d   1      32.016  18.155 -25.027  0.00  0.00     0.019 A 
ATOM      7  C   UNL d   1      33.088  18.507 -23.863  0.00  0.00     0.021 A 
ATOM      8  C   UNL d   1      32.459  18.802 -25.097  0.00  0.00     0.002 A 
ATOM      9  C   UNL d   1      33.024  18.988 -24.483  0.00  0.00     0.002 A 
ENDROOT
BRANCH   1  10
ATOM     10  C   UNL d   1      31.110  16.476 -24.495  0.00  0.00     0.082 C 
BRANCH  10  11
ATOM     11  C   UNL d   1      30.420  16.304 -24.124  0.00  0.00     0.018 A 
ATOM     12  C   UNL d   1      29.745  16.743 -24.214  0.00  0.00     0.002 A 
ATOM     13  C   UNL d   1      29.045  16.573 -23.841  0.00  0.00     0.000 A 
ATOM     14  C   UNL d   1      28.367  17.037 -23.948  0.00  0.00     0.000 C 
ATOM     15  C   UNL d   1      29.019  15.916 -23.343  0.00  0.00     0.000 A 
ATOM     16  C   UNL d   1      29.693  15.453 -23.235  0.00  0.00     0.000 A 
ATOM     17  C   UNL d   1      30.393  15.647 -23.626  0.00  0.00     0.002 A 
ENDBRANCH  10  11
ENDBRANCH   1  10
TORSDOF 2
ENDMDL
MODEL 3
REMARK VINA RESULT:      -2.5      1.094      1.752
REMARK  2 active torsions:
REMARK  status: ('A' for Active; 'I' for Inactive)
REMARK    1  A    between atoms: C_6  and  N_1 
REMARK    2  A    between atoms: C_7  and  C_6 
ROOT
ATOM      1  N   UNL d   1      30.753  16.394 -24.580  0.00  0.00    -0.287 N 
ATOM      2  N   UNL d   1      29.729  15.632 -24.154  0.00  0.00    -0.224 NA
ATOM      3  C   UNL d   1      30.531  15.658 -24.268  0.00  0.00     0.183 A 
ATOM      4  C   UNL d   1      30.060  16.848 -24.664  0.00  0.00     0.083 A 
ATOM      5  C   UNL d   1      29.410  16.364 -24.394  0.00  0.00     0.099 A 
ATOM      6  C   UNL d   1      29.896  17.596 -24.930  0.00  0.00     0.019 A 
ATOM      7  C   UNL d   1      28.663  16.677 -24.417  0.00  0.00     0.021 A 
ATOM      8  C   UNL d   1      29.166  17.890 -24.948  0.00  0.00     0.002 A 
ATOM      9  C   UNL d   1      28.516  17.406 -24.678  0.00  0.00     0.002 A 
ENDROOT
BRANCH   1  10
ATOM     10  C   UNL d   1      31.546  16.519 -24.730  0.00  0.00     0.082 C 
BRANCH  10  11
ATOM     11  C   UNL d   1      32.098  16.608 -24.155  0.00  0.00     0.018 A 
ATOM     12  C   UNL d   1      32.278  17.323 -23.819  0.00  0.00     0.002 A 
ATOM     13  C   UNL d   1      32.835  17.418 -23.237  0.00  0.00     0.000 A 
ATOM     14  C   UNL d   1      33.004  18.159 -22.906  0.00  0.00     0.000 C 
ATOM     15  C   UNL d   1      33.241  16.749 -22.973  0.00  0.00     0.000 A 
ATOM     16  C   UNL d   1      33.075  16.010 -23.300  0.00  0.00     0.000 A 
ATOM     17  C   UNL d   1      32.504  15.940 -23.891  0.00  0.00     0.002 A 
ENDBRANCH  10  11
ENDBRANCH   1  10
TORSDOF 2
ENDMDL
MODEL 4
REMARK VINA RESULT:      -2.4      1.832      3.977
REMARK  2 active torsions:
REMARK  status: ('A' for Active; 'I' for Inactive)
REMARK    1  A    between atoms: C_6  and  N_1 
REMARK    2  A    between atoms: C_7  and  C_6 
ROOT
ATOM      1  N   UNL d   1      33.219  18.299 -23.534  0.00  0.00    -0.287 N 
ATOM      2  N   UNL d   1      33.233  19.451 -24.228  0.00  0.00    -0.224 NA
ATOM      3  C   UNL d   1      33.224  18.644 -24.289  0.00  0.00     0.183 A 
ATOM      4  C   UNL d   1      33.225  18.917 -22.978  0.00  0.00     0.083 A 
ATOM      5  C   UNL d   1      33.234  19.650 -23.418  0.00  0.00     0.099 A 
ATOM      6  C   UNL d   1      33.223  18.957 -22.168  0.00  0.00     0.019 A 
ATOM      7  C   UNL d   1      33.241  20.346 -23.004  0.00  0.00     0.021 A 
ATOM      8  C   UNL d   1      33.230  19.640 -21.776  0.00  0.00     0.002 A 
ATOM      9  C   UNL d   1      33.240  20.373 -22.217  0.00  0.00     0.002 A 
ENDROOT
BRANCH   1  10
ATOM     10  C   UNL d   1      33.209  17.483 -23.491  0.00  0.00     0.082 C 
BRANCH  10  11
ATOM     11  C   UNL d   1      32.663  17.025 -23.859  0.00  0.00     0.018 A 
ATOM     12  C   UNL d   1      31.887  16.989 -23.629  0.00  0.00     0.002 A 
ATOM     13  C   UNL d   1      31.331  16.528 -23.998  0.00  0.00     0.000 A 
ATOM     14  C   UNL d   1      30.541  16.505 -23.747  0.00  0.00     0.000 C 
ATOM     15  C   UNL d   1      31.569  16.071 -24.643  0.00  0.00     0.000 A 
ATOM     16  C   UNL d   1      32.355  16.091 -24.896  0.00  0.00     0.000 A 
ATOM     17  C   UNL d   1      32.901  16.569 -24.503  0.00  0.00     0.002 A 
ENDBRANCH  10  11
ENDBRANCH   1  10
TORSDOF 2
ENDMDL
MODEL 5
REMARK VINA RESULT:      -2.4      2.120      4.308
REMARK  2 active torsions:
REMARK  status: ('A' for Active; 'I' for Inactive)
REMARK    1  A    between atoms: C_6  and  N_1 
REMARK    2  A    between atoms: C_7  and  C_6 
ROOT
ATOM      1  N   UNL d   1      33.226  18.833 -23.189  0.00  0.00    -0.287 N 
ATOM      2  N   UNL d   1      33.233  18.855 -21.845  0.00  0.00    -0.224 NA
ATOM      3  C   UNL d   1      33.228  18.375 -22.497  0.00  0.00     0.183 A 
ATOM      4  C   UNL d   1      33.231  19.633 -22.960  0.00  0.00     0.083 A 
ATOM      5  C   UNL d   1      33.235  19.647 -22.105  0.00  0.00     0.099 A 
ATOM      6  C   UNL d   1      33.232  20.340 -23.354  0.00  0.00     0.019 A 
ATOM      7  C   UNL d   1      33.240  20.367 -21.733  0.00  0.00     0.021 A 
ATOM      8  C   UNL d   1      33.237  21.035 -22.983  0.00  0.00     0.002 A 
ATOM      9  C   UNL d   1      33.241  21.049 -22.128  0.00  0.00     0.002 A 
ENDROOT
BRANCH   1  10
ATOM     10  C   UNL d   1      33.222  18.438 -23.905  0.00  0.00     0.082 C 
BRANCH  10  11
ATOM     11  C   UNL d   1      32.704  17.852 -24.084  0.00  0.00     0.018 A 
ATOM     12  C   UNL d   1      31.950  17.989 -24.346  0.00  0.00     0.002 A 
ATOM     13  C   UNL d   1      31.423  17.400 -24.529  0.00  0.00     0.000 A 
ATOM     14  C   UNL d   1      30.656  17.563 -24.796  0.00  0.00     0.000 C 
ATOM     15  C   UNL d   1      31.670  16.617 -24.443  0.00  0.00     0.000 A 
ATOM     16  C   UNL d   1      32.434  16.452 -24.177  0.00  0.00     0.000 A 
ATOM     17  C   UNL d   1      32.950  17.069 -23.998  0.00  0.00     0.002 A 
ENDBRANCH  10  11
ENDBRANCH   1  10
TORSDOF 2
ENDMDL
MODEL 6
REMARK VINA RESULT:      -2.1      3.687      5.591
REMARK  2 active torsions:
REMARK  status: ('A' for Active; 'I' for Inactive)
REMARK    1  A    between atoms: C_6  and  N_1 
REMARK    2  A    between atoms: C_7  and  C_6 
ROOT
ATOM      1  N   UNL d   1      32.807  21.212 -21.778  0.00  0.00    -0.287 N 
ATOM      2  N   UNL d   1      32.035  21.304 -20.681  0.00  0.00    -0.224 NA
ATOM      3  C   UNL d   1      32.437  20.794 -21.164  0.00  0.00     0.183 A 
ATOM      4  C   UNL d   1      32.627  22.018 -21.674  0.00  0.00     0.083 A 
ATOM      5  C   UNL d   1      32.136  22.076 -20.976  0.00  0.00     0.099 A 
ATOM      6  C   UNL d   1      32.811  22.700 -22.071  0.00  0.00     0.019 A 
ATOM      7  C   UNL d   1      31.880  22.810 -20.748  0.00  0.00     0.021 A 
ATOM      8  C   UNL d   1      32.556  23.408 -21.840  0.00  0.00     0.002 A 
ATOM      9  C   UNL d   1      32.066  23.467 -21.142  0.00  0.00     0.002 A 
ENDROOT
BRANCH   1  10
ATOM     10  C   UNL d   1      33.241  20.783 -22.322  0.00  0.00     0.082 C 
BRANCH  10  11
ATOM     11  C   UNL d   1      33.091  20.016 -22.502  0.00  0.00     0.018 A 
ATOM     12  C   UNL d   1      32.803  19.776 -23.220  0.00  0.00     0.002 A 
ATOM     13  C   UNL d   1      32.650  19.002 -23.407  0.00  0.00     0.000 A 
ATOM     14  C   UNL d   1      32.354  18.779 -24.148  0.00  0.00     0.000 C 
ATOM     15  C   UNL d   1      32.797  18.426 -22.834  0.00  0.00     0.000 A 
ATOM     16  C   UNL d   1      33.091  18.646 -22.094  0.00  0.00     0.000 A 
ATOM     17  C   UNL d   1      33.238  19.441 -21.929  0.00  0.00     0.002 A 
ENDBRANCH  10  11
ENDBRANCH   1  10
TORSDOF 2
ENDMDL
