MODEL 1
REMARK VINA RESULT:      47.2      0.000      0.000
REMARK  8 active torsions:
REMARK  status: ('A' for Active; 'I' for Inactive)
REMARK    1  A    between atoms: C_3  and  N_1 
REMARK    2  A    between atoms: C_8  and  N_2 
REMARK    3  A    between atoms: C_6  and  C_3 
REMARK    4  A    between atoms: C_9  and  C_3 
REMARK       I    between atoms: C_4  and  N_7 
REMARK    5  A    between atoms: C_5  and  C_4 
REMARK       I    between atoms: N_10  and  C_5 
REMARK    6  A    between atoms: N_7  and  C_9 
REMARK    7  A    between atoms: C_22  and  N_10 
REMARK    8  A    between atoms: C_24  and  C_22 
ROOT
ATOM      1  C   UNL d   1      46.417 -18.088  42.547  0.00  0.00     0.106 C 
ENDROOT
BRANCH   1   2
ATOM      2  N   UNL d   1      46.247 -17.376  42.943  0.00  0.00    -0.298 N 
ATOM      3  C   UNL d   1      45.881 -17.404  43.682  0.00  0.00     0.100 A 
ATOM      4  C   UNL d   1      45.708 -16.705  44.085  0.00  0.00     0.100 A 
ATOM      5  N   UNL d   1      45.902 -15.977  43.748  0.00  0.00    -0.299 N 
ATOM      6  C   UNL d   1      46.268 -15.953  43.011  0.00  0.00     0.100 A 
ATOM      7  C   UNL d   1      46.442 -16.649  42.607  0.00  0.00     0.100 A 
BRANCH   5   8
ATOM      8  C   UNL d   1      45.731 -15.283  44.148  0.00  0.00     0.092 A 
ATOM      9  C   UNL d   1      45.018 -15.201  44.552  0.00  0.00     0.156 A 
ATOM     10  F   UNL d   1      44.474 -15.821  44.552  0.00  0.00    -0.203 F 
ATOM     11  C   UNL d   1      44.843 -14.504  44.955  0.00  0.00     0.031 A 
ATOM     12  C   UNL d   1      45.387 -13.884  44.955  0.00  0.00     0.002 A 
ATOM     13  C   UNL d   1      46.106 -13.965  44.549  0.00  0.00     0.002 A 
ATOM     14  C   UNL d   1      46.275 -14.663  44.148  0.00  0.00     0.020 A 
ENDBRANCH   5   8
ENDBRANCH   1   2
BRANCH   1  15
ATOM     15  C   UNL d   1      46.477 -18.797  42.965  0.00  0.00     0.118 A 
ATOM     16  O   UNL d   1      46.492 -19.592  42.724  0.00  0.00    -0.304 OA
ATOM     17  C   UNL d   1      46.561 -20.062  43.388  0.00  0.00     0.123 A 
ATOM     18  C   UNL d   1      46.591 -19.569  44.049  0.00  0.00     0.029 A 
ATOM     19  C   UNL d   1      46.538 -18.788  43.779  0.00  0.00     0.028 A 
ENDBRANCH   1  15
BRANCH   1  20
ATOM     20  C   UNL d   1      46.525 -18.082  41.721  0.00  0.00     0.122 C 
BRANCH  20  21
ATOM     21  N   UNL d   1      45.908 -17.851  41.225  0.00  0.00    -0.201 NA
ATOM     22  C   UNL d   1      45.886 -18.097  40.435  0.00  0.00     0.337 C 
ATOM     23  O   UNL d   1      46.489 -18.579  40.147  0.00  0.00    -0.260 OA
BRANCH  22  24
ATOM     24  C   UNL d   1      45.274 -17.866  39.949  0.00  0.00     0.337 C 
ATOM     25  N   UNL d   1      45.418 -17.351  39.319  0.00  0.00    -0.202 NA
ATOM     26  O   UNL d   1      44.509 -18.146  40.086  0.00  0.00    -0.260 OA
BRANCH  25  27
ATOM     27  C   UNL d   1      44.799 -17.117  38.827  0.00  0.00     0.102 C 
BRANCH  27  28
ATOM     28  C   UNL d   1      44.930 -16.566  38.233  0.00  0.00     0.019 A 
ATOM     29  C   UNL d   1      44.326 -16.374  37.705  0.00  0.00     0.002 A 
ATOM     30  C   UNL d   1      44.454 -15.826  37.112  0.00  0.00     0.000 A 
ATOM     31  C   UNL d   1      45.199 -15.459  37.039  0.00  0.00     0.000 A 
ATOM     32  C   UNL d   1      45.803 -15.651  37.566  0.00  0.00     0.000 A 
ATOM     33  C   UNL d   1      45.669 -16.205  38.163  0.00  0.00     0.002 A 
ENDBRANCH  27  28
ENDBRANCH  25  27
ENDBRANCH  22  24
ENDBRANCH  20  21
ENDBRANCH   1  20
TORSDOF 8
ENDMDL
