MODEL 1
REMARK VINA RESULT:      30.8      0.000      0.000
REMARK  3 active torsions:
REMARK  status: ('A' for Active; 'I' for Inactive)
REMARK    1  A    between atoms: N_3  and  S_1 
REMARK    2  A    between atoms: C_11  and  S_1 
REMARK    3  A    between atoms: C_2  and  N_3 
ROOT
ATOM      1  C   UNL d   1     -50.824  25.498  33.418  0.00  0.00     0.095 A 
ATOM      2  C   UNL d   1     -50.050  25.717  33.637  0.00  0.00     0.032 A 
ATOM      3  C   UNL d   1     -49.873  26.500  33.743  0.00  0.00     0.098 A 
ATOM      4  C   UNL d   1     -50.452  27.083  33.636  0.00  0.00     0.206 A 
ATOM      5  C   UNL d   1     -51.211  26.868  33.421  0.00  0.00     0.041 A 
ATOM      6  C   UNL d   1     -51.405  26.084  33.311  0.00  0.00     0.023 A 
ATOM      7 CL   UNL d   1     -49.099  26.719  33.962  0.00  0.00    -0.079 Cl
ATOM      8  O   UNL d   1     -50.241  27.875  33.751  0.00  0.00    -0.286 OA
ATOM      9  C   UNL d   1     -49.464  25.156  33.748  0.00  0.00     0.003 C 
ATOM     10  C   UNL d   1     -51.791  27.459  33.314  0.00  0.00     0.003 C 
ENDROOT
BRANCH   1  11
ATOM     11  N   UNL d   1     -51.017  24.711  33.308  0.00  0.00    -0.158 NA
BRANCH  11  12
ATOM     12  S   UNL d   1     -51.773  24.444  33.471  0.00  0.00     0.285 S 
ATOM     13  O   UNL d   1     -52.091  25.184  33.307  0.00  0.00    -0.198 OA
ATOM     14  O   UNL d   1     -51.477  23.677  33.645  0.00  0.00    -0.198 OA
BRANCH  12  15
ATOM     15  C   UNL d   1     -52.549  24.158  33.641  0.00  0.00     0.105 A 
ATOM     16  C   UNL d   1     -52.668  23.474  34.065  0.00  0.00     0.013 A 
ATOM     17  C   UNL d   1     -53.422  23.196  34.230  0.00  0.00     0.001 A 
ATOM     18  C   UNL d   1     -54.082  23.621  33.960  0.00  0.00     0.000 A 
ATOM     19  C   UNL d   1     -53.963  24.305  33.535  0.00  0.00     0.001 A 
ATOM     20  C   UNL d   1     -53.203  24.581  33.371  0.00  0.00     0.013 A 
ENDBRANCH  12  15
ENDBRANCH  11  12
ENDBRANCH   1  11
TORSDOF 3
ENDMDL
