MODEL 1
REMARK VINA RESULT:      30.7      0.000      0.000
REMARK  2 active torsions:
REMARK  status: ('A' for Active; 'I' for Inactive)
REMARK    1  A    between atoms: C_7  and  C_1 
REMARK    2  A    between atoms: O_14  and  C_11 
ROOT
ATOM      1  C   UNL d   1     -58.416 -98.907 -44.309  0.00  0.00     0.066 A 
ATOM      2  C   UNL d   1     -57.701 -98.832 -44.769  0.00  0.00     0.200 A 
ATOM      3  C   UNL d   1     -56.972 -98.833 -44.384  0.00  0.00     0.062 A 
ATOM      4  C   UNL d   1     -58.370 -98.981 -43.488  0.00  0.00     0.126 A 
ATOM      5  C   UNL d   1     -56.925 -98.907 -43.562  0.00  0.00     0.106 A 
ATOM      6  O   UNL d   1     -57.607 -98.981 -43.104  0.00  0.00    -0.305 OA
ATOM      7  C   UNL d   1     -56.268 -98.758 -44.843  0.00  0.00     0.009 A 
ATOM      8  C   UNL d   1     -56.175 -98.908 -43.178  0.00  0.00     0.067 A 
ATOM      9  O   UNL d   1     -57.748 -98.757 -45.605  0.00  0.00    -0.286 OA
ATOM     10  C   UNL d   1     -55.467 -98.833 -43.638  0.00  0.00     0.198 A 
ATOM     11  C   UNL d   1     -55.514 -98.759 -44.459  0.00  0.00     0.042 A 
ATOM     12  O   UNL d   1     -54.713 -98.833 -43.254  0.00  0.00    -0.286 OA
ENDROOT
BRANCH   1  13
ATOM     13  C   UNL d   1     -58.934 -98.907 -44.573  0.00  0.00     0.027 A 
ATOM     14  C   UNL d   1     -59.415 -98.834 -44.266  0.00  0.00     0.094 A 
ATOM     15  C   UNL d   1     -59.934 -98.832 -44.523  0.00  0.00     0.024 A 
ATOM     16  C   UNL d   1     -59.960 -98.907 -45.101  0.00  0.00     0.002 A 
ATOM     17  C   UNL d   1     -59.479 -98.980 -45.409  0.00  0.00     0.000 A 
ATOM     18  C   UNL d   1     -58.961 -98.981 -45.144  0.00  0.00     0.002 A 
BRANCH  14  19
ATOM     19  O   UNL d   1     -59.387 -98.758 -43.682  0.00  0.00    -0.328 OA
ATOM     20  C   UNL d   1     -59.860 -98.818 -43.357  0.00  0.00     0.181 C 
ENDBRANCH  14  19
ENDBRANCH   1  13
TORSDOF 2
ENDMDL
MODEL 2
REMARK VINA RESULT:      31.5      0.750      3.387
REMARK  2 active torsions:
REMARK  status: ('A' for Active; 'I' for Inactive)
REMARK    1  A    between atoms: C_7  and  C_1 
REMARK    2  A    between atoms: O_14  and  C_11 
ROOT
ATOM      1  C   UNL d   1     -56.259 -99.021 -44.377  0.00  0.00     0.066 A 
ATOM      2  C   UNL d   1     -56.971 -98.945 -44.843  0.00  0.00     0.200 A 
ATOM      3  C   UNL d   1     -57.700 -98.900 -44.460  0.00  0.00     0.062 A 
ATOM      4  C   UNL d   1     -56.309 -99.048 -43.553  0.00  0.00     0.126 A 
ATOM      5  C   UNL d   1     -57.749 -98.927 -43.636  0.00  0.00     0.106 A 
ATOM      6  O   UNL d   1     -57.071 -99.000 -43.173  0.00  0.00    -0.305 OA
ATOM      7  C   UNL d   1     -58.399 -98.825 -44.925  0.00  0.00     0.009 A 
ATOM      8  C   UNL d   1     -58.500 -98.880 -43.255  0.00  0.00     0.067 A 
ATOM      9  O   UNL d   1     -56.920 -98.918 -45.682  0.00  0.00    -0.286 OA
ATOM     10  C   UNL d   1     -59.204 -98.805 -43.720  0.00  0.00     0.198 A 
ATOM     11  C   UNL d   1     -59.154 -98.778 -44.544  0.00  0.00     0.042 A 
ATOM     12  O   UNL d   1     -59.958 -98.758 -43.339  0.00  0.00    -0.286 OA
ENDROOT
BRANCH   1  13
ATOM     13  C   UNL d   1     -55.741 -99.053 -44.640  0.00  0.00     0.027 A 
ATOM     14  C   UNL d   1     -55.321 -99.374 -44.412  0.00  0.00     0.094 A 
ATOM     15  C   UNL d   1     -54.803 -99.411 -44.668  0.00  0.00     0.024 A 
ATOM     16  C   UNL d   1     -54.715 -99.115 -45.164  0.00  0.00     0.002 A 
ATOM     17  C   UNL d   1     -55.135 -98.794 -45.392  0.00  0.00     0.000 A 
ATOM     18  C   UNL d   1     -55.653 -98.762 -45.129  0.00  0.00     0.002 A 
BRANCH  14  19
ATOM     19  O   UNL d   1     -55.413 -99.671 -43.911  0.00  0.00    -0.328 OA
ATOM     20  C   UNL d   1     -55.061-100.104 -43.761  0.00  0.00     0.181 C 
ENDBRANCH  14  19
ENDBRANCH   1  13
TORSDOF 2
ENDMDL
