MODEL 1
REMARK VINA RESULT:      97.8      0.000      0.000
REMARK  3 active torsions:
REMARK  status: ('A' for Active; 'I' for Inactive)
REMARK    1  A    between atoms: C_11  and  N_2 
REMARK    2  A    between atoms: C_16  and  C_6 
REMARK    3  A    between atoms: C_12  and  C_11 
ROOT
ATOM      1  C   UNL d   1     -48.773  28.838  34.479  0.00  0.00     0.137 A 
ATOM      2  N   UNL d   1     -47.944  29.956  34.803  0.00  0.00    -0.256 N 
ATOM      3  C   UNL d   1     -49.258  29.327  34.017  0.00  0.00     0.192 A 
ATOM      4  C   UNL d   1     -48.116  29.153  34.872  0.00  0.00     0.272 A 
ATOM      5  N   UNL d   1     -49.087  30.128  33.947  0.00  0.00    -0.204 NA
ATOM      6  C   UNL d   1     -48.427  30.449  34.341  0.00  0.00     0.152 A 
ATOM      7  C   UNL d   1     -48.948  28.032  34.548  0.00  0.00     0.205 A 
ATOM      8  O   UNL d   1     -49.910  29.008  33.629  0.00  0.00    -0.289 OA
ATOM      9  C   UNL d   1     -49.595  27.718  34.162  0.00  0.00     0.062 A 
ATOM     10  C   UNL d   1     -50.079  28.201  33.701  0.00  0.00     0.105 A 
ATOM     11  O   UNL d   1     -47.637  28.663  35.331  0.00  0.00    -0.266 OA
ATOM     12  O   UNL d   1     -48.464  27.548  35.008  0.00  0.00    -0.286 OA
ATOM     13  C   UNL d   1     -49.768  26.909  34.232  0.00  0.00     0.005 A 
ATOM     14  C   UNL d   1     -50.741  27.880  33.306  0.00  0.00     0.025 A 
ATOM     15  C   UNL d   1     -50.424  26.594  33.840  0.00  0.00     0.000 A 
ATOM     16  C   UNL d   1     -50.909  27.078  33.379  0.00  0.00     0.002 A 
ENDROOT
BRANCH   2  17
ATOM     17  C   UNL d   1     -47.295  30.262  35.192  0.00  0.00     0.109 C 
BRANCH  17  18
ATOM     18  C   UNL d   1     -47.186  30.113  35.996  0.00  0.00     0.118 A 
ATOM     19  O   UNL d   1     -47.776  30.129  36.570  0.00  0.00    -0.304 OA
ATOM     20  C   UNL d   1     -47.429  29.950  37.288  0.00  0.00     0.123 A 
ATOM     21  C   UNL d   1     -46.624  29.822  37.160  0.00  0.00     0.029 A 
ATOM     22  C   UNL d   1     -46.479  29.923  36.363  0.00  0.00     0.028 A 
ENDBRANCH  17  18
ENDBRANCH   2  17
BRANCH   6  23
ATOM     23  C   UNL d   1     -48.256  31.255  34.269  0.00  0.00     0.035 A 
ATOM     24  C   UNL d   1     -47.509  31.505  34.026  0.00  0.00     0.003 A 
ATOM     25  C   UNL d   1     -47.341  32.305  33.955  0.00  0.00     0.000 A 
ATOM     26  C   UNL d   1     -47.926  32.864  34.129  0.00  0.00     0.000 A 
ATOM     27  C   UNL d   1     -48.673  32.613  34.373  0.00  0.00     0.000 A 
ATOM     28  C   UNL d   1     -48.846  31.812  34.445  0.00  0.00     0.003 A 
ENDBRANCH   6  23
TORSDOF 3
ENDMDL
MODEL 2
REMARK VINA RESULT:     100.5      4.187      6.354
REMARK  3 active torsions:
REMARK  status: ('A' for Active; 'I' for Inactive)
REMARK    1  A    between atoms: C_11  and  N_2 
REMARK    2  A    between atoms: C_16  and  C_6 
REMARK    3  A    between atoms: C_12  and  C_11 
ROOT
ATOM      1  C   UNL d   1     -52.422  25.408  36.231  0.00  0.00     0.137 A 
ATOM      2  N   UNL d   1     -52.107  25.594  34.849  0.00  0.00    -0.256 N 
ATOM      3  C   UNL d   1     -51.837  25.957  36.442  0.00  0.00     0.192 A 
ATOM      4  C   UNL d   1     -52.557  25.227  35.434  0.00  0.00     0.272 A 
ATOM      5  N   UNL d   1     -51.388  26.324  35.859  0.00  0.00    -0.204 NA
ATOM      6  C   UNL d   1     -51.521  26.144  35.056  0.00  0.00     0.152 A 
ATOM      7  C   UNL d   1     -52.872  25.041  36.821  0.00  0.00     0.205 A 
ATOM      8  O   UNL d   1     -51.707  26.133  37.235  0.00  0.00    -0.289 OA
ATOM      9  C   UNL d   1     -52.742  25.217  37.606  0.00  0.00     0.062 A 
ATOM     10  C   UNL d   1     -52.161  25.762  37.820  0.00  0.00     0.105 A 
ATOM     11  O   UNL d   1     -53.140  24.681  35.230  0.00  0.00    -0.266 OA
ATOM     12  O   UNL d   1     -53.454  24.495  36.607  0.00  0.00    -0.286 OA
ATOM     13  C   UNL d   1     -53.195  24.847  38.195  0.00  0.00     0.005 A 
ATOM     14  C   UNL d   1     -52.027  25.943  38.624  0.00  0.00     0.025 A 
ATOM     15  C   UNL d   1     -53.061  25.027  38.990  0.00  0.00     0.000 A 
ATOM     16  C   UNL d   1     -52.479  25.573  39.204  0.00  0.00     0.002 A 
ENDROOT
BRANCH   2  17
ATOM     17  C   UNL d   1     -52.245  25.412  34.066  0.00  0.00     0.109 C 
BRANCH  17  18
ATOM     18  C   UNL d   1     -52.207  24.629  33.810  0.00  0.00     0.118 A 
ATOM     19  O   UNL d   1     -51.541  24.147  33.841  0.00  0.00    -0.304 OA
ATOM     20  C   UNL d   1     -51.747  23.418  33.533  0.00  0.00     0.123 A 
ATOM     21  C   UNL d   1     -52.540  23.448  33.310  0.00  0.00     0.029 A 
ATOM     22  C   UNL d   1     -52.820  24.196  33.482  0.00  0.00     0.028 A 
ENDBRANCH  17  18
ENDBRANCH   2  17
BRANCH   6  23
ATOM     23  C   UNL d   1     -51.068  26.514  34.471  0.00  0.00     0.035 A 
ATOM     24  C   UNL d   1     -51.430  26.982  33.896  0.00  0.00     0.003 A 
ATOM     25  C   UNL d   1     -50.980  27.349  33.316  0.00  0.00     0.000 A 
ATOM     26  C   UNL d   1     -50.158  27.248  33.309  0.00  0.00     0.000 A 
ATOM     27  C   UNL d   1     -49.797  26.780  33.885  0.00  0.00     0.000 A 
ATOM     28  C   UNL d   1     -50.245  26.411  34.468  0.00  0.00     0.003 A 
ENDBRANCH   6  23
TORSDOF 3
ENDMDL
