MODEL 1
REMARK VINA RESULT:      11.8      0.000      0.000
REMARK  0 active torsions:
REMARK  status: ('A' for Active; 'I' for Inactive)
ROOT
ATOM      1  C   UNL d   1     -52.395  24.949  33.308  0.00  0.00     0.106 A 
ATOM      2  O   UNL d   1     -52.456  25.766  33.309  0.00  0.00    -0.273 OA
ATOM      3  C   UNL d   1     -51.768  26.229  33.309  0.00  0.00     0.300 A 
ATOM      4  C   UNL d   1     -50.972  25.045  33.307  0.00  0.00     0.007 A 
ATOM      5  C   UNL d   1     -51.648  24.587  33.307  0.00  0.00     0.023 A 
ATOM      6  C   UNL d   1     -51.025  25.868  33.308  0.00  0.00     0.064 A 
ATOM      7  C   UNL d   1     -53.077  24.488  33.308  0.00  0.00     0.062 A 
ATOM      8  C   UNL d   1     -51.593  23.767  33.306  0.00  0.00     0.005 A 
ATOM      9  C   UNL d   1     -53.016  23.662  33.307  0.00  0.00     0.198 A 
ATOM     10  O   UNL d   1     -51.826  27.063  33.310  0.00  0.00    -0.259 OA
ATOM     11  C   UNL d   1     -52.273  23.301  33.306  0.00  0.00     0.042 A 
ATOM     12  C   UNL d   1     -50.226  24.683  33.306  0.00  0.00     0.000 A 
ATOM     13  C   UNL d   1     -50.347  26.330  33.308  0.00  0.00     0.005 A 
ATOM     14  O   UNL d   1     -53.705  23.195  33.306  0.00  0.00    -0.286 OA
ATOM     15  C   UNL d   1     -53.805  24.842  33.309  0.00  0.00     0.005 C 
ATOM     16  C   UNL d   1     -49.543  25.144  33.306  0.00  0.00     0.000 A 
ATOM     17  C   UNL d   1     -49.596  25.980  33.307  0.00  0.00     0.000 A 
ENDROOT
TORSDOF 0
ENDMDL
MODEL 2
REMARK VINA RESULT:      14.3      0.782      2.886
REMARK  0 active torsions:
REMARK  status: ('A' for Active; 'I' for Inactive)
ROOT
ATOM      1  C   UNL d   1     -51.376  25.911  33.306  0.00  0.00     0.106 A 
ATOM      2  O   UNL d   1     -52.154  26.168  33.306  0.00  0.00    -0.273 OA
ATOM      3  C   UNL d   1     -52.769  25.612  33.306  0.00  0.00     0.300 A 
ATOM      4  C   UNL d   1     -51.812  24.553  33.306  0.00  0.00     0.007 A 
ATOM      5  C   UNL d   1     -51.204  25.099  33.306  0.00  0.00     0.023 A 
ATOM      6  C   UNL d   1     -52.598  24.804  33.306  0.00  0.00     0.064 A 
ATOM      7  C   UNL d   1     -50.764  26.462  33.306  0.00  0.00     0.062 A 
ATOM      8  C   UNL d   1     -50.422  24.848  33.306  0.00  0.00     0.005 A 
ATOM      9  C   UNL d   1     -49.976  26.204  33.306  0.00  0.00     0.198 A 
ATOM     10  O   UNL d   1     -53.565  25.869  33.306  0.00  0.00    -0.259 OA
ATOM     11  C   UNL d   1     -49.805  25.396  33.306  0.00  0.00     0.042 A 
ATOM     12  C   UNL d   1     -51.640  23.742  33.306  0.00  0.00     0.000 A 
ATOM     13  C   UNL d   1     -53.210  24.257  33.306  0.00  0.00     0.005 A 
ATOM     14  O   UNL d   1     -49.357  26.760  33.306  0.00  0.00    -0.286 OA
ATOM     15  C   UNL d   1     -50.931  27.253  33.306  0.00  0.00     0.005 C 
ATOM     16  C   UNL d   1     -52.252  23.191  33.306  0.00  0.00     0.000 A 
ATOM     17  C   UNL d   1     -53.051  23.443  33.306  0.00  0.00     0.000 A 
ENDROOT
TORSDOF 0
ENDMDL
