MODEL 1
REMARK VINA RESULT:      68.7      0.000      0.000
REMARK  4 active torsions:
REMARK  status: ('A' for Active; 'I' for Inactive)
REMARK    1  A    between atoms: N_8  and  C_1 
REMARK    2  A    between atoms: C_12  and  C_2 
REMARK    3  A    between atoms: C_4  and  C_10 
REMARK       I    between atoms: C_10  and  N_8 
REMARK       I    between atoms: C_14  and  N_11 
REMARK    4  A    between atoms: O_22  and  C_12 
ROOT
ATOM      1  C   UNL d   1      14.147  14.464  -3.383  0.00  0.00     0.119 A 
ATOM      2  C   UNL d   1      13.819  13.711  -3.430  0.00  0.00     0.088 A 
ATOM      3  C   UNL d   1      14.434  13.818  -2.253  0.00  0.00     0.049 A 
ATOM      4  C   UNL d   1      13.998  13.311  -2.728  0.00  0.00     0.016 A 
ATOM      5  S   UNL d   1      14.530  14.528  -2.648  0.00  0.00    -0.066 SA
ATOM      6  N   UNL d   1      14.514  12.805  -1.244  0.00  0.00    -0.272 N 
ATOM      7  C   UNL d   1      14.692  13.556  -1.503  0.00  0.00     0.089 A 
ATOM      8  C   UNL d   1      14.765  12.535  -0.502  0.00  0.00     0.265 C 
ATOM      9  C   UNL d   1      13.813  12.546  -2.471  0.00  0.00     0.020 A 
ATOM     10  C   UNL d   1      14.070  12.295  -1.732  0.00  0.00     0.083 A 
ATOM     11  O   UNL d   1      15.203  13.039  -0.020  0.00  0.00    -0.267 OA
ATOM     12  C   UNL d   1      14.586  11.781  -0.241  0.00  0.00     0.066 C 
ENDROOT
BRANCH   1  13
ATOM     13  N   UNL d   1      14.105  15.057  -3.965  0.00  0.00    -0.200 NA
ATOM     14  C   UNL d   1      14.352  15.823  -3.780  0.00  0.00     0.303 C 
ATOM     15  O   UNL d   1      14.637  16.006  -3.035  0.00  0.00    -0.263 OA
BRANCH  14  16
ATOM     16  C   UNL d   1      14.310  16.410  -4.356  0.00  0.00     0.169 A 
ATOM     17  N   UNL d   1      13.732  16.479  -4.951  0.00  0.00    -0.234 NA
ATOM     18  C   UNL d   1      13.926  17.164  -5.399  0.00  0.00     0.088 A 
ATOM     19  C   UNL d   1      13.563  17.512  -6.052  0.00  0.00     0.020 A 
ATOM     20  C   UNL d   1      14.611  17.485  -5.061  0.00  0.00     0.049 A 
ATOM     21  C   UNL d   1      13.895  18.200  -6.375  0.00  0.00     0.002 A 
ATOM     22  C   UNL d   1      14.580  18.524  -6.040  0.00  0.00     0.001 A 
ATOM     23  C   UNL d   1      14.933  18.170  -5.392  0.00  0.00     0.008 A 
ATOM     24  S   UNL d   1      14.833  17.017  -4.429  0.00  0.00    -0.062 SA
ENDBRANCH  14  16
ENDBRANCH   1  13
BRANCH   2  25
ATOM     25  C   UNL d   1      13.392  13.414  -4.061  0.00  0.00     0.298 C 
ATOM     26  O   UNL d   1      12.862  13.898  -4.461  0.00  0.00    -0.259 OA
BRANCH  25  27
ATOM     27  O   UNL d   1      13.497  12.616  -4.297  0.00  0.00    -0.296 OA
ATOM     28  C   UNL d   1      12.861  12.188  -4.600  0.00  0.00     0.185 C 
ENDBRANCH  25  27
ENDBRANCH   2  25
TORSDOF 4
ENDMDL
