MODEL 1
REMARK VINA RESULT:     -10.9      0.000      0.000
REMARK  4 active torsions:
REMARK  status: ('A' for Active; 'I' for Inactive)
REMARK    1  A    between atoms: C_6  and  S_1 
REMARK    2  A    between atoms: N_9  and  S_1 
REMARK    3  A    between atoms: C_17  and  N_9 
REMARK       I    between atoms: C_13  and  N_15 
REMARK    4  A    between atoms: N_15  and  C_18 
ROOT
ATOM      1  C   UNL d   1      52.424  33.476  53.303  0.00  0.00     0.054 A 
ATOM      2  C   UNL d   1      52.262  32.710  53.091  0.00  0.00     0.196 A 
ATOM      3  C   UNL d   1      53.105  33.693  53.653  0.00  0.00     0.043 A 
ATOM      4  C   UNL d   1      53.676  33.146  53.814  0.00  0.00     0.196 A 
ATOM      5  C   UNL d   1      51.859  34.097  53.157  0.00  0.00     0.108 A 
ATOM      6  C   UNL d   1      52.825  32.126  53.243  0.00  0.00     0.042 A 
ATOM      7  C   UNL d   1      53.522  32.350  53.601  0.00  0.00     0.042 A 
ATOM      8  O   UNL d   1      51.512  32.548  52.720  0.00  0.00    -0.286 OA
ATOM      9  O   UNL d   1      54.399  33.384  54.187  0.00  0.00    -0.287 OA
ATOM     10  C   UNL d   1      53.263  34.491  53.868  0.00  0.00     0.003 A 
ATOM     11  C   UNL d   1      52.026  34.853  53.370  0.00  0.00     0.013 A 
ATOM     12  C   UNL d   1      52.694  31.337  53.041  0.00  0.00     0.003 A 
ATOM     13  C   UNL d   1      54.133  31.748  53.771  0.00  0.00     0.003 A 
ATOM     14  C   UNL d   1      52.699  35.075  53.717  0.00  0.00     0.001 A 
ATOM     15  C   UNL d   1      53.249  30.779  53.193  0.00  0.00     0.000 A 
ATOM     16  C   UNL d   1      53.969  30.982  53.558  0.00  0.00     0.000 A 
ENDROOT
BRANCH   5  17
ATOM     17  S   UNL d   1      51.106  33.917  52.782  0.00  0.00     0.285 S 
ATOM     18  O   UNL d   1      50.804  33.694  53.502  0.00  0.00    -0.198 OA
ATOM     19  O   UNL d   1      51.440  34.155  52.033  0.00  0.00    -0.198 OA
BRANCH  17  20
ATOM     20  N   UNL d   1      50.400  33.748  52.428  0.00  0.00    -0.158 NA
BRANCH  20  21
ATOM     21  C   UNL d   1      49.796  34.337  52.390  0.00  0.00     0.094 A 
ATOM     22  C   UNL d   1      49.514  34.692  53.070  0.00  0.00     0.021 A 
ATOM     23  C   UNL d   1      48.917  35.275  53.026  0.00  0.00     0.021 A 
ATOM     24  C   UNL d   1      48.596  35.503  52.272  0.00  0.00     0.085 A 
ATOM     25  C   UNL d   1      48.896  35.129  51.582  0.00  0.00     0.021 A 
ATOM     26  C   UNL d   1      49.474  34.567  51.632  0.00  0.00     0.021 A 
BRANCH  24  27
ATOM     27  N   UNL d   1      48.009  36.077  52.250  0.00  0.00    -0.208 NA
ATOM     28  C   UNL d   1      47.227  35.912  52.023  0.00  0.00     0.279 C 
ATOM     29  O   UNL d   1      47.049  35.100  51.807  0.00  0.00    -0.265 OA
ATOM     30  C   UNL d   1      46.613  36.468  51.991  0.00  0.00     0.068 C 
ENDBRANCH  24  27
ENDBRANCH  20  21
ENDBRANCH  17  20
ENDBRANCH   5  17
TORSDOF 4
ENDMDL
MODEL 2
REMARK VINA RESULT:     -10.6      1.068      1.966
REMARK  4 active torsions:
REMARK  status: ('A' for Active; 'I' for Inactive)
REMARK    1  A    between atoms: C_6  and  S_1 
REMARK    2  A    between atoms: N_9  and  S_1 
REMARK    3  A    between atoms: C_17  and  N_9 
REMARK       I    between atoms: C_13  and  N_15 
REMARK    4  A    between atoms: N_15  and  C_18 
ROOT
ATOM      1  C   UNL d   1      52.696  33.076  53.542  0.00  0.00     0.054 A 
ATOM      2  C   UNL d   1      52.969  33.739  53.922  0.00  0.00     0.196 A 
ATOM      3  C   UNL d   1      53.054  32.368  53.597  0.00  0.00     0.043 A 
ATOM      4  C   UNL d   1      53.719  32.278  54.044  0.00  0.00     0.196 A 
ATOM      5  C   UNL d   1      51.997  33.111  53.055  0.00  0.00     0.108 A 
ATOM      6  C   UNL d   1      53.648  33.681  54.388  0.00  0.00     0.042 A 
ATOM      7  C   UNL d   1      54.013  32.954  54.443  0.00  0.00     0.042 A 
ATOM      8  O   UNL d   1      52.536  34.466  53.820  0.00  0.00    -0.286 OA
ATOM      9  O   UNL d   1      54.096  31.520  54.098  0.00  0.00    -0.287 OA
ATOM     10  C   UNL d   1      52.762  31.688  53.198  0.00  0.00     0.003 A 
ATOM     11  C   UNL d   1      51.732  32.451  52.681  0.00  0.00     0.013 A 
ATOM     12  C   UNL d   1      53.954  34.334  54.789  0.00  0.00     0.003 A 
ATOM     13  C   UNL d   1      54.733  32.869  54.931  0.00  0.00     0.003 A 
ATOM     14  C   UNL d   1      52.082  31.746  52.732  0.00  0.00     0.001 A 
ATOM     15  C   UNL d   1      54.613  34.264  55.238  0.00  0.00     0.000 A 
ATOM     16  C   UNL d   1      55.005  33.533  55.311  0.00  0.00     0.000 A 
ENDROOT
BRANCH   5  17
ATOM     17  S   UNL d   1      51.571  33.853  52.962  0.00  0.00     0.285 S 
ATOM     18  O   UNL d   1      51.133  33.681  53.624  0.00  0.00    -0.198 OA
ATOM     19  O   UNL d   1      52.041  34.017  52.268  0.00  0.00    -0.198 OA
BRANCH  17  20
ATOM     20  N   UNL d   1      51.172  34.549  52.873  0.00  0.00    -0.158 NA
BRANCH  20  21
ATOM     21  C   UNL d   1      50.421  34.559  52.489  0.00  0.00     0.094 A 
ATOM     22  C   UNL d   1      50.364  34.462  51.679  0.00  0.00     0.021 A 
ATOM     23  C   UNL d   1      49.618  34.473  51.303  0.00  0.00     0.021 A 
ATOM     24  C   UNL d   1      48.910  34.584  51.760  0.00  0.00     0.085 A 
ATOM     25  C   UNL d   1      48.984  34.682  52.591  0.00  0.00     0.021 A 
ATOM     26  C   UNL d   1      49.708  34.671  52.948  0.00  0.00     0.021 A 
BRANCH  24  27
ATOM     27  N   UNL d   1      48.186  34.591  51.372  0.00  0.00    -0.208 NA
ATOM     28  C   UNL d   1      47.685  35.254  51.369  0.00  0.00     0.279 C 
ATOM     29  O   UNL d   1      47.955  35.948  51.796  0.00  0.00    -0.265 OA
ATOM     30  C   UNL d   1      46.950  35.293  50.987  0.00  0.00     0.068 C 
ENDBRANCH  24  27
ENDBRANCH  20  21
ENDBRANCH  17  20
ENDBRANCH   5  17
TORSDOF 4
ENDMDL
MODEL 3
REMARK VINA RESULT:      -8.5      1.230      5.725
REMARK  4 active torsions:
REMARK  status: ('A' for Active; 'I' for Inactive)
REMARK    1  A    between atoms: C_6  and  S_1 
REMARK    2  A    between atoms: N_9  and  S_1 
REMARK    3  A    between atoms: C_17  and  N_9 
REMARK       I    between atoms: C_13  and  N_15 
REMARK    4  A    between atoms: N_15  and  C_18 
ROOT
ATOM      1  C   UNL d   1      48.688  35.087  52.122  0.00  0.00     0.054 A 
ATOM      2  C   UNL d   1      48.494  35.460  52.816  0.00  0.00     0.196 A 
ATOM      3  C   UNL d   1      48.225  35.106  51.476  0.00  0.00     0.043 A 
ATOM      4  C   UNL d   1      47.525  35.507  51.484  0.00  0.00     0.196 A 
ATOM      5  C   UNL d   1      49.416  34.648  52.055  0.00  0.00     0.108 A 
ATOM      6  C   UNL d   1      47.784  35.880  52.857  0.00  0.00     0.042 A 
ATOM      7  C   UNL d   1      47.310  35.898  52.194  0.00  0.00     0.042 A 
ATOM      8  O   UNL d   1      49.037  35.399  53.470  0.00  0.00    -0.286 OA
ATOM      9  O   UNL d   1      47.036  35.524  50.792  0.00  0.00    -0.287 OA
ATOM     10  C   UNL d   1      48.438  34.715  50.762  0.00  0.00     0.003 A 
ATOM     11  C   UNL d   1      49.603  34.280  51.365  0.00  0.00     0.013 A 
ATOM     12  C   UNL d   1      47.554  36.272  53.546  0.00  0.00     0.003 A 
ATOM     13  C   UNL d   1      46.555  36.336  52.216  0.00  0.00     0.003 A 
ATOM     14  C   UNL d   1      49.148  34.295  50.721  0.00  0.00     0.001 A 
ATOM     15  C   UNL d   1      46.862  36.675  53.574  0.00  0.00     0.000 A 
ATOM     16  C   UNL d   1      46.361  36.709  52.910  0.00  0.00     0.000 A 
ENDROOT
BRANCH   5  17
ATOM     17  S   UNL d   1      49.954  34.595  52.724  0.00  0.00     0.285 S 
ATOM     18  O   UNL d   1      50.298  35.296  52.498  0.00  0.00    -0.198 OA
ATOM     19  O   UNL d   1      49.580  33.860  52.947  0.00  0.00    -0.198 OA
BRANCH  17  20
ATOM     20  N   UNL d   1      50.458  34.545  53.353  0.00  0.00    -0.158 NA
BRANCH  20  21
ATOM     21  C   UNL d   1      51.202  34.156  53.266  0.00  0.00     0.094 A 
ATOM     22  C   UNL d   1      51.256  33.342  53.313  0.00  0.00     0.021 A 
ATOM     23  C   UNL d   1      51.995  32.962  53.227  0.00  0.00     0.021 A 
ATOM     24  C   UNL d   1      52.699  33.419  53.090  0.00  0.00     0.085 A 
ATOM     25  C   UNL d   1      52.627  34.255  53.044  0.00  0.00     0.021 A 
ATOM     26  C   UNL d   1      51.910  34.616  53.128  0.00  0.00     0.021 A 
BRANCH  24  27
ATOM     27  N   UNL d   1      53.416  33.027  53.008  0.00  0.00    -0.208 NA
ATOM     28  C   UNL d   1      53.963  32.956  53.630  0.00  0.00     0.279 C 
ATOM     29  O   UNL d   1      53.748  33.316  54.379  0.00  0.00    -0.265 OA
ATOM     30  C   UNL d   1      54.693  32.567  53.579  0.00  0.00     0.068 C 
ENDBRANCH  24  27
ENDBRANCH  20  21
ENDBRANCH  17  20
ENDBRANCH   5  17
TORSDOF 4
ENDMDL
MODEL 4
REMARK VINA RESULT:      -8.0      2.068      5.253
REMARK  4 active torsions:
REMARK  status: ('A' for Active; 'I' for Inactive)
REMARK    1  A    between atoms: C_6  and  S_1 
REMARK    2  A    between atoms: N_9  and  S_1 
REMARK    3  A    between atoms: C_17  and  N_9 
REMARK       I    between atoms: C_13  and  N_15 
REMARK    4  A    between atoms: N_15  and  C_18 
ROOT
ATOM      1  C   UNL d   1      52.219  33.603  53.350  0.00  0.00     0.054 A 
ATOM      2  C   UNL d   1      51.596  33.430  52.861  0.00  0.00     0.196 A 
ATOM      3  C   UNL d   1      52.264  34.273  53.775  0.00  0.00     0.043 A 
ATOM      4  C   UNL d   1      51.674  34.823  53.736  0.00  0.00     0.196 A 
ATOM      5  C   UNL d   1      52.871  33.059  53.432  0.00  0.00     0.108 A 
ATOM      6  C   UNL d   1      50.976  33.972  52.798  0.00  0.00     0.042 A 
ATOM      7  C   UNL d   1      51.023  34.659  53.234  0.00  0.00     0.042 A 
ATOM      8  O   UNL d   1      51.614  32.693  52.434  0.00  0.00    -0.286 OA
ATOM      9  O   UNL d   1      51.727  35.536  54.191  0.00  0.00    -0.287 OA
ATOM     10  C   UNL d   1      52.916  34.441  54.279  0.00  0.00     0.003 A 
ATOM     11  C   UNL d   1      53.486  33.236  53.918  0.00  0.00     0.013 A 
ATOM     12  C   UNL d   1      50.326  33.830  52.311  0.00  0.00     0.003 A 
ATOM     13  C   UNL d   1      50.378  35.247  53.183  0.00  0.00     0.003 A 
ATOM     14  C   UNL d   1      53.535  33.899  54.342  0.00  0.00     0.001 A 
ATOM     15  C   UNL d   1      49.731  34.364  52.258  0.00  0.00     0.000 A 
ATOM     16  C   UNL d   1      49.755  35.073  52.694  0.00  0.00     0.000 A 
ENDROOT
BRANCH   5  17
ATOM     17  S   UNL d   1      52.874  32.318  52.994  0.00  0.00     0.285 S 
ATOM     18  O   UNL d   1      52.307  32.024  53.496  0.00  0.00    -0.198 OA
ATOM     19  O   UNL d   1      53.471  32.644  52.477  0.00  0.00    -0.198 OA
BRANCH  17  20
ATOM     20  N   UNL d   1      52.878  31.623  52.583  0.00  0.00    -0.158 NA
BRANCH  20  21
ATOM     21  C   UNL d   1      53.046  30.899  52.981  0.00  0.00     0.094 A 
ATOM     22  C   UNL d   1      53.790  30.750  53.285  0.00  0.00     0.021 A 
ATOM     23  C   UNL d   1      53.951  30.031  53.678  0.00  0.00     0.021 A 
ATOM     24  C   UNL d   1      53.341  29.445  53.766  0.00  0.00     0.085 A 
ATOM     25  C   UNL d   1      52.581  29.612  53.449  0.00  0.00     0.021 A 
ATOM     26  C   UNL d   1      52.432  30.309  53.070  0.00  0.00     0.021 A 
BRANCH  24  27
ATOM     27  N   UNL d   1      53.519  28.745  54.156  0.00  0.00    -0.208 NA
ATOM     28  C   UNL d   1      53.378  28.634  54.968  0.00  0.00     0.279 C 
ATOM     29  O   UNL d   1      53.032  29.293  55.396  0.00  0.00    -0.265 OA
ATOM     30  C   UNL d   1      53.546  27.941  55.390  0.00  0.00     0.068 C 
ENDBRANCH  24  27
ENDBRANCH  20  21
ENDBRANCH  17  20
ENDBRANCH   5  17
TORSDOF 4
ENDMDL
