MODEL 1
REMARK VINA RESULT:       5.3      0.000      0.000
REMARK  3 active torsions:
REMARK  status: ('A' for Active; 'I' for Inactive)
REMARK    1  A    between atoms: C_6  and  C_1 
REMARK    2  A    between atoms: O_9  and  C_6 
REMARK    3  A    between atoms: C_12  and  O_9 
ROOT
ATOM      1  C   UNL d   1      23.839  12.854  -1.081  0.00  0.00     0.089 A 
ATOM      2  C   UNL d   1      23.036  12.711  -0.919  0.00  0.00     0.138 A 
ATOM      3  S   UNL d   1      22.754  13.337  -0.500  0.00  0.00    -0.066 SA
ATOM      4  C   UNL d   1      24.021  13.569  -0.754  0.00  0.00     0.013 A 
ATOM      5  C   UNL d   1      23.370  13.869  -0.400  0.00  0.00     0.031 A 
ATOM      6  N   UNL d   1      22.587  12.047  -1.139  0.00  0.00    -0.141 N 
ATOM      7  C   UNL d   1      24.744  13.984  -0.748  0.00  0.00     0.001 A 
ATOM      8  C   UNL d   1      23.399  14.608  -0.014  0.00  0.00     0.006 A 
ATOM      9  C   UNL d   1      24.768  14.723  -0.360  0.00  0.00     0.000 A 
ATOM     10  C   UNL d   1      24.116  15.007  -0.015  0.00  0.00     0.001 A 
ENDROOT
BRANCH   1  11
ATOM     11  C   UNL d   1      24.339  12.330  -1.510  0.00  0.00     0.302 C 
ATOM     12  O   UNL d   1      24.768  11.782  -1.101  0.00  0.00    -0.259 OA
BRANCH  11  13
ATOM     13  O   UNL d   1      24.366  12.398  -2.304  0.00  0.00    -0.271 OA
BRANCH  13  14
ATOM     14  C   UNL d   1      24.749  11.828  -2.738  0.00  0.00     0.126 C 
ATOM     15  C   UNL d   1      24.748  11.877  -3.561  0.00  0.00     0.029 C 
ENDBRANCH  13  14
ENDBRANCH  11  13
ENDBRANCH   1  11
TORSDOF 3
ENDMDL
