MODEL 1
REMARK VINA RESULT:      36.9      0.000      0.000
REMARK  5 active torsions:
REMARK  status: ('A' for Active; 'I' for Inactive)
REMARK    1  A    between atoms: C_4  and  C_1 
REMARK       I    between atoms: N_2  and  C_3 
REMARK    2  A    between atoms: C_6  and  N_2 
REMARK    3  A    between atoms: C_3  and  C_5 
REMARK    4  A    between atoms: C_5  and  C_7 
REMARK    5  A    between atoms: C_7  and  C_14 
ROOT
ATOM      1  C   UNL d   1     -56.844 -99.133 -44.549  0.00  0.00     0.062 C 
ENDROOT
BRANCH   1   2
ATOM      2  C   UNL d   1     -56.456 -99.829 -44.701  0.00  0.00     0.279 C 
ATOM      3  N   UNL d   1     -56.138-100.256 -44.077  0.00  0.00    -0.208 NA
ATOM      4  O   UNL d   1     -56.384-100.098 -45.462  0.00  0.00    -0.265 OA
BRANCH   3   5
ATOM      5  C   UNL d   1     -55.739-100.970 -44.229  0.00  0.00     0.085 A 
ATOM      6  C   UNL d   1     -55.115-101.196 -43.729  0.00  0.00     0.018 A 
ATOM      7  C   UNL d   1     -54.900-100.716 -43.094  0.00  0.00     0.002 C 
ATOM      8  C   UNL d   1     -54.712-101.905 -43.871  0.00  0.00     0.002 A 
ATOM      9  C   UNL d   1     -54.926-102.382 -44.502  0.00  0.00     0.000 A 
ATOM     10  C   UNL d   1     -55.542-102.154 -44.992  0.00  0.00     0.002 A 
ATOM     11  C   UNL d   1     -55.954-101.447 -44.860  0.00  0.00     0.019 A 
ENDBRANCH   3   5
ENDBRANCH   1   2
BRANCH   1  12
ATOM     12  C   UNL d   1     -57.509 -98.921 -45.001  0.00  0.00     0.005 C 
BRANCH  12  13
ATOM     13  C   UNL d   1     -58.262 -98.889 -44.662  0.00  0.00     0.000 A 
ATOM     14  C   UNL d   1     -58.335 -98.879 -43.851  0.00  0.00     0.004 A 
ATOM     15  C   UNL d   1     -59.098 -98.846 -43.534  0.00  0.00     0.071 A 
ATOM     16  C   UNL d   1     -59.759 -98.824 -43.986  0.00  0.00     0.004 A 
ATOM     17  C   UNL d   1     -59.686 -98.834 -44.796  0.00  0.00    -0.000 A 
ATOM     18  C   UNL d   1     -58.956 -98.866 -45.139  0.00  0.00    -0.000 A 
BRANCH  15  19
ATOM     19  C   UNL d   1     -59.149 -98.837 -42.706  0.00  0.00     0.419 C 
ATOM     20  F   UNL d   1     -59.172 -98.831 -41.860  0.00  0.00    -0.166 F 
ATOM     21  F   UNL d   1     -59.946 -98.766 -42.731  0.00  0.00    -0.166 F 
ATOM     22  F   UNL d   1     -58.304 -98.913 -42.662  0.00  0.00    -0.166 F 
ENDBRANCH  15  19
ENDBRANCH  12  13
ENDBRANCH   1  12
TORSDOF 5
ENDMDL
