MODEL 1
REMARK VINA RESULT:      -8.4      0.000      0.000
REMARK  5 active torsions:
REMARK  status: ('A' for Active; 'I' for Inactive)
REMARK    1  A    between atoms: S_10  and  C_5 
REMARK    2  A    between atoms: C_14  and  N_9 
REMARK    3  A    between atoms: C_17  and  S_10 
REMARK    4  A    between atoms: C_15  and  C_14 
REMARK    5  A    between atoms: C_19  and  C_17 
ROOT
ATOM      1  C   UNL d   1      53.477  33.785  54.253  0.00  0.00     0.174 A 
ATOM      2  N   UNL d   1      52.784  34.037  53.906  0.00  0.00    -0.203 NA
ATOM      3  C   UNL d   1      53.659  33.042  53.945  0.00  0.00     0.159 A 
ATOM      4  N   UNL d   1      53.975  34.122  54.807  0.00  0.00    -0.239 N 
ATOM      5  C   UNL d   1      52.543  33.444  53.384  0.00  0.00     0.181 A 
ATOM      6  C   UNL d   1      54.669  33.737  55.077  0.00  0.00     0.358 A 
ATOM      7  N   UNL d   1      54.851  32.993  54.769  0.00  0.00    -0.152 NA
ATOM      8  C   UNL d   1      54.339  32.635  54.192  0.00  0.00     0.302 A 
ATOM      9  N   UNL d   1      53.041  32.784  53.352  0.00  0.00    -0.279 N 
ATOM     10  O   UNL d   1      55.177  34.073  55.638  0.00  0.00    -0.244 OA
ATOM     11  O   UNL d   1      54.521  31.891  53.884  0.00  0.00    -0.263 OA
ATOM     12  C   UNL d   1      53.793  34.865  55.115  0.00  0.00     0.105 C 
ENDROOT
BRANCH   5  13
ATOM     13  S   UNL d   1      51.849  33.662  53.016  0.00  0.00    -0.049 SA
BRANCH  13  14
ATOM     14  C   UNL d   1      51.494  34.377  52.815  0.00  0.00     0.038 C 
BRANCH  14  15
ATOM     15  C   UNL d   1      50.772  34.383  52.415  0.00  0.00     0.007 A 
ATOM     16  C   UNL d   1      50.071  34.497  52.832  0.00  0.00     0.003 A 
ATOM     17  C   UNL d   1      49.351  34.503  52.438  0.00  0.00     0.030 A 
ATOM     18  C   UNL d   1      49.329  34.394  51.616  0.00  0.00     0.140 A 
ATOM     19  C   UNL d   1      50.030  34.280  51.200  0.00  0.00     0.030 A 
ATOM     20  F   UNL d   1      48.607  34.399  51.216  0.00  0.00    -0.204 F 
ATOM     21  C   UNL d   1      50.752  34.274  51.600  0.00  0.00     0.003 A 
ENDBRANCH  14  15
ENDBRANCH  13  14
ENDBRANCH   5  13
BRANCH   9  22
ATOM     22  C   UNL d   1      52.996  32.094  52.913  0.00  0.00     0.082 C 
BRANCH  22  23
ATOM     23  C   UNL d   1      52.451  31.513  53.131  0.00  0.00     0.019 C 
ATOM     24  C   UNL d   1      52.469  30.776  52.769  0.00  0.00     0.002 C 
ENDBRANCH  22  23
ENDBRANCH   9  22
TORSDOF 5
ENDMDL
MODEL 2
REMARK VINA RESULT:      -8.3      2.460      4.385
REMARK  5 active torsions:
REMARK  status: ('A' for Active; 'I' for Inactive)
REMARK    1  A    between atoms: S_10  and  C_5 
REMARK    2  A    between atoms: C_14  and  N_9 
REMARK    3  A    between atoms: C_17  and  S_10 
REMARK    4  A    between atoms: C_15  and  C_14 
REMARK    5  A    between atoms: C_19  and  C_17 
ROOT
ATOM      1  C   UNL d   1      51.960  33.503  53.335  0.00  0.00     0.174 A 
ATOM      2  N   UNL d   1      52.194  32.723  53.319  0.00  0.00    -0.203 NA
ATOM      3  C   UNL d   1      52.595  33.952  53.610  0.00  0.00     0.159 A 
ATOM      4  N   UNL d   1      51.259  33.877  53.141  0.00  0.00    -0.239 N 
ATOM      5  C   UNL d   1      52.975  32.696  53.585  0.00  0.00     0.181 A 
ATOM      6  C   UNL d   1      51.162  34.707  53.210  0.00  0.00     0.358 A 
ATOM      7  N   UNL d   1      51.797  35.156  53.484  0.00  0.00    -0.152 NA
ATOM      8  C   UNL d   1      52.529  34.776  53.690  0.00  0.00     0.302 A 
ATOM      9  N   UNL d   1      53.299  33.430  53.788  0.00  0.00    -0.279 N 
ATOM     10  O   UNL d   1      50.455  35.091  53.014  0.00  0.00    -0.244 OA
ATOM     11  O   UNL d   1      53.164  35.225  53.964  0.00  0.00    -0.263 OA
ATOM     12  C   UNL d   1      50.624  33.427  52.866  0.00  0.00     0.105 C 
ENDROOT
BRANCH   5  13
ATOM     13  S   UNL d   1      53.245  31.927  53.583  0.00  0.00    -0.049 SA
BRANCH  13  14
ATOM     14  C   UNL d   1      53.115  31.264  53.112  0.00  0.00     0.038 C 
BRANCH  14  15
ATOM     15  C   UNL d   1      53.197  30.507  53.431  0.00  0.00     0.007 A 
ATOM     16  C   UNL d   1      52.549  30.000  53.460  0.00  0.00     0.003 A 
ATOM     17  C   UNL d   1      52.626  29.247  53.777  0.00  0.00     0.030 A 
ATOM     18  C   UNL d   1      53.360  28.995  54.070  0.00  0.00     0.140 A 
ATOM     19  C   UNL d   1      54.007  29.503  54.040  0.00  0.00     0.030 A 
ATOM     20  F   UNL d   1      53.442  28.239  54.389  0.00  0.00    -0.204 F 
ATOM     21  C   UNL d   1      53.925  30.259  53.721  0.00  0.00     0.003 A 
ENDBRANCH  14  15
ENDBRANCH  13  14
ENDBRANCH   5  13
BRANCH   9  22
ATOM     22  C   UNL d   1      54.041  33.634  54.069  0.00  0.00     0.082 C 
BRANCH  22  23
ATOM     23  C   UNL d   1      54.257  33.411  54.834  0.00  0.00     0.019 C 
ATOM     24  C   UNL d   1      55.008  33.590  55.118  0.00  0.00     0.002 C 
ENDBRANCH  22  23
ENDBRANCH   9  22
TORSDOF 5
ENDMDL
MODEL 3
REMARK VINA RESULT:      -7.7      1.069      2.298
REMARK  5 active torsions:
REMARK  status: ('A' for Active; 'I' for Inactive)
REMARK    1  A    between atoms: S_10  and  C_5 
REMARK    2  A    between atoms: C_14  and  N_9 
REMARK    3  A    between atoms: C_17  and  S_10 
REMARK    4  A    between atoms: C_15  and  C_14 
REMARK    5  A    between atoms: C_19  and  C_17 
ROOT
ATOM      1  C   UNL d   1      52.708  32.367  53.227  0.00  0.00     0.174 A 
ATOM      2  N   UNL d   1      51.994  32.708  53.033  0.00  0.00    -0.203 NA
ATOM      3  C   UNL d   1      53.224  32.971  53.449  0.00  0.00     0.159 A 
ATOM      4  N   UNL d   1      52.970  31.593  53.237  0.00  0.00    -0.239 N 
ATOM      5  C   UNL d   1      52.075  33.522  53.136  0.00  0.00     0.181 A 
ATOM      6  C   UNL d   1      53.751  31.388  53.465  0.00  0.00     0.358 A 
ATOM      7  N   UNL d   1      54.267  31.992  53.686  0.00  0.00    -0.152 NA
ATOM      8  C   UNL d   1      54.003  32.801  53.680  0.00  0.00     0.302 A 
ATOM      9  N   UNL d   1      52.821  33.768  53.397  0.00  0.00    -0.279 N 
ATOM     10  O   UNL d   1      54.022  30.606  53.476  0.00  0.00    -0.244 OA
ATOM     11  O   UNL d   1      54.520  33.405  53.901  0.00  0.00    -0.263 OA
ATOM     12  C   UNL d   1      52.454  30.989  53.015  0.00  0.00     0.105 C 
ENDROOT
BRANCH   5  13
ATOM     13  S   UNL d   1      51.376  33.899  52.950  0.00  0.00    -0.049 SA
BRANCH  13  14
ATOM     14  C   UNL d   1      50.579  33.692  52.968  0.00  0.00     0.038 C 
BRANCH  14  15
ATOM     15  C   UNL d   1      50.012  34.206  52.660  0.00  0.00     0.007 A 
ATOM     16  C   UNL d   1      49.624  34.737  53.157  0.00  0.00     0.003 A 
ATOM     17  C   UNL d   1      49.059  35.250  52.854  0.00  0.00     0.030 A 
ATOM     18  C   UNL d   1      48.877  35.234  52.045  0.00  0.00     0.140 A 
ATOM     19  C   UNL d   1      49.265  34.703  51.550  0.00  0.00     0.030 A 
ATOM     20  F   UNL d   1      48.310  35.748  51.738  0.00  0.00    -0.204 F 
ATOM     21  C   UNL d   1      49.832  34.189  51.858  0.00  0.00     0.003 A 
ENDBRANCH  14  15
ENDBRANCH  13  14
ENDBRANCH   5  13
BRANCH   9  22
ATOM     22  C   UNL d   1      53.117  34.513  53.562  0.00  0.00     0.082 C 
BRANCH  22  23
ATOM     23  C   UNL d   1      52.854  34.911  54.236  0.00  0.00     0.019 C 
ATOM     24  C   UNL d   1      53.073  35.693  54.363  0.00  0.00     0.002 C 
ENDBRANCH  22  23
ENDBRANCH   9  22
TORSDOF 5
ENDMDL
MODEL 4
REMARK VINA RESULT:      -7.1      2.091      3.749
REMARK  5 active torsions:
REMARK  status: ('A' for Active; 'I' for Inactive)
REMARK    1  A    between atoms: S_10  and  C_5 
REMARK    2  A    between atoms: C_14  and  N_9 
REMARK    3  A    between atoms: C_17  and  S_10 
REMARK    4  A    between atoms: C_15  and  C_14 
REMARK    5  A    between atoms: C_19  and  C_17 
ROOT
ATOM      1  C   UNL d   1      53.403  33.809  54.262  0.00  0.00     0.174 A 
ATOM      2  N   UNL d   1      53.367  33.024  54.049  0.00  0.00    -0.203 NA
ATOM      3  C   UNL d   1      52.804  34.209  53.860  0.00  0.00     0.159 A 
ATOM      4  N   UNL d   1      53.894  34.227  54.765  0.00  0.00    -0.239 N 
ATOM      5  C   UNL d   1      52.744  32.944  53.514  0.00  0.00     0.181 A 
ATOM      6  C   UNL d   1      53.810  35.052  54.889  0.00  0.00     0.358 A 
ATOM      7  N   UNL d   1      53.210  35.451  54.487  0.00  0.00    -0.152 NA
ATOM      8  C   UNL d   1      52.695  35.025  53.961  0.00  0.00     0.302 A 
ATOM      9  N   UNL d   1      52.339  33.645  53.343  0.00  0.00    -0.279 N 
ATOM     10  O   UNL d   1      54.304  35.479  55.398  0.00  0.00    -0.244 OA
ATOM     11  O   UNL d   1      52.095  35.425  53.558  0.00  0.00    -0.263 OA
ATOM     12  C   UNL d   1      54.493  33.827  55.168  0.00  0.00     0.105 C 
ENDROOT
BRANCH   5  13
ATOM     13  S   UNL d   1      52.677  32.167  53.277  0.00  0.00    -0.049 SA
BRANCH  13  14
ATOM     14  C   UNL d   1      53.195  31.602  52.974  0.00  0.00     0.038 C 
BRANCH  14  15
ATOM     15  C   UNL d   1      53.133  30.815  53.211  0.00  0.00     0.007 A 
ATOM     16  C   UNL d   1      52.507  30.351  52.942  0.00  0.00     0.003 A 
ATOM     17  C   UNL d   1      52.442  29.567  53.176  0.00  0.00     0.030 A 
ATOM     18  C   UNL d   1      53.008  29.239  53.686  0.00  0.00     0.140 A 
ATOM     19  C   UNL d   1      53.633  29.703  53.955  0.00  0.00     0.030 A 
ATOM     20  F   UNL d   1      52.946  28.452  53.924  0.00  0.00    -0.204 F 
ATOM     21  C   UNL d   1      53.695  30.491  53.717  0.00  0.00     0.003 A 
ENDBRANCH  14  15
ENDBRANCH  13  14
ENDBRANCH   5  13
BRANCH   9  22
ATOM     22  C   UNL d   1      51.702  33.795  52.851  0.00  0.00     0.082 C 
BRANCH  22  23
ATOM     23  C   UNL d   1      50.947  33.557  53.086  0.00  0.00     0.019 C 
ATOM     24  C   UNL d   1      50.294  33.740  52.620  0.00  0.00     0.002 C 
ENDBRANCH  22  23
ENDBRANCH   9  22
TORSDOF 5
ENDMDL
MODEL 5
REMARK VINA RESULT:      -6.1     10.039     10.993
REMARK  5 active torsions:
REMARK  status: ('A' for Active; 'I' for Inactive)
REMARK    1  A    between atoms: S_10  and  C_5 
REMARK    2  A    between atoms: C_14  and  N_9 
REMARK    3  A    between atoms: C_17  and  S_10 
REMARK    4  A    between atoms: C_15  and  C_14 
REMARK    5  A    between atoms: C_19  and  C_17 
ROOT
ATOM      1  C   UNL d   1      45.080  28.437  58.131  0.00  0.00     0.174 A 
ATOM      2  N   UNL d   1      45.009  28.756  58.877  0.00  0.00    -0.203 NA
ATOM      3  C   UNL d   1      44.880  29.023  57.585  0.00  0.00     0.159 A 
ATOM      4  N   UNL d   1      45.299  27.697  57.861  0.00  0.00    -0.239 N 
ATOM      5  C   UNL d   1      44.764  29.539  58.786  0.00  0.00     0.181 A 
ATOM      6  C   UNL d   1      45.327  27.509  57.045  0.00  0.00     0.358 A 
ATOM      7  N   UNL d   1      45.127  28.094  56.499  0.00  0.00    -0.152 NA
ATOM      8  C   UNL d   1      44.899  28.868  56.770  0.00  0.00     0.302 A 
ATOM      9  N   UNL d   1      44.661  29.783  58.003  0.00  0.00    -0.279 N 
ATOM     10  O   UNL d   1      45.548  26.761  56.766  0.00  0.00    -0.244 OA
ATOM     11  O   UNL d   1      44.699  29.453  56.224  0.00  0.00    -0.263 OA
ATOM     12  C   UNL d   1      45.499  27.111  58.407  0.00  0.00     0.105 C 
ENDROOT
BRANCH   5  13
ATOM     13  S   UNL d   1      44.681  29.892  59.516  0.00  0.00    -0.049 SA
BRANCH  13  14
ATOM     14  C   UNL d   1      44.325  29.683  60.229  0.00  0.00     0.038 C 
BRANCH  14  15
ATOM     15  C   UNL d   1      44.425  30.159  60.896  0.00  0.00     0.007 A 
ATOM     16  C   UNL d   1      44.635  29.820  61.616  0.00  0.00     0.003 A 
ATOM     17  C   UNL d   1      44.735  30.290  62.282  0.00  0.00     0.030 A 
ATOM     18  C   UNL d   1      44.624  31.110  62.230  0.00  0.00     0.140 A 
ATOM     19  C   UNL d   1      44.414  31.448  61.509  0.00  0.00     0.030 A 
ATOM     20  F   UNL d   1      44.724  31.585  62.896  0.00  0.00    -0.204 F 
ATOM     21  C   UNL d   1      44.314  30.972  60.842  0.00  0.00     0.003 A 
ENDBRANCH  14  15
ENDBRANCH  13  14
ENDBRANCH   5  13
BRANCH   9  22
ATOM     22  C   UNL d   1      44.428  30.502  57.687  0.00  0.00     0.082 C 
BRANCH  22  23
ATOM     23  C   UNL d   1      44.949  31.141  57.714  0.00  0.00     0.019 C 
ATOM     24  C   UNL d   1      44.715  31.875  57.427  0.00  0.00     0.002 C 
ENDBRANCH  22  23
ENDBRANCH   9  22
TORSDOF 5
ENDMDL
MODEL 6
REMARK VINA RESULT:      -5.7      9.957     10.841
REMARK  5 active torsions:
REMARK  status: ('A' for Active; 'I' for Inactive)
REMARK    1  A    between atoms: S_10  and  C_5 
REMARK    2  A    between atoms: C_14  and  N_9 
REMARK    3  A    between atoms: C_17  and  S_10 
REMARK    4  A    between atoms: C_15  and  C_14 
REMARK    5  A    between atoms: C_19  and  C_17 
ROOT
ATOM      1  C   UNL d   1      44.759  29.455  59.384  0.00  0.00     0.174 A 
ATOM      2  N   UNL d   1      44.735  28.710  59.055  0.00  0.00    -0.203 NA
ATOM      3  C   UNL d   1      44.876  29.998  58.774  0.00  0.00     0.159 A 
ATOM      4  N   UNL d   1      44.690  29.726  60.152  0.00  0.00    -0.239 N 
ATOM      5  C   UNL d   1      44.839  28.799  58.241  0.00  0.00     0.181 A 
ATOM      6  C   UNL d   1      44.736  30.540  60.345  0.00  0.00     0.358 A 
ATOM      7  N   UNL d   1      44.853  31.083  59.735  0.00  0.00    -0.152 NA
ATOM      8  C   UNL d   1      44.926  30.811  58.932  0.00  0.00     0.302 A 
ATOM      9  N   UNL d   1      44.935  29.580  57.985  0.00  0.00    -0.279 N 
ATOM     10  O   UNL d   1      44.667  30.820  61.121  0.00  0.00    -0.244 OA
ATOM     11  O   UNL d   1      45.043  31.354  58.322  0.00  0.00    -0.263 OA
ATOM     12  C   UNL d   1      44.573  29.183  60.762  0.00  0.00     0.105 C 
ENDROOT
BRANCH   5  13
ATOM     13  S   UNL d   1      44.822  28.070  57.876  0.00  0.00    -0.049 SA
BRANCH  13  14
ATOM     14  C   UNL d   1      45.247  27.369  57.952  0.00  0.00     0.038 C 
BRANCH  14  15
ATOM     15  C   UNL d   1      45.023  26.701  57.522  0.00  0.00     0.007 A 
ATOM     16  C   UNL d   1      45.281  26.604  56.746  0.00  0.00     0.003 A 
ATOM     17  C   UNL d   1      45.059  25.940  56.316  0.00  0.00     0.030 A 
ATOM     18  C   UNL d   1      44.574  25.365  56.664  0.00  0.00     0.140 A 
ATOM     19  C   UNL d   1      44.317  25.463  57.440  0.00  0.00     0.030 A 
ATOM     20  F   UNL d   1      44.349  24.697  56.235  0.00  0.00    -0.204 F 
ATOM     21  C   UNL d   1      44.541  26.131  57.869  0.00  0.00     0.003 A 
ENDBRANCH  14  15
ENDBRANCH  13  14
ENDBRANCH   5  13
BRANCH   9  22
ATOM     22  C   UNL d   1      45.050  29.892  57.237  0.00  0.00     0.082 C 
BRANCH  22  23
ATOM     23  C   UNL d   1      44.421  29.898  56.701  0.00  0.00     0.019 C 
ATOM     24  C   UNL d   1      44.549  30.116  55.919  0.00  0.00     0.002 C 
ENDBRANCH  22  23
ENDBRANCH   9  22
TORSDOF 5
ENDMDL
MODEL 7
REMARK VINA RESULT:      -5.6     10.628     11.353
REMARK  5 active torsions:
REMARK  status: ('A' for Active; 'I' for Inactive)
REMARK    1  A    between atoms: S_10  and  C_5 
REMARK    2  A    between atoms: C_14  and  N_9 
REMARK    3  A    between atoms: C_17  and  S_10 
REMARK    4  A    between atoms: C_15  and  C_14 
REMARK    5  A    between atoms: C_19  and  C_17 
ROOT
ATOM      1  C   UNL d   1      44.581  29.377  60.939  0.00  0.00     0.174 A 
ATOM      2  N   UNL d   1      44.669  28.794  60.377  0.00  0.00    -0.203 NA
ATOM      3  C   UNL d   1      44.498  30.097  60.547  0.00  0.00     0.159 A 
ATOM      4  N   UNL d   1      44.563  29.362  61.757  0.00  0.00    -0.239 N 
ATOM      5  C   UNL d   1      44.640  29.161  59.638  0.00  0.00     0.181 A 
ATOM      6  C   UNL d   1      44.463  30.057  62.214  0.00  0.00     0.358 A 
ATOM      7  N   UNL d   1      44.380  30.778  61.822  0.00  0.00    -0.152 NA
ATOM      8  C   UNL d   1      44.397  30.804  60.971  0.00  0.00     0.302 A 
ATOM      9  N   UNL d   1      44.534  29.982  59.660  0.00  0.00    -0.279 N 
ATOM     10  O   UNL d   1      44.444  30.048  63.042  0.00  0.00    -0.244 OA
ATOM     11  O   UNL d   1      44.314  31.524  60.579  0.00  0.00    -0.263 OA
ATOM     12  C   UNL d   1      44.646  28.641  62.149  0.00  0.00     0.105 C 
ENDROOT
BRANCH   5  13
ATOM     13  S   UNL d   1      44.725  28.606  59.047  0.00  0.00    -0.049 SA
BRANCH  13  14
ATOM     14  C   UNL d   1      44.968  27.820  59.015  0.00  0.00     0.038 C 
BRANCH  14  15
ATOM     15  C   UNL d   1      44.985  27.421  58.293  0.00  0.00     0.007 A 
ATOM     16  C   UNL d   1      45.667  27.432  57.832  0.00  0.00     0.003 A 
ATOM     17  C   UNL d   1      45.688  27.037  57.113  0.00  0.00     0.030 A 
ATOM     18  C   UNL d   1      45.019  26.625  56.848  0.00  0.00     0.140 A 
ATOM     19  C   UNL d   1      44.337  26.615  57.309  0.00  0.00     0.030 A 
ATOM     20  F   UNL d   1      45.036  26.227  56.126  0.00  0.00    -0.204 F 
ATOM     21  C   UNL d   1      44.320  27.013  58.032  0.00  0.00     0.003 A 
ENDBRANCH  14  15
ENDBRANCH  13  14
ENDBRANCH   5  13
BRANCH   9  22
ATOM     22  C   UNL d   1      44.478  30.535  59.060  0.00  0.00     0.082 C 
BRANCH  22  23
ATOM     23  C   UNL d   1      45.151  30.723  58.620  0.00  0.00     0.019 C 
ATOM     24  C   UNL d   1      45.095  31.239  57.983  0.00  0.00     0.002 C 
ENDBRANCH  22  23
ENDBRANCH   9  22
TORSDOF 5
ENDMDL
