MODEL 1
REMARK VINA RESULT:      32.3      0.000      0.000
REMARK  3 active torsions:
REMARK  status: ('A' for Active; 'I' for Inactive)
REMARK    1  A    between atoms: S_7  and  C_4 
REMARK    2  A    between atoms: C_9  and  S_7 
REMARK    3  A    between atoms: C_10  and  C_9 
ROOT
ATOM      1  S   UNL d   1     -51.160  26.103  33.353  0.00  0.00    -0.046 SA
ENDROOT
BRANCH   1   2
ATOM      2  C   UNL d   1     -50.530  26.618  33.489  0.00  0.00     0.217 A 
ATOM      3  N   UNL d   1     -50.672  27.426  33.596  0.00  0.00    -0.180 NA
ATOM      4  C   UNL d   1     -50.043  27.942  33.732  0.00  0.00     0.300 A 
ATOM      5  C   UNL d   1     -49.273  27.650  33.762  0.00  0.00     0.161 A 
ATOM      6  O   UNL d   1     -50.185  28.749  33.839  0.00  0.00    -0.263 OA
ATOM      7  C   UNL d   1     -48.643  28.166  33.899  0.00  0.00     0.028 C 
ATOM      8  N   UNL d   1     -49.131  26.842  33.656  0.00  0.00    -0.141 NA
ATOM      9  N   UNL d   1     -49.759  26.327  33.519  0.00  0.00    -0.121 NA
ENDBRANCH   1   2
BRANCH   1  10
ATOM     10  C   UNL d   1     -51.028  25.287  33.324  0.00  0.00     0.038 C 
BRANCH  10  11
ATOM     11  C   UNL d   1     -51.667  24.764  33.320  0.00  0.00     0.007 A 
ATOM     12  C   UNL d   1     -51.535  23.949  33.319  0.00  0.00     0.001 A 
ATOM     13  C   UNL d   1     -52.174  23.426  33.315  0.00  0.00     0.000 A 
ATOM     14  C   UNL d   1     -52.945  23.721  33.311  0.00  0.00     0.000 A 
ATOM     15  C   UNL d   1     -53.076  24.537  33.312  0.00  0.00     0.000 A 
ATOM     16  C   UNL d   1     -53.583  23.198  33.307  0.00  0.00     0.000 C 
ATOM     17  C   UNL d   1     -52.438  25.059  33.316  0.00  0.00     0.001 A 
ENDBRANCH  10  11
ENDBRANCH   1  10
TORSDOF 3
ENDMDL
