MODEL 1
REMARK VINA RESULT:      44.7      0.000      0.000
REMARK  2 active torsions:
REMARK  status: ('A' for Active; 'I' for Inactive)
REMARK    1  A    between atoms: N_2  and  S_1 
REMARK    2  A    between atoms: C_3  and  S_1 
ROOT
ATOM      1  N   UNL d   1     -47.460  31.261  35.238  0.00  0.00    -0.231 N 
ATOM      2  C   UNL d   1     -47.626  30.448  35.230  0.00  0.00     0.075 A 
ATOM      3  C   UNL d   1     -47.033  31.402  35.952  0.00  0.00     0.092 A 
ATOM      4  C   UNL d   1     -47.298  30.111  35.935  0.00  0.00     0.018 A 
ATOM      5  C   UNL d   1     -46.941  30.723  36.355  0.00  0.00     0.021 A 
ATOM      6  C   UNL d   1     -48.015  29.963  34.706  0.00  0.00     0.018 A 
ATOM      7  C   UNL d   1     -47.375  29.315  36.081  0.00  0.00     0.002 A 
ATOM      8  C   UNL d   1     -48.096  29.154  34.849  0.00  0.00     0.002 A 
ATOM      9  C   UNL d   1     -47.772  28.831  35.543  0.00  0.00     0.000 A 
ENDROOT
BRANCH   1  10
ATOM     10  S   UNL d   1     -47.628  31.872  34.722  0.00  0.00     0.277 S 
ATOM     11  O   UNL d   1     -46.946  32.294  34.982  0.00  0.00    -0.199 OA
ATOM     12  O   UNL d   1     -48.318  31.466  34.444  0.00  0.00    -0.199 OA
BRANCH  10  13
ATOM     13  C   UNL d   1     -47.785  32.492  34.207  0.00  0.00     0.133 A 
ATOM     14  S   UNL d   1     -47.237  32.912  33.725  0.00  0.00    -0.074 SA
ATOM     15  C   UNL d   1     -47.642  33.482  33.306  0.00  0.00     0.036 A 
ATOM     16  C   UNL d   1     -48.443  33.458  33.491  0.00  0.00     0.008 A 
ATOM     17  C   UNL d   1     -48.534  32.847  34.048  0.00  0.00     0.020 A 
ENDBRANCH  10  13
ENDBRANCH   1  10
TORSDOF 2
ENDMDL
MODEL 2
REMARK VINA RESULT:      47.4      0.852      3.425
REMARK  2 active torsions:
REMARK  status: ('A' for Active; 'I' for Inactive)
REMARK    1  A    between atoms: N_2  and  S_1 
REMARK    2  A    between atoms: C_3  and  S_1 
ROOT
ATOM      1  N   UNL d   1     -47.372  32.014  34.466  0.00  0.00    -0.231 N 
ATOM      2  C   UNL d   1     -47.961  32.517  34.167  0.00  0.00     0.075 A 
ATOM      3  C   UNL d   1     -46.643  32.299  34.150  0.00  0.00     0.092 A 
ATOM      4  C   UNL d   1     -47.582  33.095  33.678  0.00  0.00     0.018 A 
ATOM      5  C   UNL d   1     -46.774  32.933  33.689  0.00  0.00     0.021 A 
ATOM      6  C   UNL d   1     -48.769  32.545  34.257  0.00  0.00     0.018 A 
ATOM      7  C   UNL d   1     -48.023  33.668  33.306  0.00  0.00     0.002 A 
ATOM      8  C   UNL d   1     -49.221  33.124  33.881  0.00  0.00     0.002 A 
ATOM      9  C   UNL d   1     -48.843  33.688  33.403  0.00  0.00     0.000 A 
ENDROOT
BRANCH   1  10
ATOM     10  S   UNL d   1     -47.389  31.363  34.960  0.00  0.00     0.277 S 
ATOM     11  O   UNL d   1     -47.695  30.884  34.337  0.00  0.00    -0.199 OA
ATOM     12  O   UNL d   1     -47.083  31.825  35.601  0.00  0.00    -0.199 OA
BRANCH  10  13
ATOM     13  C   UNL d   1     -47.412  30.702  35.446  0.00  0.00     0.133 A 
ATOM     14  S   UNL d   1     -47.687  29.930  35.252  0.00  0.00    -0.074 SA
ATOM     15  C   UNL d   1     -47.604  29.452  35.907  0.00  0.00     0.036 A 
ATOM     16  C   UNL d   1     -47.282  29.877  36.533  0.00  0.00     0.008 A 
ATOM     17  C   UNL d   1     -47.162  30.650  36.250  0.00  0.00     0.020 A 
ENDBRANCH  10  13
ENDBRANCH   1  10
TORSDOF 2
ENDMDL
