MODEL 1
REMARK VINA RESULT:      33.0      0.000      0.000
REMARK  5 active torsions:
REMARK  status: ('A' for Active; 'I' for Inactive)
REMARK    1  A    between atoms: C_9  and  N_1 
REMARK    2  A    between atoms: C_2  and  C_9 
REMARK    3  A    between atoms: S_14  and  C_5 
REMARK    4  A    between atoms: C_12  and  C_16 
REMARK       I    between atoms: N_13  and  C_12 
REMARK    5  A    between atoms: C_16  and  S_14 
ROOT
ATOM      1  C   UNL d   1      13.475  11.814  -2.473  0.00  0.00     0.189 A 
ATOM      2  N   UNL d   1      14.180  11.895  -2.065  0.00  0.00    -0.265 N 
ATOM      3  C   UNL d   1      14.007  11.914  -1.259  0.00  0.00     0.202 A 
ATOM      4  N   UNL d   1      12.864  11.784  -1.924  0.00  0.00    -0.126 NA
ATOM      5  N   UNL d   1      13.191  11.846  -1.171  0.00  0.00    -0.121 NA
ATOM      6  C   UNL d   1      14.940  11.948  -2.389  0.00  0.00     0.103 C 
ENDROOT
BRANCH   1   7
ATOM      7  C   UNL d   1      13.476  11.779  -3.290  0.00  0.00     0.123 C 
BRANCH   7   8
ATOM      8  N   UNL d   1      13.386  12.467  -3.740  0.00  0.00    -0.265 N 
ATOM      9  C   UNL d   1      13.238  13.227  -3.442  0.00  0.00     0.296 A 
ATOM     10  S   UNL d   1      13.189  13.740  -4.086  0.00  0.00    -0.025 SA
ATOM     11  O   UNL d   1      13.156  13.430  -2.648  0.00  0.00    -0.259 OA
ATOM     12  C   UNL d   1      13.308  13.289  -4.780  0.00  0.00     0.050 A 
ATOM     13  C   UNL d   1      13.428  12.506  -4.558  0.00  0.00     0.074 A 
ATOM     14  C   UNL d   1      13.319  13.503  -5.580  0.00  0.00     0.008 A 
ATOM     15  C   UNL d   1      13.561  11.928  -5.141  0.00  0.00     0.018 A 
ATOM     16  C   UNL d   1      13.574  12.137  -5.942  0.00  0.00     0.002 A 
ATOM     17  C   UNL d   1      13.451  12.933  -6.154  0.00  0.00     0.001 A 
ENDBRANCH   7   8
ENDBRANCH   1   7
BRANCH   3  18
ATOM     18  S   UNL d   1      14.553  11.989  -0.645  0.00  0.00    -0.043 SA
BRANCH  18  19
ATOM     19  C   UNL d   1      14.550  12.658  -0.158  0.00  0.00     0.099 C 
BRANCH  19  20
ATOM     20  C   UNL d   1      15.221  13.139  -0.105  0.00  0.00     0.271 C 
ATOM     21  N   UNL d   1      15.141  13.958  -0.083  0.00  0.00    -0.272 N 
ATOM     22  C   UNL d   1      14.477  14.446  -0.103  0.00  0.00     0.083 A 
ATOM     23  C   UNL d   1      15.804  14.434  -0.031  0.00  0.00     0.083 A 
ATOM     24  C   UNL d   1      14.741  15.228  -0.062  0.00  0.00     0.021 A 
ATOM     25  C   UNL d   1      15.553  15.214  -0.018  0.00  0.00     0.021 A 
ATOM     26  O   UNL d   1      15.974  12.796  -0.076  0.00  0.00    -0.266 OA
ENDBRANCH  19  20
ENDBRANCH  18  19
ENDBRANCH   3  18
TORSDOF 5
ENDMDL
