MODEL 1
REMARK VINA RESULT:      -5.6      0.000      0.000
REMARK  2 active torsions:
REMARK  status: ('A' for Active; 'I' for Inactive)
REMARK    1  A    between atoms: N_2  and  S_1 
REMARK    2  A    between atoms: C_3  and  S_1 
ROOT
ATOM      1  S   UNL d   1     -41.614-122.546 -52.487  0.00  0.00     0.287 S 
ATOM      2  O   UNL d   1     -41.136-122.071 -52.963  0.00  0.00    -0.198 OA
ATOM      3  O   UNL d   1     -42.197-123.029 -52.841  0.00  0.00    -0.198 OA
ENDROOT
BRANCH   1   4
ATOM      4  N   UNL d   1     -41.519-122.545 -51.657  0.00  0.00    -0.152 N 
ATOM      5  N   UNL d   1     -41.672-123.240 -51.218  0.00  0.00    -0.155 NA
ATOM      6  C   UNL d   1     -41.577-123.239 -50.388  0.00  0.00     0.104 A 
ATOM      7  C   UNL d   1     -41.676-123.816 -49.778  0.00  0.00     0.022 C 
ATOM      8  C   UNL d   1     -41.181-121.860 -50.435  0.00  0.00     0.041 A 
ATOM      9  C   UNL d   1     -41.276-121.861 -51.265  0.00  0.00     0.096 A 
ATOM     10  C   UNL d   1     -41.123-121.166 -51.704  0.00  0.00     0.022 C 
ENDBRANCH   1   4
BRANCH   1  11
ATOM     11  C   UNL d   1     -41.752-122.547 -53.693  0.00  0.00     0.117 A 
ATOM     12  C   UNL d   1     -42.088-121.964 -54.076  0.00  0.00     0.025 A 
ATOM     13  C   UNL d   1     -42.159-121.998 -54.854  0.00  0.00     0.059 A 
ATOM     14 CL   UNL d   1     -42.524-121.366 -55.271  0.00  0.00    -0.082 Cl
ATOM     15  C   UNL d   1     -41.891-122.622 -55.232  0.00  0.00     0.012 A 
ATOM     16  C   UNL d   1     -41.554-123.207 -54.849  0.00  0.00     0.013 A 
ATOM     17  C   UNL d   1     -41.484-123.169 -54.073  0.00  0.00     0.070 A 
ATOM     18 CL   UNL d   1     -41.123-123.796 -53.659  0.00  0.00    -0.082 Cl
ENDBRANCH   1  11
TORSDOF 2
ENDMDL
MODEL 2
REMARK VINA RESULT:      -5.4      2.087      3.059
REMARK  2 active torsions:
REMARK  status: ('A' for Active; 'I' for Inactive)
REMARK    1  A    between atoms: N_2  and  S_1 
REMARK    2  A    between atoms: C_3  and  S_1 
ROOT
ATOM      1  S   UNL d   1     -41.894-123.082 -49.957  0.00  0.00     0.287 S 
ATOM      2  O   UNL d   1     -42.379-122.637 -50.454  0.00  0.00    -0.198 OA
ATOM      3  O   UNL d   1     -41.168-123.378 -50.247  0.00  0.00    -0.198 OA
ENDROOT
BRANCH   1   4
ATOM      4  N   UNL d   1     -42.123-123.237 -49.169  0.00  0.00    -0.152 N 
ATOM      5  N   UNL d   1     -41.620-123.022 -48.537  0.00  0.00    -0.155 NA
ATOM      6  C   UNL d   1     -41.850-123.177 -47.749  0.00  0.00     0.104 A 
ATOM      7  C   UNL d   1     -41.499-123.044 -46.991  0.00  0.00     0.022 C 
ATOM      8  C   UNL d   1     -43.074-123.758 -48.220  0.00  0.00     0.041 A 
ATOM      9  C   UNL d   1     -42.845-123.602 -49.009  0.00  0.00     0.096 A 
ATOM     10  C   UNL d   1     -43.348-123.817 -49.640  0.00  0.00     0.022 C 
ENDBRANCH   1   4
BRANCH   1  11
ATOM     11  C   UNL d   1     -41.560-122.856 -51.102  0.00  0.00     0.117 A 
ATOM     12  C   UNL d   1     -41.552-123.403 -51.651  0.00  0.00     0.025 A 
ATOM     13  C   UNL d   1     -41.331-123.221 -52.379  0.00  0.00     0.059 A 
ATOM     14 CL   UNL d   1     -41.321-123.814 -52.975  0.00  0.00    -0.082 Cl
ATOM     15  C   UNL d   1     -41.122-122.490 -52.541  0.00  0.00     0.012 A 
ATOM     16  C   UNL d   1     -41.131-121.941 -51.992  0.00  0.00     0.013 A 
ATOM     17  C   UNL d   1     -41.352-122.126 -51.267  0.00  0.00     0.070 A 
ATOM     18 CL   UNL d   1     -41.362-121.539 -50.675  0.00  0.00    -0.082 Cl
ENDBRANCH   1  11
TORSDOF 2
ENDMDL
MODEL 3
REMARK VINA RESULT:      -5.2      2.345      4.413
REMARK  2 active torsions:
REMARK  status: ('A' for Active; 'I' for Inactive)
REMARK    1  A    between atoms: N_2  and  S_1 
REMARK    2  A    between atoms: C_3  and  S_1 
ROOT
ATOM      1  S   UNL d   1     -41.793-123.067 -50.536  0.00  0.00     0.287 S 
ATOM      2  O   UNL d   1     -41.482-123.724 -50.147  0.00  0.00    -0.198 OA
ATOM      3  O   UNL d   1     -42.311-122.553 -50.127  0.00  0.00    -0.198 OA
ENDROOT
BRANCH   1   4
ATOM      4  N   UNL d   1     -41.594-122.913 -51.332  0.00  0.00    -0.152 N 
ATOM      5  N   UNL d   1     -41.669-123.516 -51.906  0.00  0.00    -0.155 NA
ATOM      6  C   UNL d   1     -41.469-123.361 -52.703  0.00  0.00     0.104 A 
ATOM      7  C   UNL d   1     -41.473-123.817 -53.415  0.00  0.00     0.022 C 
ATOM      8  C   UNL d   1     -41.123-122.013 -52.355  0.00  0.00     0.041 A 
ATOM      9  C   UNL d   1     -41.322-122.167 -51.558  0.00  0.00     0.096 A 
ATOM     10  C   UNL d   1     -41.248-121.564 -50.984  0.00  0.00     0.022 C 
ENDBRANCH   1   4
BRANCH   1  11
ATOM     11  C   UNL d   1     -42.083-123.291 -49.378  0.00  0.00     0.117 A 
ATOM     12  C   UNL d   1     -41.613-123.115 -48.788  0.00  0.00     0.025 A 
ATOM     13  C   UNL d   1     -41.833-123.274 -48.055  0.00  0.00     0.059 A 
ATOM     14 CL   UNL d   1     -41.324-123.083 -47.413  0.00  0.00    -0.082 Cl
ATOM     15  C   UNL d   1     -42.523-123.608 -47.929  0.00  0.00     0.012 A 
ATOM     16  C   UNL d   1     -42.995-123.785 -48.520  0.00  0.00     0.013 A 
ATOM     17  C   UNL d   1     -42.772-123.625 -49.250  0.00  0.00     0.070 A 
ATOM     18 CL   UNL d   1     -43.276-123.813 -49.887  0.00  0.00    -0.082 Cl
ENDBRANCH   1  11
TORSDOF 2
ENDMDL
MODEL 4
REMARK VINA RESULT:      -4.8      1.550      3.786
REMARK  2 active torsions:
REMARK  status: ('A' for Active; 'I' for Inactive)
REMARK    1  A    between atoms: N_2  and  S_1 
REMARK    2  A    between atoms: C_3  and  S_1 
ROOT
ATOM      1  S   UNL d   1     -41.780-122.520 -52.728  0.00  0.00     0.287 S 
ATOM      2  O   UNL d   1     -41.225-122.962 -52.308  0.00  0.00    -0.198 OA
ATOM      3  O   UNL d   1     -42.321-122.036 -52.314  0.00  0.00    -0.198 OA
ENDROOT
BRANCH   1   4
ATOM      4  N   UNL d   1     -41.805-122.554 -53.562  0.00  0.00    -0.152 N 
ATOM      5  N   UNL d   1     -42.162-121.935 -53.996  0.00  0.00    -0.155 NA
ATOM      6  C   UNL d   1     -42.187-121.969 -54.831  0.00  0.00     0.104 A 
ATOM      7  C   UNL d   1     -42.491-121.464 -55.437  0.00  0.00     0.022 C 
ATOM      8  C   UNL d   1     -41.505-123.231 -54.799  0.00  0.00     0.041 A 
ATOM      9  C   UNL d   1     -41.480-123.197 -53.964  0.00  0.00     0.096 A 
ATOM     10  C   UNL d   1     -41.123-123.817 -53.531  0.00  0.00     0.022 C 
ENDBRANCH   1   4
BRANCH   1  11
ATOM     11  C   UNL d   1     -41.744-122.470 -51.516  0.00  0.00     0.117 A 
ATOM     12  C   UNL d   1     -42.023-123.036 -51.066  0.00  0.00     0.025 A 
ATOM     13  C   UNL d   1     -41.982-122.969 -50.288  0.00  0.00     0.059 A 
ATOM     14 CL   UNL d   1     -42.284-123.582 -49.798  0.00  0.00    -0.082 Cl
ATOM     15  C   UNL d   1     -41.662-122.333 -49.977  0.00  0.00     0.012 A 
ATOM     16  C   UNL d   1     -41.382-121.766 -50.427  0.00  0.00     0.013 A 
ATOM     17  C   UNL d   1     -41.424-121.836 -51.203  0.00  0.00     0.070 A 
ATOM     18 CL   UNL d   1     -41.125-121.228 -51.690  0.00  0.00    -0.082 Cl
ENDBRANCH   1  11
TORSDOF 2
ENDMDL
