MODEL 1
REMARK VINA RESULT:      33.7      0.000      0.000
REMARK  2 active torsions:
REMARK  status: ('A' for Active; 'I' for Inactive)
REMARK       I    between atoms: C_2  and  N_1 
REMARK       I    between atoms: N_8  and  C_2 
REMARK    1  A    between atoms: C_15  and  N_8 
REMARK    2  A    between atoms: C_9  and  C_15 
ROOT
ATOM      1  N   UNL d   1     -58.219 -98.755 -43.970  0.00  0.00    -0.258 N 
ATOM      2  C   UNL d   1     -57.394 -98.755 -43.923  0.00  0.00     0.354 C 
ATOM      3  S   UNL d   1     -59.870 -98.755 -44.102  0.00  0.00    -0.084 SA
ATOM      4  C   UNL d   1     -58.582 -98.755 -44.720  0.00  0.00     0.074 A 
ATOM      5  C   UNL d   1     -58.670 -98.755 -43.290  0.00  0.00     0.074 A 
ATOM      6  C   UNL d   1     -59.412 -98.755 -44.788  0.00  0.00     0.046 A 
ATOM      7  C   UNL d   1     -59.501 -98.755 -43.357  0.00  0.00     0.046 A 
ATOM      8  N   UNL d   1     -56.895 -98.755 -44.685  0.00  0.00    -0.189 NA
ATOM      9  O   UNL d   1     -57.006 -98.755 -43.104  0.00  0.00    -0.244 OA
ATOM     10  C   UNL d   1     -58.314 -98.755 -42.555  0.00  0.00     0.018 A 
ATOM     11  C   UNL d   1     -58.126 -98.755 -45.398  0.00  0.00     0.018 A 
ATOM     12  C   UNL d   1     -59.764 -98.755 -45.523  0.00  0.00     0.008 A 
ATOM     13  C   UNL d   1     -59.961 -98.755 -42.676  0.00  0.00     0.008 A 
ATOM     14  C   UNL d   1     -58.483 -98.755 -46.137  0.00  0.00     0.002 A 
ATOM     15  C   UNL d   1     -58.774 -98.755 -41.871  0.00  0.00     0.002 A 
ATOM     16  C   UNL d   1     -59.605 -98.755 -41.930  0.00  0.00     0.001 A 
ATOM     17  C   UNL d   1     -59.317 -98.755 -46.203  0.00  0.00     0.001 A 
ENDROOT
BRANCH   8  18
ATOM     18  C   UNL d   1     -56.072 -98.755 -44.632  0.00  0.00     0.128 C 
BRANCH  18  19
ATOM     19  C   UNL d   1     -55.660 -99.469 -44.551  0.00  0.00     0.119 A 
ATOM     20  O   UNL d   1     -55.925-100.214 -44.789  0.00  0.00    -0.304 OA
ATOM     21  C   UNL d   1     -55.341-100.767 -44.602  0.00  0.00     0.123 A 
ATOM     22  C   UNL d   1     -54.714-100.364 -44.249  0.00  0.00     0.029 A 
ATOM     23  C   UNL d   1     -54.912 -99.564 -44.217  0.00  0.00     0.028 A 
ENDBRANCH  18  19
ENDBRANCH   8  18
TORSDOF 2
ENDMDL
MODEL 2
REMARK VINA RESULT:      34.1      0.738      2.428
REMARK  2 active torsions:
REMARK  status: ('A' for Active; 'I' for Inactive)
REMARK       I    between atoms: C_2  and  N_1 
REMARK       I    between atoms: N_8  and  C_2 
REMARK    1  A    between atoms: C_15  and  N_8 
REMARK    2  A    between atoms: C_9  and  C_15 
ROOT
ATOM      1  N   UNL d   1     -58.234 -98.755 -45.001  0.00  0.00    -0.258 N 
ATOM      2  C   UNL d   1     -57.409 -98.755 -45.039  0.00  0.00     0.354 C 
ATOM      3  S   UNL d   1     -59.887 -98.756 -44.889  0.00  0.00    -0.084 SA
ATOM      4  C   UNL d   1     -58.606 -98.756 -44.256  0.00  0.00     0.074 A 
ATOM      5  C   UNL d   1     -58.677 -98.756 -45.687  0.00  0.00     0.074 A 
ATOM      6  C   UNL d   1     -59.437 -98.756 -44.198  0.00  0.00     0.046 A 
ATOM      7  C   UNL d   1     -59.509 -98.756 -45.630  0.00  0.00     0.046 A 
ATOM      8  N   UNL d   1     -56.918 -98.755 -44.271  0.00  0.00    -0.189 NA
ATOM      9  O   UNL d   1     -57.010 -98.755 -45.853  0.00  0.00    -0.244 OA
ATOM     10  C   UNL d   1     -58.312 -98.755 -46.418  0.00  0.00     0.018 A 
ATOM     11  C   UNL d   1     -58.157 -98.756 -43.572  0.00  0.00     0.018 A 
ATOM     12  C   UNL d   1     -59.797 -98.756 -43.467  0.00  0.00     0.008 A 
ATOM     13  C   UNL d   1     -59.960 -98.756 -46.316  0.00  0.00     0.008 A 
ATOM     14  C   UNL d   1     -58.523 -98.756 -42.838  0.00  0.00     0.002 A 
ATOM     15  C   UNL d   1     -58.764 -98.755 -47.107  0.00  0.00     0.002 A 
ATOM     16  C   UNL d   1     -59.596 -98.756 -47.058  0.00  0.00     0.001 A 
ATOM     17  C   UNL d   1     -59.358 -98.756 -42.782  0.00  0.00     0.001 A 
ENDROOT
BRANCH   8  18
ATOM     18  C   UNL d   1     -56.095 -98.755 -44.314  0.00  0.00     0.128 C 
BRANCH  18  19
ATOM     19  C   UNL d   1     -55.677 -99.469 -44.289  0.00  0.00     0.119 A 
ATOM     20  O   UNL d   1     -55.930-100.170 -43.931  0.00  0.00    -0.304 OA
ATOM     21  C   UNL d   1     -55.343-100.740 -44.038  0.00  0.00     0.123 A 
ATOM     22  C   UNL d   1     -54.726-100.394 -44.462  0.00  0.00     0.029 A 
ATOM     23  C   UNL d   1     -54.933 -99.610 -44.616  0.00  0.00     0.028 A 
ENDBRANCH  18  19
ENDBRANCH   8  18
TORSDOF 2
ENDMDL
