MODEL 1
REMARK VINA RESULT:      -9.4      0.000      0.000
REMARK  6 active torsions:
REMARK  status: ('A' for Active; 'I' for Inactive)
REMARK    1  A    between atoms: C_4  and  C_1 
REMARK    2  A    between atoms: C_13  and  N_3 
REMARK    3  A    between atoms: C_11  and  N_5 
REMARK    4  A    between atoms: C_16  and  C_13 
REMARK    5  A    between atoms: O_14  and  C_16 
REMARK    6  A    between atoms: C_15  and  O_14 
ROOT
ATOM      1  C   UNL d   1      52.821  34.094  53.660  0.00  0.00     0.149 A 
ATOM      2  N   UNL d   1      53.045  34.607  54.269  0.00  0.00    -0.227 NA
ATOM      3  N   UNL d   1      53.353  33.447  53.655  0.00  0.00    -0.287 N 
ATOM      4  C   UNL d   1      53.903  33.572  54.267  0.00  0.00     0.083 A 
ATOM      5  C   UNL d   1      53.718  34.284  54.648  0.00  0.00     0.099 A 
ATOM      6  C   UNL d   1      54.554  33.122  54.527  0.00  0.00     0.019 A 
ATOM      7  C   UNL d   1      54.170  34.551  55.280  0.00  0.00     0.021 A 
ATOM      8  C   UNL d   1      55.008  33.396  55.166  0.00  0.00     0.002 A 
ATOM      9  C   UNL d   1      54.817  34.109  55.541  0.00  0.00     0.002 A 
ENDROOT
BRANCH   1  10
ATOM     10  C   UNL d   1      52.186  34.195  53.144  0.00  0.00     0.057 A 
ATOM     11  C   UNL d   1      51.394  34.245  53.352  0.00  0.00     0.081 A 
ATOM     12  N   UNL d   1      50.954  34.346  52.656  0.00  0.00    -0.298 N 
ATOM     13  C   UNL d   1      51.478  34.358  52.021  0.00  0.00     0.261 A 
ATOM     14  C   UNL d   1      52.241  34.265  52.320  0.00  0.00     0.065 A 
ATOM     15  O   UNL d   1      51.276  34.446  51.230  0.00  0.00    -0.267 OA
BRANCH  12  16
ATOM     16  C   UNL d   1      50.133  34.421  52.612  0.00  0.00     0.071 C 
ATOM     17  C   UNL d   1      49.712  33.949  52.082  0.00  0.00     0.023 C 
ATOM     18  C   UNL d   1      49.333  34.586  52.659  0.00  0.00     0.023 C 
ATOM     19  C   UNL d   1      49.744  34.960  53.090  0.00  0.00     0.023 C 
ENDBRANCH  12  16
ENDBRANCH   1  10
BRANCH   3  20
ATOM     20  C   UNL d   1      53.334  32.809  53.141  0.00  0.00     0.108 C 
BRANCH  20  21
ATOM     21  C   UNL d   1      53.269  32.039  53.437  0.00  0.00     0.142 C 
BRANCH  21  22
ATOM     22  O   UNL d   1      53.262  31.398  52.928  0.00  0.00    -0.304 OA
BRANCH  22  23
ATOM     23  C   UNL d   1      53.110  30.642  53.231  0.00  0.00     0.100 A 
ATOM     24  C   UNL d   1      52.358  30.318  53.132  0.00  0.00     0.025 A 
ATOM     25  C   UNL d   1      52.206  29.562  53.434  0.00  0.00     0.002 A 
ATOM     26  C   UNL d   1      52.794  29.142  53.826  0.00  0.00     0.000 A 
ATOM     27  C   UNL d   1      53.545  29.481  53.917  0.00  0.00     0.002 A 
ATOM     28  C   UNL d   1      53.697  30.233  53.617  0.00  0.00     0.025 A 
ENDBRANCH  22  23
ENDBRANCH  21  22
ENDBRANCH  20  21
ENDBRANCH   3  20
TORSDOF 6
ENDMDL
MODEL 2
REMARK VINA RESULT:      -8.3      1.069      4.016
REMARK  6 active torsions:
REMARK  status: ('A' for Active; 'I' for Inactive)
REMARK    1  A    between atoms: C_4  and  C_1 
REMARK    2  A    between atoms: C_13  and  N_3 
REMARK    3  A    between atoms: C_11  and  N_5 
REMARK    4  A    between atoms: C_16  and  C_13 
REMARK    5  A    between atoms: O_14  and  C_16 
REMARK    6  A    between atoms: C_15  and  O_14 
ROOT
ATOM      1  C   UNL d   1      53.899  32.342  54.112  0.00  0.00     0.149 A 
ATOM      2  N   UNL d   1      54.673  32.550  54.314  0.00  0.00    -0.227 NA
ATOM      3  N   UNL d   1      53.398  32.986  54.301  0.00  0.00    -0.287 N 
ATOM      4  C   UNL d   1      53.876  33.588  54.620  0.00  0.00     0.083 A 
ATOM      5  C   UNL d   1      54.661  33.325  54.630  0.00  0.00     0.099 A 
ATOM      6  C   UNL d   1      53.692  34.349  54.904  0.00  0.00     0.019 A 
ATOM      7  C   UNL d   1      55.261  33.807  54.917  0.00  0.00     0.021 A 
ATOM      8  C   UNL d   1      54.301  34.833  55.194  0.00  0.00     0.002 A 
ATOM      9  C   UNL d   1      55.083  34.563  55.200  0.00  0.00     0.002 A 
ENDROOT
BRANCH   1  10
ATOM     10  C   UNL d   1      53.655  31.627  53.782  0.00  0.00     0.057 A 
ATOM     11  C   UNL d   1      53.459  30.944  54.193  0.00  0.00     0.081 A 
ATOM     12  N   UNL d   1      53.247  30.365  53.638  0.00  0.00    -0.298 N 
ATOM     13  C   UNL d   1      53.313  30.695  52.886  0.00  0.00     0.261 A 
ATOM     14  C   UNL d   1      53.565  31.475  52.972  0.00  0.00     0.065 A 
ATOM     15  O   UNL d   1      53.155  30.313  52.176  0.00  0.00    -0.267 OA
BRANCH  12  16
ATOM     16  C   UNL d   1      53.011  29.594  53.812  0.00  0.00     0.071 C 
ATOM     17  C   UNL d   1      52.307  29.304  53.494  0.00  0.00     0.023 C 
ATOM     18  C   UNL d   1      52.886  28.823  54.056  0.00  0.00     0.023 C 
ATOM     19  C   UNL d   1      53.474  29.123  54.298  0.00  0.00     0.023 C 
ENDBRANCH  12  16
ENDBRANCH   1  10
BRANCH   3  20
ATOM     20  C   UNL d   1      52.586  33.017  54.191  0.00  0.00     0.108 C 
BRANCH  20  21
ATOM     21  C   UNL d   1      52.259  33.557  53.656  0.00  0.00     0.142 C 
BRANCH  21  22
ATOM     22  O   UNL d   1      51.467  33.757  53.701  0.00  0.00    -0.304 OA
BRANCH  22  23
ATOM     23  C   UNL d   1      51.068  33.990  53.013  0.00  0.00     0.100 A 
ATOM     24  C   UNL d   1      50.254  34.120  53.050  0.00  0.00     0.025 A 
ATOM     25  C   UNL d   1      49.855  34.353  52.362  0.00  0.00     0.002 A 
ATOM     26  C   UNL d   1      50.263  34.452  51.655  0.00  0.00     0.000 A 
ATOM     27  C   UNL d   1      51.081  34.316  51.634  0.00  0.00     0.002 A 
ATOM     28  C   UNL d   1      51.479  34.086  52.317  0.00  0.00     0.025 A 
ENDBRANCH  22  23
ENDBRANCH  21  22
ENDBRANCH  20  21
ENDBRANCH   3  20
TORSDOF 6
ENDMDL
MODEL 3
REMARK VINA RESULT:      -8.2      1.294      4.366
REMARK  6 active torsions:
REMARK  status: ('A' for Active; 'I' for Inactive)
REMARK    1  A    between atoms: C_4  and  C_1 
REMARK    2  A    between atoms: C_13  and  N_3 
REMARK    3  A    between atoms: C_11  and  N_5 
REMARK    4  A    between atoms: C_16  and  C_13 
REMARK    5  A    between atoms: O_14  and  C_16 
REMARK    6  A    between atoms: C_15  and  O_14 
ROOT
ATOM      1  C   UNL d   1      53.779  31.347  53.858  0.00  0.00     0.149 A 
ATOM      2  N   UNL d   1      53.898  30.639  54.269  0.00  0.00    -0.227 NA
ATOM      3  N   UNL d   1      53.189  31.215  53.277  0.00  0.00    -0.287 N 
ATOM      4  C   UNL d   1      52.952  30.420  53.339  0.00  0.00     0.083 A 
ATOM      5  C   UNL d   1      53.384  30.062  53.947  0.00  0.00     0.099 A 
ATOM      6  C   UNL d   1      52.391  29.975  52.914  0.00  0.00     0.019 A 
ATOM      7  C   UNL d   1      53.266  29.271  54.136  0.00  0.00     0.021 A 
ATOM      8  C   UNL d   1      52.274  29.177  53.107  0.00  0.00     0.002 A 
ATOM      9  C   UNL d   1      52.711  28.825  53.717  0.00  0.00     0.002 A 
ENDROOT
BRANCH   1  10
ATOM     10  C   UNL d   1      54.168  32.062  53.991  0.00  0.00     0.057 A 
ATOM     11  C   UNL d   1      54.036  32.578  54.615  0.00  0.00     0.081 A 
ATOM     12  N   UNL d   1      54.551  33.222  54.526  0.00  0.00    -0.298 N 
ATOM     13  C   UNL d   1      54.999  33.099  53.845  0.00  0.00     0.261 A 
ATOM     14  C   UNL d   1      54.764  32.382  53.513  0.00  0.00     0.065 A 
ATOM     15  O   UNL d   1      55.577  33.603  53.551  0.00  0.00    -0.267 OA
BRANCH  12  16
ATOM     16  C   UNL d   1      54.603  33.871  55.032  0.00  0.00     0.071 C 
ATOM     17  C   UNL d   1      55.273  33.963  55.506  0.00  0.00     0.023 C 
ATOM     18  C   UNL d   1      54.538  34.548  55.488  0.00  0.00     0.023 C 
ATOM     19  C   UNL d   1      53.994  34.418  55.062  0.00  0.00     0.023 C 
ENDBRANCH  12  16
ENDBRANCH   1  10
BRANCH   3  20
ATOM     20  C   UNL d   1      52.901  31.769  52.746  0.00  0.00     0.108 C 
BRANCH  20  21
ATOM     21  C   UNL d   1      52.169  32.133  52.881  0.00  0.00     0.142 C 
BRANCH  21  22
ATOM     22  O   UNL d   1      51.839  32.623  52.316  0.00  0.00    -0.304 OA
BRANCH  22  23
ATOM     23  C   UNL d   1      51.407  33.287  52.557  0.00  0.00     0.100 A 
ATOM     24  C   UNL d   1      51.634  34.031  52.281  0.00  0.00     0.025 A 
ATOM     25  C   UNL d   1      51.202  34.695  52.522  0.00  0.00     0.002 A 
ATOM     26  C   UNL d   1      50.559  34.615  53.028  0.00  0.00     0.000 A 
ATOM     27  C   UNL d   1      50.344  33.860  53.297  0.00  0.00     0.002 A 
ATOM     28  C   UNL d   1      50.772  33.200  53.058  0.00  0.00     0.025 A 
ENDBRANCH  22  23
ENDBRANCH  21  22
ENDBRANCH  20  21
ENDBRANCH   3  20
TORSDOF 6
ENDMDL
MODEL 4
REMARK VINA RESULT:      -8.0      1.148      3.543
REMARK  6 active torsions:
REMARK  status: ('A' for Active; 'I' for Inactive)
REMARK    1  A    between atoms: C_4  and  C_1 
REMARK    2  A    between atoms: C_13  and  N_3 
REMARK    3  A    between atoms: C_11  and  N_5 
REMARK    4  A    between atoms: C_16  and  C_13 
REMARK    5  A    between atoms: O_14  and  C_16 
REMARK    6  A    between atoms: C_15  and  O_14 
ROOT
ATOM      1  C   UNL d   1      52.028  34.423  53.497  0.00  0.00     0.149 A 
ATOM      2  N   UNL d   1      51.357  34.891  53.615  0.00  0.00    -0.227 NA
ATOM      3  N   UNL d   1      51.854  33.863  52.898  0.00  0.00    -0.287 N 
ATOM      4  C   UNL d   1      51.070  33.996  52.653  0.00  0.00     0.083 A 
ATOM      5  C   UNL d   1      50.760  34.627  53.090  0.00  0.00     0.099 A 
ATOM      6  C   UNL d   1      50.597  33.618  52.081  0.00  0.00     0.019 A 
ATOM      7  C   UNL d   1      49.989  34.884  52.966  0.00  0.00     0.021 A 
ATOM      8  C   UNL d   1      49.820  33.881  51.959  0.00  0.00     0.002 A 
ATOM      9  C   UNL d   1      49.516  34.512  52.400  0.00  0.00     0.002 A 
ENDROOT
BRANCH   1  10
ATOM     10  C   UNL d   1      52.746  34.489  53.896  0.00  0.00     0.057 A 
ATOM     11  C   UNL d   1      53.119  33.899  54.327  0.00  0.00     0.081 A 
ATOM     12  N   UNL d   1      53.825  34.211  54.630  0.00  0.00    -0.298 N 
ATOM     13  C   UNL d   1      53.884  34.995  54.384  0.00  0.00     0.261 A 
ATOM     14  C   UNL d   1      53.218  35.169  53.930  0.00  0.00     0.065 A 
ATOM     15  O   UNL d   1      54.498  35.511  54.560  0.00  0.00    -0.267 OA
BRANCH  12  16
ATOM     16  C   UNL d   1      54.371  33.806  55.097  0.00  0.00     0.071 C 
ATOM     17  C   UNL d   1      55.155  33.750  54.847  0.00  0.00     0.023 C 
ATOM     18  C   UNL d   1      54.812  33.382  55.641  0.00  0.00     0.023 C 
ATOM     19  C   UNL d   1      54.133  33.462  55.802  0.00  0.00     0.023 C 
ENDBRANCH  12  16
ENDBRANCH   1  10
BRANCH   3  20
ATOM     20  C   UNL d   1      52.364  33.290  52.609  0.00  0.00     0.108 C 
BRANCH  20  21
ATOM     21  C   UNL d   1      52.242  32.493  52.795  0.00  0.00     0.142 C 
BRANCH  21  22
ATOM     22  O   UNL d   1      52.675  31.908  52.420  0.00  0.00    -0.304 OA
BRANCH  22  23
ATOM     23  C   UNL d   1      52.826  31.198  52.818  0.00  0.00     0.100 A 
ATOM     24  C   UNL d   1      53.606  31.002  53.001  0.00  0.00     0.025 A 
ATOM     25  C   UNL d   1      53.757  30.292  53.398  0.00  0.00     0.002 A 
ATOM     26  C   UNL d   1      53.140  29.790  53.607  0.00  0.00     0.000 A 
ATOM     27  C   UNL d   1      52.361  30.001  53.416  0.00  0.00     0.002 A 
ATOM     28  C   UNL d   1      52.210  30.707  53.021  0.00  0.00     0.025 A 
ENDBRANCH  22  23
ENDBRANCH  21  22
ENDBRANCH  20  21
ENDBRANCH   3  20
TORSDOF 6
ENDMDL
MODEL 5
REMARK VINA RESULT:      -7.2      1.332      4.318
REMARK  6 active torsions:
REMARK  status: ('A' for Active; 'I' for Inactive)
REMARK    1  A    between atoms: C_4  and  C_1 
REMARK    2  A    between atoms: C_13  and  N_3 
REMARK    3  A    between atoms: C_11  and  N_5 
REMARK    4  A    between atoms: C_16  and  C_13 
REMARK    5  A    between atoms: O_14  and  C_16 
REMARK    6  A    between atoms: C_15  and  O_14 
ROOT
ATOM      1  C   UNL d   1      52.006  32.141  52.969  0.00  0.00     0.149 A 
ATOM      2  N   UNL d   1      51.197  32.314  52.954  0.00  0.00    -0.227 NA
ATOM      3  N   UNL d   1      52.426  32.866  52.974  0.00  0.00    -0.287 N 
ATOM      4  C   UNL d   1      51.865  33.480  52.963  0.00  0.00     0.083 A 
ATOM      5  C   UNL d   1      51.108  33.146  52.951  0.00  0.00     0.099 A 
ATOM      6  C   UNL d   1      51.951  34.309  52.962  0.00  0.00     0.019 A 
ATOM      7  C   UNL d   1      50.439  33.624  52.938  0.00  0.00     0.021 A 
ATOM      8  C   UNL d   1      51.274  34.788  52.949  0.00  0.00     0.002 A 
ATOM      9  C   UNL d   1      50.519  34.446  52.937  0.00  0.00     0.002 A 
ENDROOT
BRANCH   1  10
ATOM     10  C   UNL d   1      52.345  31.390  52.976  0.00  0.00     0.057 A 
ATOM     11  C   UNL d   1      52.432  30.903  53.631  0.00  0.00     0.081 A 
ATOM     12  N   UNL d   1      52.802  30.204  53.381  0.00  0.00    -0.298 N 
ATOM     13  C   UNL d   1      52.941  30.264  52.571  0.00  0.00     0.261 A 
ATOM     14  C   UNL d   1      52.660  30.997  52.319  0.00  0.00     0.065 A 
ATOM     15  O   UNL d   1      53.297  29.694  52.099  0.00  0.00    -0.267 OA
BRANCH  12  16
ATOM     16  C   UNL d   1      52.994  29.562  53.862  0.00  0.00     0.071 C 
ATOM     17  C   UNL d   1      52.529  28.881  53.834  0.00  0.00     0.023 C 
ATOM     18  C   UNL d   1      53.284  28.999  54.380  0.00  0.00     0.023 C 
ATOM     19  C   UNL d   1      53.643  29.603  54.360  0.00  0.00     0.023 C 
ENDBRANCH  12  16
ENDBRANCH   1  10
BRANCH   3  20
ATOM     20  C   UNL d   1      53.241  32.952  52.988  0.00  0.00     0.108 C 
BRANCH  20  21
ATOM     21  C   UNL d   1      53.611  33.302  53.641  0.00  0.00     0.142 C 
BRANCH  21  22
ATOM     22  O   UNL d   1      54.407  33.177  53.783  0.00  0.00    -0.304 OA
BRANCH  22  23
ATOM     23  C   UNL d   1      54.735  33.432  54.499  0.00  0.00     0.100 A 
ATOM     24  C   UNL d   1      55.362  33.969  54.481  0.00  0.00     0.025 A 
ATOM     25  C   UNL d   1      55.690  34.224  55.197  0.00  0.00     0.002 A 
ATOM     26  C   UNL d   1      55.398  33.947  55.914  0.00  0.00     0.000 A 
ATOM     27  C   UNL d   1      54.768  33.407  55.916  0.00  0.00     0.002 A 
ATOM     28  C   UNL d   1      54.441  33.153  55.204  0.00  0.00     0.025 A 
ENDBRANCH  22  23
ENDBRANCH  21  22
ENDBRANCH  20  21
ENDBRANCH   3  20
TORSDOF 6
ENDMDL
MODEL 6
REMARK VINA RESULT:      -7.2      1.048      3.306
REMARK  6 active torsions:
REMARK  status: ('A' for Active; 'I' for Inactive)
REMARK    1  A    between atoms: C_4  and  C_1 
REMARK    2  A    between atoms: C_13  and  N_3 
REMARK    3  A    between atoms: C_11  and  N_5 
REMARK    4  A    between atoms: C_16  and  C_13 
REMARK    5  A    between atoms: O_14  and  C_16 
REMARK    6  A    between atoms: C_15  and  O_14 
ROOT
ATOM      1  C   UNL d   1      52.188  31.825  52.993  0.00  0.00     0.149 A 
ATOM      2  N   UNL d   1      51.750  31.125  53.048  0.00  0.00    -0.227 NA
ATOM      3  N   UNL d   1      52.990  31.643  53.156  0.00  0.00    -0.287 N 
ATOM      4  C   UNL d   1      53.035  30.827  53.311  0.00  0.00     0.083 A 
ATOM      5  C   UNL d   1      52.275  30.503  53.246  0.00  0.00     0.099 A 
ATOM      6  C   UNL d   1      53.678  30.335  53.505  0.00  0.00     0.019 A 
ATOM      7  C   UNL d   1      52.150  29.701  53.371  0.00  0.00     0.021 A 
ATOM      8  C   UNL d   1      53.547  29.525  53.631  0.00  0.00     0.002 A 
ATOM      9  C   UNL d   1      52.785  29.209  53.564  0.00  0.00     0.002 A 
ENDROOT
BRANCH   1  10
ATOM     10  C   UNL d   1      51.894  32.572  52.809  0.00  0.00     0.057 A 
ATOM     11  C   UNL d   1      51.314  32.981  53.221  0.00  0.00     0.081 A 
ATOM     12  N   UNL d   1      51.194  33.707  52.840  0.00  0.00    -0.298 N 
ATOM     13  C   UNL d   1      51.703  33.743  52.192  0.00  0.00     0.261 A 
ATOM     14  C   UNL d   1      52.137  33.042  52.171  0.00  0.00     0.065 A 
ATOM     15  O   UNL d   1      51.766  34.368  51.663  0.00  0.00    -0.267 OA
BRANCH  12  16
ATOM     16  C   UNL d   1      50.658  34.291  53.071  0.00  0.00     0.071 C 
ATOM     17  C   UNL d   1      50.878  34.836  53.650  0.00  0.00     0.023 C 
ATOM     18  C   UNL d   1      50.046  34.815  53.213  0.00  0.00     0.023 C 
ATOM     19  C   UNL d   1      49.916  34.325  52.726  0.00  0.00     0.023 C 
ENDBRANCH  12  16
ENDBRANCH   1  10
BRANCH   3  20
ATOM     20  C   UNL d   1      53.614  32.175  53.162  0.00  0.00     0.108 C 
BRANCH  20  21
ATOM     21  C   UNL d   1      54.008  32.345  53.870  0.00  0.00     0.142 C 
BRANCH  21  22
ATOM     22  O   UNL d   1      54.678  32.816  53.869  0.00  0.00    -0.304 OA
BRANCH  22  23
ATOM     23  C   UNL d   1      54.863  33.259  54.543  0.00  0.00     0.100 A 
ATOM     24  C   UNL d   1      55.439  33.847  54.487  0.00  0.00     0.025 A 
ATOM     25  C   UNL d   1      55.624  34.290  55.162  0.00  0.00     0.002 A 
ATOM     26  C   UNL d   1      55.241  34.147  55.875  0.00  0.00     0.000 A 
ATOM     27  C   UNL d   1      54.663  33.552  55.915  0.00  0.00     0.002 A 
ATOM     28  C   UNL d   1      54.479  33.111  55.245  0.00  0.00     0.025 A 
ENDBRANCH  22  23
ENDBRANCH  21  22
ENDBRANCH  20  21
ENDBRANCH   3  20
TORSDOF 6
ENDMDL
