MODEL 1
REMARK VINA RESULT:      -2.1      0.000      0.000
REMARK  4 active torsions:
REMARK  status: ('A' for Active; 'I' for Inactive)
REMARK    1  A    between atoms: C_6  and  N_1 
REMARK    2  A    between atoms: C_8  and  C_14 
REMARK    3  A    between atoms: O_20  and  C_8 
REMARK    4  A    between atoms: C_22  and  O_20 
ROOT
ATOM      1  N   UNL d   1      32.818  19.735 -22.457  0.00  0.00    -0.242 N 
ATOM      2  C   UNL d   1      32.644  19.682 -23.287  0.00  0.00     0.267 A 
ATOM      3  C   UNL d   1      33.034  19.097 -22.169  0.00  0.00     0.267 A 
ATOM      4  C   UNL d   1      32.793  18.889 -23.463  0.00  0.00     0.061 A 
ATOM      5  C   UNL d   1      33.041  18.518 -22.754  0.00  0.00     0.061 A 
ATOM      6  C   UNL d   1      33.238  17.707 -22.735  0.00  0.00     0.005 A 
ATOM      7  C   UNL d   1      32.746  18.444 -24.145  0.00  0.00     0.005 A 
ATOM      8  O   UNL d   1      32.390  20.257 -23.808  0.00  0.00    -0.267 OA
ATOM      9  O   UNL d   1      33.241  18.982 -21.371  0.00  0.00    -0.267 OA
ATOM     10  C   UNL d   1      33.177  17.294 -23.443  0.00  0.00     0.000 A 
ATOM     11  C   UNL d   1      32.930  17.665 -24.151  0.00  0.00     0.000 A 
ATOM     12  C   UNL d   1      32.883  17.221 -24.832  0.00  0.00     0.000 C 
ENDROOT
BRANCH   1  13
ATOM     13  C   UNL d   1      32.760  20.414 -21.994  0.00  0.00     0.070 A 
ATOM     14  C   UNL d   1      33.241  21.072 -22.142  0.00  0.00     0.018 A 
ATOM     15  C   UNL d   1      33.183  21.752 -21.679  0.00  0.00     0.007 A 
ATOM     16  C   UNL d   1      32.648  21.795 -21.058  0.00  0.00     0.064 A 
ATOM     17  C   UNL d   1      32.137  21.115 -20.889  0.00  0.00     0.007 A 
ATOM     18  C   UNL d   1      32.218  20.416 -21.390  0.00  0.00     0.018 A 
BRANCH  16  19
ATOM     19  C   UNL d   1      32.625  22.499 -20.619  0.00  0.00     0.300 C 
ATOM     20  O   UNL d   1      32.334  23.205 -20.989  0.00  0.00    -0.259 OA
BRANCH  19  21
ATOM     21  O   UNL d   1      32.874  22.487 -19.874  0.00  0.00    -0.271 OA
BRANCH  21  22
ATOM     22  C   UNL d   1      32.807  23.147 -19.433  0.00  0.00     0.126 C 
ATOM     23  C   UNL d   1      33.065  23.161 -18.624  0.00  0.00     0.029 C 
ENDBRANCH  21  22
ENDBRANCH  19  21
ENDBRANCH  16  19
ENDBRANCH   1  13
TORSDOF 4
ENDMDL
MODEL 2
REMARK VINA RESULT:       0.4      3.815      5.411
REMARK  4 active torsions:
REMARK  status: ('A' for Active; 'I' for Inactive)
REMARK    1  A    between atoms: C_6  and  N_1 
REMARK    2  A    between atoms: C_8  and  C_14 
REMARK    3  A    between atoms: O_20  and  C_8 
REMARK    4  A    between atoms: C_22  and  O_20 
ROOT
ATOM      1  N   UNL d   1      29.636  17.083 -24.050  0.00  0.00    -0.242 N 
ATOM      2  C   UNL d   1      29.000  17.436 -23.611  0.00  0.00     0.267 A 
ATOM      3  C   UNL d   1      29.492  16.395 -24.256  0.00  0.00     0.267 A 
ATOM      4  C   UNL d   1      28.432  16.837 -23.582  0.00  0.00     0.061 A 
ATOM      5  C   UNL d   1      28.745  16.177 -23.991  0.00  0.00     0.061 A 
ATOM      6  C   UNL d   1      28.309  15.468 -24.068  0.00  0.00     0.005 A 
ATOM      7  C   UNL d   1      27.688  16.781 -23.254  0.00  0.00     0.005 A 
ATOM      8  O   UNL d   1      28.938  18.182 -23.285  0.00  0.00    -0.267 OA
ATOM      9  O   UNL d   1      30.012  15.912 -24.692  0.00  0.00    -0.267 OA
ATOM     10  C   UNL d   1      27.564  15.453 -23.723  0.00  0.00     0.000 A 
ATOM     11  C   UNL d   1      27.251  16.113 -23.314  0.00  0.00     0.000 A 
ATOM     12  C   UNL d   1      26.508  16.057 -22.986  0.00  0.00     0.000 C 
ENDROOT
BRANCH   1  13
ATOM     13  C   UNL d   1      30.350  17.446 -24.242  0.00  0.00     0.070 A 
ATOM     14  C   UNL d   1      31.036  17.295 -23.802  0.00  0.00     0.018 A 
ATOM     15  C   UNL d   1      31.750  17.659 -23.993  0.00  0.00     0.007 A 
ATOM     16  C   UNL d   1      31.803  18.180 -24.626  0.00  0.00     0.064 A 
ATOM     17  C   UNL d   1      31.095  18.348 -25.097  0.00  0.00     0.007 A 
ATOM     18  C   UNL d   1      30.359  17.954 -24.875  0.00  0.00     0.018 A 
BRANCH  16  19
ATOM     19  C   UNL d   1      32.542  18.521 -24.782  0.00  0.00     0.300 C 
ATOM     20  O   UNL d   1      33.241  18.047 -24.697  0.00  0.00    -0.259 OA
BRANCH  19  21
ATOM     21  O   UNL d   1      32.571  19.275 -25.003  0.00  0.00    -0.271 OA
BRANCH  21  22
ATOM     22  C   UNL d   1      33.216  19.707 -24.823  0.00  0.00     0.126 C 
ATOM     23  C   UNL d   1      33.219  20.551 -24.921  0.00  0.00     0.029 C 
ENDBRANCH  21  22
ENDBRANCH  19  21
ENDBRANCH  16  19
ENDBRANCH   1  13
TORSDOF 4
ENDMDL
