MODEL 1
REMARK VINA RESULT:      65.2      0.000      0.000
REMARK  6 active torsions:
REMARK  status: ('A' for Active; 'I' for Inactive)
REMARK    1  A    between atoms: N_3  and  C_1 
REMARK    2  A    between atoms: S_2  and  C_10 
REMARK    3  A    between atoms: N_8  and  S_2 
REMARK       I    between atoms: C_9  and  N_3 
REMARK    4  A    between atoms: C_23  and  N_4 
REMARK    5  A    between atoms: C_13  and  C_9 
REMARK    6  A    between atoms: O_25  and  C_14 
ROOT
ATOM      1  N   UNL d   1      13.573  15.279  -4.611  0.00  0.00    -0.184 NA
ATOM      2  C   UNL d   1      13.748  15.560  -5.375  0.00  0.00     0.281 C 
ATOM      3  O   UNL d   1      13.796  15.030  -6.006  0.00  0.00    -0.265 OA
ENDROOT
BRANCH   2   4
ATOM      4  C   UNL d   1      13.874  16.370  -5.500  0.00  0.00     0.058 A 
ATOM      5  C   UNL d   1      13.538  16.736  -6.155  0.00  0.00     0.005 A 
ATOM      6  C   UNL d   1      13.663  17.543  -6.280  0.00  0.00     0.013 A 
ATOM      7  C   UNL d   1      14.124  17.981  -5.750  0.00  0.00     0.104 A 
ATOM      8  C   UNL d   1      14.461  17.601  -5.089  0.00  0.00     0.013 A 
ATOM      9  C   UNL d   1      14.338  16.794  -4.960  0.00  0.00     0.005 A 
BRANCH   7  10
ATOM     10  S   UNL d   1      14.250  18.787  -5.875  0.00  0.00     0.272 S 
ATOM     11  O   UNL d   1      14.909  18.725  -5.365  0.00  0.00    -0.200 OA
ATOM     12  O   UNL d   1      13.602  18.844  -6.375  0.00  0.00    -0.200 OA
BRANCH  10  13
ATOM     13  N   UNL d   1      14.378  19.591  -5.998  0.00  0.00    -0.225 N 
ATOM     14  C   UNL d   1      13.760  20.061  -6.259  0.00  0.00     0.118 A 
ATOM     15  C   UNL d   1      13.885  20.868  -6.383  0.00  0.00     0.142 A 
ATOM     16  O   UNL d   1      14.628  21.198  -6.244  0.00  0.00    -0.300 OA
ATOM     17  C   UNL d   1      15.245  20.720  -5.981  0.00  0.00     0.142 A 
ATOM     18  C   UNL d   1      15.121  19.913  -5.857  0.00  0.00     0.118 A 
ENDBRANCH  10  13
ENDBRANCH   7  10
ENDBRANCH   2   4
BRANCH   1  19
ATOM     19  C   UNL d   1      13.447  14.462  -4.491  0.00  0.00     0.182 A 
ATOM     20  N   UNL d   1      13.687  14.035  -3.836  0.00  0.00    -0.283 N 
ATOM     21  C   UNL d   1      13.456  13.249  -3.933  0.00  0.00     0.094 A 
ATOM     22  C   UNL d   1      13.550  12.570  -3.450  0.00  0.00     0.111 A 
ATOM     23  C   UNL d   1      13.069  13.185  -4.653  0.00  0.00     0.050 A 
ATOM     24  C   UNL d   1      13.251  11.850  -3.706  0.00  0.00     0.026 A 
ATOM     25  C   UNL d   1      12.862  11.779  -4.428  0.00  0.00     0.003 A 
ATOM     26  C   UNL d   1      12.770  12.451  -4.904  0.00  0.00     0.008 A 
ATOM     27  S   UNL d   1      13.058  13.931  -5.006  0.00  0.00    -0.048 SA
BRANCH  20  28
ATOM     28  C   UNL d   1      14.094  14.333  -3.182  0.00  0.00     0.082 C 
ATOM     29  C   UNL d   1      13.955  15.066  -2.831  0.00  0.00     0.021 C 
ENDBRANCH  20  28
BRANCH  22  30
ATOM     30  O   UNL d   1      13.934  12.631  -2.734  0.00  0.00    -0.327 OA
ATOM     31  C   UNL d   1      13.902  12.015  -2.196  0.00  0.00     0.181 C 
ENDBRANCH  22  30
ENDBRANCH   1  19
TORSDOF 6
ENDMDL
