MODEL 1
REMARK VINA RESULT:      47.6      0.000      0.000
REMARK  4 active torsions:
REMARK  status: ('A' for Active; 'I' for Inactive)
REMARK    1  A    between atoms: S_2  and  N_1 
REMARK    2  A    between atoms: C_7  and  S_2 
REMARK    3  A    between atoms: S_8  and  C_5 
REMARK    4  A    between atoms: C_16  and  S_8 
ROOT
ATOM      1  N   UNL d   1     -51.354  26.154  33.334  0.00  0.00    -0.151 N 
ATOM      2  C   UNL d   1     -50.551  26.331  33.323  0.00  0.00     0.102 A 
ATOM      3  N   UNL d   1     -51.761  26.870  33.335  0.00  0.00    -0.155 NA
ATOM      4  C   UNL d   1     -50.458  27.146  33.318  0.00  0.00     0.067 A 
ATOM      5  C   UNL d   1     -51.215  27.479  33.325  0.00  0.00     0.110 A 
ATOM      6  C   UNL d   1     -49.920  25.777  33.319  0.00  0.00     0.022 C 
ATOM      7  C   UNL d   1     -51.387  28.286  33.322  0.00  0.00     0.023 C 
ENDROOT
BRANCH   1   8
ATOM      8  S   UNL d   1     -51.696  25.410  33.342  0.00  0.00     0.292 S 
ATOM      9  O   UNL d   1     -52.444  25.758  33.376  0.00  0.00    -0.198 OA
ATOM     10  O   UNL d   1     -50.958  25.064  33.309  0.00  0.00    -0.198 OA
BRANCH   8  11
ATOM     11  C   UNL d   1     -52.049  24.661  33.351  0.00  0.00     0.135 A 
ATOM     12  S   UNL d   1     -51.660  23.943  33.378  0.00  0.00    -0.073 SA
ATOM     13  C   UNL d   1     -52.227  23.344  33.378  0.00  0.00     0.036 A 
ATOM     14  C   UNL d   1     -52.973  23.695  33.350  0.00  0.00     0.008 A 
ATOM     15  C   UNL d   1     -52.863  24.517  33.333  0.00  0.00     0.020 A 
ENDBRANCH   8  11
ENDBRANCH   1   8
BRANCH   4  16
ATOM     16  S   UNL d   1     -49.790  27.636  33.307  0.00  0.00    -0.084 SA
BRANCH  16  17
ATOM     17  C   UNL d   1     -49.397  27.806  34.014  0.00  0.00     0.029 A 
ATOM     18  C   UNL d   1     -49.232  27.205  34.556  0.00  0.00     0.006 A 
ATOM     19  C   UNL d   1     -48.842  27.390  35.253  0.00  0.00     0.001 A 
ATOM     20  C   UNL d   1     -48.612  28.162  35.420  0.00  0.00     0.000 A 
ATOM     21  C   UNL d   1     -48.778  28.759  34.878  0.00  0.00     0.001 A 
ATOM     22  C   UNL d   1     -49.168  28.583  34.178  0.00  0.00     0.006 A 
ENDBRANCH  16  17
ENDBRANCH   4  16
TORSDOF 4
ENDMDL
