MODEL 1
REMARK VINA RESULT:      58.6      0.000      0.000
REMARK  3 active torsions:
REMARK  status: ('A' for Active; 'I' for Inactive)
REMARK    1  A    between atoms: C_7  and  C_1 
REMARK    2  A    between atoms: C_6  and  C_2 
REMARK    3  A    between atoms: C_3  and  C_6 
REMARK       I    between atoms: N_4  and  C_3 
ROOT
ATOM      1  C   UNL d   1     -50.106  26.554  33.488  0.00  0.00     0.038 A 
ATOM      2  C   UNL d   1     -51.380  26.162  33.752  0.00  0.00     0.043 A 
ATOM      3  C   UNL d   1     -50.555  25.886  33.660  0.00  0.00     0.016 A 
ATOM      4  C   UNL d   1     -49.329  26.802  33.325  0.00  0.00    -0.023 A 
ATOM      5  C   UNL d   1     -50.585  27.257  33.460  0.00  0.00     0.013 A 
ATOM      6  C   UNL d   1     -50.242  27.020  33.440  0.00  0.00    -0.012 A 
ATOM      7  C   UNL d   1     -51.421  27.506  33.558  0.00  0.00     0.023 A 
ATOM      8  C   UNL d   1     -51.855  26.839  33.728  0.00  0.00     0.013 A 
ATOM      9  C   UNL d   1     -50.665  26.415  33.599  0.00  0.00    -0.023 A 
ATOM     10  C   UNL d   1     -50.684  27.684  33.412  0.00  0.00    -0.027 A 
ENDROOT
BRANCH   2  11
ATOM     11  C   UNL d   1     -52.051  25.713  33.928  0.00  0.00     0.038 C 
BRANCH  11  12
ATOM     12  C   UNL d   1     -52.014  24.889  33.905  0.00  0.00     0.261 C 
ATOM     13  N   UNL d   1     -52.694  24.452  33.731  0.00  0.00    -0.268 N 
ATOM     14  C   UNL d   1     -52.657  23.628  33.708  0.00  0.00     0.110 A 
ATOM     15  C   UNL d   1     -53.409  24.845  33.579  0.00  0.00     0.110 A 
ATOM     16  C   UNL d   1     -53.332  23.190  33.534  0.00  0.00     0.142 A 
ATOM     17  O   UNL d   1     -54.049  23.572  33.382  0.00  0.00    -0.300 OA
ATOM     18  C   UNL d   1     -54.086  24.395  33.404  0.00  0.00     0.142 A 
ATOM     19  O   UNL d   1     -51.300  24.505  34.057  0.00  0.00    -0.267 OA
ENDBRANCH  11  12
ENDBRANCH   2  11
BRANCH   1  20
ATOM     20  C   UNL d   1     -49.745  25.810  33.541  0.00  0.00    -0.019 A 
ATOM     21  C   UNL d   1     -50.170  25.143  33.319  0.00  0.00    -0.004 A 
ATOM     22  C   UNL d   1     -49.819  24.402  33.369  0.00  0.00    -0.000 A 
ATOM     23  C   UNL d   1     -49.050  24.330  33.637  0.00  0.00    -0.000 A 
ATOM     24  C   UNL d   1     -48.621  25.007  33.861  0.00  0.00    -0.000 A 
ATOM     25  C   UNL d   1     -48.687  23.588  33.691  0.00  0.00    -0.000 C 
ATOM     26  C   UNL d   1     -48.981  25.747  33.809  0.00  0.00    -0.004 A 
ENDBRANCH   1  20
TORSDOF 3
ENDMDL
