MODEL 1
REMARK VINA RESULT:      63.5      0.000      0.000
REMARK  5 active torsions:
REMARK  status: ('A' for Active; 'I' for Inactive)
REMARK    1  A    between atoms: C_2  and  C_1 
REMARK       I    between atoms: N_3  and  C_1 
REMARK    2  A    between atoms: C_8  and  N_3 
REMARK    3  A    between atoms: C_5  and  C_4 
REMARK    4  A    between atoms: O_15  and  C_12 
REMARK    5  A    between atoms: O_16  and  C_13 
ROOT
ATOM      1  C   UNL d   1      61.303  48.018  50.241  0.00  0.00     0.279 C 
ATOM      2  N   UNL d   1      61.141  47.198  50.388  0.00  0.00    -0.208 NA
ATOM      3  O   UNL d   1      61.875  48.232  49.709  0.00  0.00    -0.265 OA
ENDROOT
BRANCH   1   4
ATOM      4  C   UNL d   1      60.863  48.581  50.654  0.00  0.00     0.062 A 
ATOM      5  C   UNL d   1      61.164  48.858  51.378  0.00  0.00     0.029 A 
ATOM      6  C   UNL d   1      60.737  49.421  51.805  0.00  0.00     0.096 A 
ATOM      7  C   UNL d   1      59.998  49.708  51.496  0.00  0.00     0.048 A 
ATOM      8  C   UNL d   1      59.720  49.418  50.775  0.00  0.00     0.096 A 
ATOM      9  C   UNL d   1      60.145  48.859  50.353  0.00  0.00     0.029 A 
BRANCH   6  10
ATOM     10  O   UNL d   1      61.062  49.683  52.531  0.00  0.00    -0.328 OA
ATOM     11  C   UNL d   1      61.613  49.208  52.945  0.00  0.00     0.181 C 
ENDBRANCH   6  10
BRANCH   8  12
ATOM     12  O   UNL d   1      58.982  49.707  50.470  0.00  0.00    -0.328 OA
ATOM     13  C   UNL d   1      58.289  49.603  50.904  0.00  0.00     0.181 C 
ENDBRANCH   8  12
ENDBRANCH   1   4
BRANCH   2  14
ATOM     14  C   UNL d   1      61.589  46.645  49.968  0.00  0.00     0.085 A 
ATOM     15  C   UNL d   1      61.224  45.949  49.714  0.00  0.00     0.022 A 
ATOM     16  C   UNL d   1      61.609  45.396  49.313  0.00  0.00     0.041 A 
ATOM     17  C   UNL d   1      62.438  45.516  49.130  0.00  0.00     0.003 A 
ATOM     18  C   UNL d   1      62.812  46.207  49.378  0.00  0.00     0.002 A 
ATOM     19  C   UNL d   1      62.377  46.767  49.798  0.00  0.00     0.019 A 
BRANCH  16  20
ATOM     20  C   UNL d   1      61.216  44.695  49.065  0.00  0.00     0.196 C 
ATOM     21  O   UNL d   1      61.622  43.971  49.045  0.00  0.00    -0.287 OA
ATOM     22  C   UNL d   1      60.423  44.743  48.842  0.00  0.00     0.045 C 
ENDBRANCH  16  20
ENDBRANCH   2  14
TORSDOF 5
ENDMDL
MODEL 2
REMARK VINA RESULT:      64.0      0.273      1.566
REMARK  5 active torsions:
REMARK  status: ('A' for Active; 'I' for Inactive)
REMARK    1  A    between atoms: C_2  and  C_1 
REMARK       I    between atoms: N_3  and  C_1 
REMARK    2  A    between atoms: C_8  and  N_3 
REMARK    3  A    between atoms: C_5  and  C_4 
REMARK    4  A    between atoms: O_15  and  C_12 
REMARK    5  A    between atoms: O_16  and  C_13 
ROOT
ATOM      1  C   UNL d   1      61.262  48.081  50.199  0.00  0.00     0.279 C 
ATOM      2  N   UNL d   1      61.290  47.270  50.450  0.00  0.00    -0.208 NA
ATOM      3  O   UNL d   1      61.613  48.306  49.506  0.00  0.00    -0.265 OA
ENDROOT
BRANCH   1   4
ATOM      4  C   UNL d   1      60.869  48.623  50.682  0.00  0.00     0.062 A 
ATOM      5  C   UNL d   1      60.118  48.889  50.441  0.00  0.00     0.029 A 
ATOM      6  C   UNL d   1      59.711  49.431  50.911  0.00  0.00     0.096 A 
ATOM      7  C   UNL d   1      60.065  49.707  51.633  0.00  0.00     0.048 A 
ATOM      8  C   UNL d   1      60.810  49.429  51.852  0.00  0.00     0.096 A 
ATOM      9  C   UNL d   1      61.214  48.891  51.384  0.00  0.00     0.029 A 
BRANCH   6  10
ATOM     10  O   UNL d   1      58.957  49.683  50.645  0.00  0.00    -0.328 OA
ATOM     11  C   UNL d   1      58.281  49.208  50.777  0.00  0.00     0.181 C 
ENDBRANCH   6  10
BRANCH   8  12
ATOM     12  O   UNL d   1      61.161  49.707  52.573  0.00  0.00    -0.328 OA
ATOM     13  C   UNL d   1      60.814  49.518  53.298  0.00  0.00     0.181 C 
ENDBRANCH   8  12
ENDBRANCH   1   4
BRANCH   2  14
ATOM     14  C   UNL d   1      61.687  46.738  49.957  0.00  0.00     0.085 A 
ATOM     15  C   UNL d   1      61.336  46.009  49.796  0.00  0.00     0.022 A 
ATOM     16  C   UNL d   1      61.675  45.473  49.335  0.00  0.00     0.041 A 
ATOM     17  C   UNL d   1      62.437  45.648  48.984  0.00  0.00     0.003 A 
ATOM     18  C   UNL d   1      62.797  46.373  49.138  0.00  0.00     0.002 A 
ATOM     19  C   UNL d   1      62.412  46.914  49.628  0.00  0.00     0.019 A 
BRANCH  16  20
ATOM     20  C   UNL d   1      61.298  44.736  49.185  0.00  0.00     0.196 C 
ATOM     21  O   UNL d   1      61.745  44.038  49.133  0.00  0.00    -0.287 OA
ATOM     22  C   UNL d   1      60.478  44.722  49.092  0.00  0.00     0.045 C 
ENDBRANCH  16  20
ENDBRANCH   2  14
TORSDOF 5
ENDMDL
