MODEL 1
REMARK VINA RESULT:      -6.3      0.000      0.000
REMARK  6 active torsions:
REMARK  status: ('A' for Active; 'I' for Inactive)
REMARK    1  A    between atoms: C_2  and  S_1 
REMARK    2  A    between atoms: N_7  and  S_1 
REMARK    3  A    between atoms: C_15  and  N_7 
REMARK    4  A    between atoms: C_14  and  O_21 
REMARK    5  A    between atoms: C_24  and  C_15 
REMARK    6  A    between atoms: O_21  and  C_24 
ROOT
ATOM      1  S   UNL d   1     -41.526-122.697 -50.549  0.00  0.00     0.285 S 
ATOM      2  O   UNL d   1     -41.878-121.948 -50.469  0.00  0.00    -0.198 OA
ATOM      3  O   UNL d   1     -41.177-123.441 -50.627  0.00  0.00    -0.198 OA
ENDROOT
BRANCH   1   4
ATOM      4  C   UNL d   1     -41.831-122.911 -49.799  0.00  0.00     0.107 A 
ATOM      5  C   UNL d   1     -41.323-123.060 -49.176  0.00  0.00     0.040 A 
ATOM      6  C   UNL d   1     -41.631-123.268 -48.448  0.00  0.00     0.123 A 
ATOM      7  O   UNL d   1     -41.123-123.419 -47.816  0.00  0.00    -0.301 OA
ATOM      8  C   UNL d   1     -42.448-123.326 -48.343  0.00  0.00     0.123 A 
ATOM      9  C   UNL d   1     -41.429-123.629 -47.079  0.00  0.00     0.149 A 
ATOM     10  C   UNL d   1     -42.246-123.688 -46.974  0.00  0.00     0.149 A 
ATOM     11  O   UNL d   1     -42.755-123.536 -47.606  0.00  0.00    -0.301 OA
ATOM     12  C   UNL d   1     -42.956-123.177 -48.966  0.00  0.00     0.028 A 
ATOM     13  C   UNL d   1     -42.648-122.970 -49.694  0.00  0.00     0.015 A 
ENDBRANCH   1   4
BRANCH   1  14
ATOM     14  N   UNL d   1     -41.230-122.476 -51.290  0.00  0.00    -0.155 NA
BRANCH  14  15
ATOM     15  C   UNL d   1     -41.385-122.941 -51.951  0.00  0.00     0.139 C 
BRANCH  15  16
ATOM     16  C   UNL d   1     -41.342-122.619 -52.708  0.00  0.00     0.144 C 
BRANCH  16  17
ATOM     17  O   UNL d   1     -41.650-123.026 -53.354  0.00  0.00    -0.303 OA
BRANCH  17  18
ATOM     18  C   UNL d   1     -41.771-122.642 -54.072  0.00  0.00     0.100 A 
ATOM     19  C   UNL d   1     -42.410-122.129 -54.159  0.00  0.00     0.027 A 
ATOM     20  C   UNL d   1     -42.534-121.742 -54.878  0.00  0.00     0.032 A 
ATOM     21  C   UNL d   1     -42.018-121.869 -55.510  0.00  0.00     0.140 A 
ATOM     22  C   UNL d   1     -41.379-122.383 -55.423  0.00  0.00     0.032 A 
ATOM     23  F   UNL d   1     -42.139-121.480 -56.242  0.00  0.00    -0.204 F 
ATOM     24  C   UNL d   1     -41.258-122.767 -54.704  0.00  0.00     0.027 A 
ENDBRANCH  17  18
ENDBRANCH  16  17
ENDBRANCH  15  16
ENDBRANCH  14  15
ENDBRANCH   1  14
TORSDOF 6
ENDMDL
MODEL 2
REMARK VINA RESULT:      -5.2      0.577      1.202
REMARK  6 active torsions:
REMARK  status: ('A' for Active; 'I' for Inactive)
REMARK    1  A    between atoms: C_2  and  S_1 
REMARK    2  A    between atoms: N_7  and  S_1 
REMARK    3  A    between atoms: C_15  and  N_7 
REMARK    4  A    between atoms: C_14  and  O_21 
REMARK    5  A    between atoms: C_24  and  C_15 
REMARK    6  A    between atoms: O_21  and  C_24 
ROOT
ATOM      1  S   UNL d   1     -41.845-122.430 -50.805  0.00  0.00     0.285 S 
ATOM      2  O   UNL d   1     -41.123-122.812 -50.963  0.00  0.00    -0.198 OA
ATOM      3  O   UNL d   1     -42.561-122.052 -50.647  0.00  0.00    -0.198 OA
ENDROOT
BRANCH   1   4
ATOM      4  C   UNL d   1     -41.846-122.767 -50.039  0.00  0.00     0.107 A 
ATOM      5  C   UNL d   1     -42.541-122.818 -49.612  0.00  0.00     0.040 A 
ATOM      6  C   UNL d   1     -42.530-123.149 -48.864  0.00  0.00     0.123 A 
ATOM      7  O   UNL d   1     -43.230-123.202 -48.430  0.00  0.00    -0.301 OA
ATOM      8  C   UNL d   1     -41.823-123.431 -48.543  0.00  0.00     0.123 A 
ATOM      9  C   UNL d   1     -43.224-123.536 -47.675  0.00  0.00     0.149 A 
ATOM     10  C   UNL d   1     -42.517-123.817 -47.354  0.00  0.00     0.149 A 
ATOM     11  O   UNL d   1     -41.817-123.764 -47.789  0.00  0.00    -0.301 OA
ATOM     12  C   UNL d   1     -41.128-123.380 -48.970  0.00  0.00     0.028 A 
ATOM     13  C   UNL d   1     -41.138-123.049 -49.718  0.00  0.00     0.015 A 
ENDBRANCH   1   4
BRANCH   1  14
ATOM     14  N   UNL d   1     -41.834-122.101 -51.565  0.00  0.00    -0.155 NA
BRANCH  14  15
ATOM     15  C   UNL d   1     -41.603-122.559 -52.208  0.00  0.00     0.139 C 
BRANCH  15  16
ATOM     16  C   UNL d   1     -41.666-122.266 -52.975  0.00  0.00     0.144 C 
BRANCH  16  17
ATOM     17  O   UNL d   1     -41.993-122.726 -53.574  0.00  0.00    -0.303 OA
BRANCH  17  18
ATOM     18  C   UNL d   1     -42.058-122.432 -54.340  0.00  0.00     0.100 A 
ATOM     19  C   UNL d   1     -41.393-122.408 -54.827  0.00  0.00     0.027 A 
ATOM     20  C   UNL d   1     -41.454-122.113 -55.596  0.00  0.00     0.032 A 
ATOM     21  C   UNL d   1     -42.182-121.842 -55.877  0.00  0.00     0.140 A 
ATOM     22  C   UNL d   1     -42.847-121.866 -55.390  0.00  0.00     0.032 A 
ATOM     23  F   UNL d   1     -42.251-121.542 -56.656  0.00  0.00    -0.204 F 
ATOM     24  C   UNL d   1     -42.782-122.161 -54.624  0.00  0.00     0.027 A 
ENDBRANCH  17  18
ENDBRANCH  16  17
ENDBRANCH  15  16
ENDBRANCH  14  15
ENDBRANCH   1  14
TORSDOF 6
ENDMDL
