MODEL 1
REMARK VINA RESULT:      70.1      0.000      0.000
REMARK  3 active torsions:
REMARK  status: ('A' for Active; 'I' for Inactive)
REMARK       I    between atoms: C_3  and  N_1 
REMARK       I    between atoms: C_2  and  N_7 
REMARK    1  A    between atoms: C_4  and  C_2 
REMARK    2  A    between atoms: C_6  and  C_3 
REMARK    3  A    between atoms: N_7  and  C_15 
ROOT
ATOM      1  N   UNL d   1     -51.082  25.824  33.545  0.00  0.00    -0.273 N 
ATOM      2  C   UNL d   1     -50.818  25.042  33.606  0.00  0.00     0.271 C 
ATOM      3  C   UNL d   1     -50.561  26.453  33.660  0.00  0.00     0.067 A 
ATOM      4  C   UNL d   1     -50.830  27.228  33.598  0.00  0.00     0.018 A 
ATOM      5  C   UNL d   1     -49.773  26.298  33.837  0.00  0.00     0.019 A 
ATOM      6  O   UNL d   1     -50.026  24.878  33.783  0.00  0.00    -0.266 OA
ATOM      7  C   UNL d   1     -49.509  27.703  33.893  0.00  0.00     0.085 A 
ATOM      8  C   UNL d   1     -50.306  27.855  33.714  0.00  0.00     0.021 A 
ATOM      9  C   UNL d   1     -51.874  25.989  33.367  0.00  0.00     0.083 A 
ATOM     10  C   UNL d   1     -49.248  26.918  33.953  0.00  0.00     0.021 A 
ATOM     11  C   UNL d   1     -51.613  27.385  33.423  0.00  0.00     0.003 A 
ATOM     12  C   UNL d   1     -52.141  26.761  33.306  0.00  0.00     0.019 A 
ENDROOT
BRANCH   7  13
ATOM     13  N   UNL d   1     -48.994  28.325  34.007  0.00  0.00    -0.208 NA
ATOM     14  C   UNL d   1     -48.828  28.590  34.769  0.00  0.00     0.282 C 
ATOM     15  O   UNL d   1     -49.178  28.231  35.421  0.00  0.00    -0.265 OA
BRANCH  14  16
ATOM     16  C   UNL d   1     -48.312  29.212  34.888  0.00  0.00     0.096 A 
ATOM     17  C   UNL d   1     -47.607  29.098  35.318  0.00  0.00     0.065 A 
ATOM     18 CL   UNL d   1     -47.436  28.351  35.621  0.00  0.00    -0.082 Cl
ATOM     19  C   UNL d   1     -47.089  29.723  35.438  0.00  0.00     0.012 A 
ATOM     20  C   UNL d   1     -47.270  30.468  35.130  0.00  0.00     0.003 A 
ATOM     21  C   UNL d   1     -47.972  30.579  34.703  0.00  0.00     0.030 A 
ATOM     22  C   UNL d   1     -48.490  29.949  34.584  0.00  0.00     0.146 A 
ATOM     23  F   UNL d   1     -49.190  30.074  34.154  0.00  0.00    -0.204 F 
ENDBRANCH  14  16
ENDBRANCH   7  13
BRANCH   2  24
ATOM     24  C   UNL d   1     -51.351  24.418  33.488  0.00  0.00     0.086 A 
ATOM     25  S   UNL d   1     -52.182  24.497  33.418  0.00  0.00    -0.082 SA
ATOM     26  C   UNL d   1     -52.487  23.737  33.307  0.00  0.00     0.036 A 
ATOM     27  C   UNL d   1     -51.868  23.191  33.306  0.00  0.00     0.008 A 
ATOM     28  C   UNL d   1     -51.165  23.615  33.418  0.00  0.00     0.012 A 
ENDBRANCH   2  24
TORSDOF 3
ENDMDL
MODEL 2
REMARK VINA RESULT:      71.2      1.106      1.622
REMARK  3 active torsions:
REMARK  status: ('A' for Active; 'I' for Inactive)
REMARK       I    between atoms: C_3  and  N_1 
REMARK       I    between atoms: C_2  and  N_7 
REMARK    1  A    between atoms: C_4  and  C_2 
REMARK    2  A    between atoms: C_6  and  C_3 
REMARK    3  A    between atoms: N_7  and  C_15 
ROOT
ATOM      1  N   UNL d   1     -51.063  25.199  33.504  0.00  0.00    -0.273 N 
ATOM      2  C   UNL d   1     -51.887  25.246  33.562  0.00  0.00     0.271 C 
ATOM      3  C   UNL d   1     -50.597  25.876  33.583  0.00  0.00     0.067 A 
ATOM      4  C   UNL d   1     -49.779  25.823  33.524  0.00  0.00     0.018 A 
ATOM      5  C   UNL d   1     -50.960  26.602  33.721  0.00  0.00     0.019 A 
ATOM      6  O   UNL d   1     -52.259  25.973  33.701  0.00  0.00    -0.266 OA
ATOM      7  C   UNL d   1     -49.678  27.237  33.743  0.00  0.00     0.085 A 
ATOM      8  C   UNL d   1     -49.317  26.502  33.604  0.00  0.00     0.021 A 
ATOM      9  C   UNL d   1     -50.691  24.473  33.365  0.00  0.00     0.083 A 
ATOM     10  C   UNL d   1     -50.504  27.280  33.801  0.00  0.00     0.021 A 
ATOM     11  C   UNL d   1     -49.417  25.102  33.387  0.00  0.00     0.003 A 
ATOM     12  C   UNL d   1     -49.876  24.421  33.306  0.00  0.00     0.019 A 
ENDROOT
BRANCH   7  13
ATOM     13  N   UNL d   1     -49.218  27.906  33.822  0.00  0.00    -0.208 NA
ATOM     14  C   UNL d   1     -48.982  28.160  34.568  0.00  0.00     0.282 C 
ATOM     15  O   UNL d   1     -49.206  27.743  35.241  0.00  0.00    -0.265 OA
BRANCH  14  16
ATOM     16  C   UNL d   1     -48.521  28.830  34.652  0.00  0.00     0.096 A 
ATOM     17  C   UNL d   1     -48.785  29.561  34.352  0.00  0.00     0.065 A 
ATOM     18 CL   UNL d   1     -49.514  29.602  33.972  0.00  0.00    -0.082 Cl
ATOM     19  C   UNL d   1     -48.323  30.234  34.436  0.00  0.00     0.012 A 
ATOM     20  C   UNL d   1     -47.592  30.183  34.819  0.00  0.00     0.003 A 
ATOM     21  C   UNL d   1     -47.332  29.454  35.116  0.00  0.00     0.030 A 
ATOM     22  C   UNL d   1     -47.799  28.779  35.030  0.00  0.00     0.146 A 
ATOM     23  F   UNL d   1     -47.526  28.055  35.333  0.00  0.00    -0.204 F 
ENDBRANCH  14  16
ENDBRANCH   7  13
BRANCH   2  24
ATOM     24  C   UNL d   1     -52.344  24.559  33.481  0.00  0.00     0.086 A 
ATOM     25  S   UNL d   1     -53.173  24.538  33.363  0.00  0.00    -0.082 SA
ATOM     26  C   UNL d   1     -53.388  23.742  33.313  0.00  0.00     0.036 A 
ATOM     27  C   UNL d   1     -52.717  23.271  33.396  0.00  0.00     0.008 A 
ATOM     28  C   UNL d   1     -52.071  23.778  33.500  0.00  0.00     0.012 A 
ENDBRANCH   2  24
TORSDOF 3
ENDMDL
