MODEL 1
REMARK VINA RESULT:      27.9      0.000      0.000
REMARK  4 active torsions:
REMARK  status: ('A' for Active; 'I' for Inactive)
REMARK    1  A    between atoms: S_13  and  C_7 
REMARK       I    between atoms: N_10  and  C_12 
REMARK    2  A    between atoms: C_25  and  C_11 
REMARK    3  A    between atoms: C_12  and  C_16 
REMARK    4  A    between atoms: C_16  and  S_13 
ROOT
ATOM      1  N   UNL d   1      46.295 -18.207  41.096  0.00  0.00    -0.224 N 
ATOM      2  N   UNL d   1      46.349 -19.505  41.712  0.00  0.00    -0.241 N 
ATOM      3  C   UNL d   1      46.283 -19.040  41.034  0.00  0.00     0.343 A 
ATOM      4  C   UNL d   1      46.425 -19.140  42.452  0.00  0.00     0.160 A 
ATOM      5  C   UNL d   1      46.372 -17.848  41.836  0.00  0.00     0.273 A 
ATOM      6  C   UNL d   1      46.437 -18.315  42.513  0.00  0.00     0.115 A 
ATOM      7  C   UNL d   1      46.513 -17.956  43.253  0.00  0.00     0.120 A 
ATOM      8  N   UNL d   1      46.491 -19.606  43.137  0.00  0.00    -0.209 NA
ATOM      9  N   UNL d   1      46.578 -18.418  43.930  0.00  0.00    -0.220 NA
ATOM     10  C   UNL d   1      46.568 -19.248  43.876  0.00  0.00     0.165 A 
ATOM     11  O   UNL d   1      46.206 -19.397  40.291  0.00  0.00    -0.245 OA
ATOM     12  O   UNL d   1      46.383 -17.024  41.893  0.00  0.00    -0.266 OA
ATOM     13  C   UNL d   1      46.230 -17.749  40.418  0.00  0.00     0.107 C 
ATOM     14  C   UNL d   1      46.337 -20.330  41.650  0.00  0.00     0.105 C 
ENDROOT
BRANCH   7  15
ATOM     15  S   UNL d   1      46.524 -17.132  43.310  0.00  0.00    -0.062 SA
BRANCH  15  16
ATOM     16  C   UNL d   1      45.837 -16.722  43.519  0.00  0.00     0.098 C 
BRANCH  16  17
ATOM     17  C   UNL d   1      45.802 -16.304  44.228  0.00  0.00     0.271 C 
ATOM     18  N   UNL d   1      45.675 -15.492  44.227  0.00  0.00    -0.272 N 
ATOM     19  C   UNL d   1      45.584 -15.107  43.520  0.00  0.00     0.083 A 
ATOM     20  C   UNL d   1      45.640 -15.072  44.933  0.00  0.00     0.083 A 
ATOM     21  C   UNL d   1      45.455 -14.282  43.511  0.00  0.00     0.019 A 
ATOM     22  C   UNL d   1      45.419 -13.860  44.223  0.00  0.00     0.003 A 
ATOM     23  C   UNL d   1      45.514 -14.265  44.938  0.00  0.00     0.019 A 
ATOM     24  C   UNL d   1      45.292 -13.050  44.215  0.00  0.00     0.000 C 
ATOM     25  O   UNL d   1      45.896 -16.706  44.954  0.00  0.00    -0.266 OA
ENDBRANCH  16  17
ENDBRANCH  15  16
ENDBRANCH   7  15
BRANCH  10  26
ATOM     26  C   UNL d   1      46.633 -19.710  44.559  0.00  0.00     0.039 C 
ATOM     27  C   UNL d   1      46.082 -20.304  44.714  0.00  0.00     0.003 C 
ENDBRANCH  10  26
TORSDOF 4
ENDMDL
