MODEL 1
REMARK VINA RESULT:      28.1      0.000      0.000
REMARK  3 active torsions:
REMARK  status: ('A' for Active; 'I' for Inactive)
REMARK    1  A    between atoms: C_4  and  C_8 
REMARK    2  A    between atoms: N_13  and  C_7 
REMARK       I    between atoms: C_8  and  N_12 
REMARK    3  A    between atoms: N_12  and  N_13 
ROOT
ATOM      1  C   UNL d   1      13.207  12.503  -3.647  0.00  0.00     0.297 C 
ATOM      2  N   UNL d   1      13.369  12.535  -2.834  0.00  0.00    -0.104 NA
ATOM      3  O   UNL d   1      13.005  11.779  -3.996  0.00  0.00    -0.264 OA
ENDROOT
BRANCH   2   4
ATOM      4  N   UNL d   1      13.330  11.854  -2.377  0.00  0.00    -0.125 NA
BRANCH   4   5
ATOM      5  C   UNL d   1      13.598  11.864  -1.596  0.00  0.00     0.190 A 
ATOM      6  C   UNL d   1      14.402  11.852  -1.441  0.00  0.00     0.094 A 
ATOM      7  C   UNL d   1      14.670  11.861  -0.661  0.00  0.00     0.170 A 
ATOM      8  C   UNL d   1      15.061  11.830  -1.946  0.00  0.00     0.127 A 
ATOM      9  N   UNL d   1      15.500  11.845  -0.680  0.00  0.00    -0.209 N 
ATOM     10  N   UNL d   1      14.134  11.883  -0.040  0.00  0.00    -0.205 NA
ATOM     11  C   UNL d   1      15.999  11.849  -0.014  0.00  0.00     0.123 C 
ATOM     12  N   UNL d   1      15.740  11.826  -1.470  0.00  0.00    -0.162 NA
ATOM     13  C   UNL d   1      13.328  11.895  -0.199  0.00  0.00     0.202 A 
ATOM     14  N   UNL d   1      13.059  11.885  -0.983  0.00  0.00    -0.203 NA
ENDBRANCH   4   5
ENDBRANCH   2   4
BRANCH   1  15
ATOM     15  C   UNL d   1      13.245  13.186  -4.108  0.00  0.00     0.070 A 
ATOM     16  C   UNL d   1      13.381  13.131  -4.914  0.00  0.00     0.063 A 
ATOM     17  C   UNL d   1      13.419  13.810  -5.377  0.00  0.00     0.023 A 
ATOM     18 CL   UNL d   1      13.478  12.383  -5.259  0.00  0.00    -0.082 Cl
ATOM     19  C   UNL d   1      13.320  14.557  -5.022  0.00  0.00     0.059 A 
ATOM     20  C   UNL d   1      13.182  14.611  -4.204  0.00  0.00     0.012 A 
ATOM     21 CL   UNL d   1      13.358  15.245  -5.485  0.00  0.00    -0.082 Cl
ATOM     22  C   UNL d   1      13.146  13.928  -3.752  0.00  0.00     0.007 A 
ENDBRANCH   1  15
TORSDOF 3
ENDMDL
