MODEL 1
REMARK VINA RESULT:      81.7      0.000      0.000
REMARK  6 active torsions:
REMARK  status: ('A' for Active; 'I' for Inactive)
REMARK    1  A    between atoms: C_5  and  C_1 
REMARK       I    between atoms: N_10  and  C_5 
REMARK    2  A    between atoms: C_9  and  C_6 
REMARK    3  A    between atoms: C_17  and  N_7 
REMARK    4  A    between atoms: O_23  and  C_8 
REMARK    5  A    between atoms: O_25  and  C_12 
REMARK    6  A    between atoms: C_18  and  C_17 
ROOT
ATOM      1  C   UNL d   1      61.453  47.247  50.041  0.00  0.00     0.316 C 
ATOM      2  N   UNL d   1      60.550  49.106  50.355  0.00  0.00    -0.143 NA
ATOM      3  N   UNL d   1      60.649  47.919  50.596  0.00  0.00    -0.104 NA
ATOM      4  O   UNL d   1      61.951  47.585  49.487  0.00  0.00    -0.262 OA
ENDROOT
BRANCH   1   5
ATOM      5  C   UNL d   1      61.506  46.446  50.216  0.00  0.00     0.164 A 
ATOM      6  C   UNL d   1      61.640  46.198  50.979  0.00  0.00     0.047 A 
ATOM      7  C   UNL d   1      61.608  44.847  50.549  0.00  0.00     0.105 A 
ATOM      8  N   UNL d   1      61.472  45.101  49.778  0.00  0.00    -0.148 NA
ATOM      9  N   UNL d   1      61.421  45.891  49.610  0.00  0.00    -0.143 NA
BRANCH   7  10
ATOM     10  C   UNL d   1      61.690  44.117  50.912  0.00  0.00     0.019 A 
ATOM     11  C   UNL d   1      61.190  43.893  51.508  0.00  0.00     0.002 A 
ATOM     12  C   UNL d   1      61.269  43.166  51.871  0.00  0.00     0.011 A 
ATOM     13  C   UNL d   1      61.865  42.661  51.625  0.00  0.00     0.058 A 
ATOM     14  C   UNL d   1      62.372  42.878  51.027  0.00  0.00     0.011 A 
ATOM     15 CL   UNL d   1      61.950  41.927  51.986  0.00  0.00    -0.082 Cl
ATOM     16  C   UNL d   1      62.290  43.609  50.664  0.00  0.00     0.002 A 
ENDBRANCH   7  10
ENDBRANCH   1   5
BRANCH   2  17
ATOM     17  C   UNL d   1      59.976  49.582  50.752  0.00  0.00     0.122 C 
BRANCH  17  18
ATOM     18  C   UNL d   1      59.134  49.613  50.464  0.00  0.00     0.023 A 
ATOM     19  C   UNL d   1      58.462  49.618  51.060  0.00  0.00     0.028 A 
ATOM     20  C   UNL d   1      57.612  49.650  50.766  0.00  0.00     0.116 A 
ATOM     21  C   UNL d   1      57.435  49.676  49.883  0.00  0.00     0.116 A 
ATOM     22  C   UNL d   1      58.108  49.671  49.302  0.00  0.00     0.026 A 
ATOM     23  C   UNL d   1      58.965  49.640  49.588  0.00  0.00     0.004 A 
BRANCH  20  24
ATOM     24  O   UNL d   1      56.940  49.655  51.361  0.00  0.00    -0.326 OA
ATOM     25  C   UNL d   1      57.119  49.705  52.232  0.00  0.00     0.181 C 
ENDBRANCH  20  24
BRANCH  21  26
ATOM     26  O   UNL d   1      56.587  49.708  49.604  0.00  0.00    -0.326 OA
ATOM     27  C   UNL d   1      56.370  49.322  48.829  0.00  0.00     0.181 C 
ENDBRANCH  21  26
ENDBRANCH  17  18
ENDBRANCH   2  17
TORSDOF 6
ENDMDL
