MODEL 1
REMARK VINA RESULT:      54.2      0.000      0.000
REMARK  5 active torsions:
REMARK  status: ('A' for Active; 'I' for Inactive)
REMARK       I    between atoms: C_2  and  N_1 
REMARK    1  A    between atoms: C_5  and  C_2 
REMARK    2  A    between atoms: S_7  and  C_3 
REMARK    3  A    between atoms: N_4  and  C_8 
REMARK    4  A    between atoms: C_17  and  S_7 
REMARK    5  A    between atoms: C_18  and  C_17 
ROOT
ATOM      1  N   UNL d   1     -51.245  26.116  33.514  0.00  0.00    -0.251 N 
ATOM      2  C   UNL d   1     -50.752  25.459  33.596  0.00  0.00     0.266 C 
ATOM      3  C   UNL d   1     -51.021  26.910  33.593  0.00  0.00     0.182 A 
ATOM      4  N   UNL d   1     -51.688  27.371  33.465  0.00  0.00    -0.219 NA
ATOM      5  O   UNL d   1     -49.951  25.559  33.774  0.00  0.00    -0.267 OA
ATOM      6  C   UNL d   1     -52.058  26.093  33.336  0.00  0.00     0.106 A 
ATOM      7  C   UNL d   1     -52.329  26.876  33.307  0.00  0.00     0.120 A 
ENDROOT
BRANCH   3   8
ATOM      8  S   UNL d   1     -50.262  27.176  33.768  0.00  0.00    -0.049 SA
BRANCH   8   9
ATOM      9  C   UNL d   1     -50.088  27.973  33.716  0.00  0.00     0.038 C 
BRANCH   9  10
ATOM     10  C   UNL d   1     -49.453  28.283  34.132  0.00  0.00     0.007 A 
ATOM     11  C   UNL d   1     -49.395  29.094  34.263  0.00  0.00     0.002 A 
ATOM     12  C   UNL d   1     -48.757  29.407  34.681  0.00  0.00     0.024 A 
ATOM     13  C   UNL d   1     -48.177  28.902  34.968  0.00  0.00     0.127 A 
ATOM     14  C   UNL d   1     -48.223  28.092  34.845  0.00  0.00     0.024 A 
ATOM     15  C   UNL d   1     -48.863  27.777  34.425  0.00  0.00     0.002 A 
BRANCH  13  16
ATOM     16  N   UNL d   1     -47.532  29.211  35.390  0.00  0.00    -0.114 N 
ATOM     17  O   UNL d   1     -46.773  29.252  35.031  0.00  0.00    -0.532 OA
ATOM     18  O   UNL d   1     -47.625  29.484  36.171  0.00  0.00    -0.532 OA
ENDBRANCH  13  16
ENDBRANCH   9  10
ENDBRANCH   8   9
ENDBRANCH   3   8
BRANCH   2  19
ATOM     19  C   UNL d   1     -51.060  24.694  33.500  0.00  0.00     0.057 A 
ATOM     20  C   UNL d   1     -50.541  24.054  33.400  0.00  0.00     0.005 A 
ATOM     21  C   UNL d   1     -49.725  24.179  33.396  0.00  0.00     0.000 C 
ATOM     22  C   UNL d   1     -50.853  23.306  33.306  0.00  0.00     0.000 A 
ATOM     23  C   UNL d   1     -51.677  23.189  33.311  0.00  0.00     0.000 A 
ATOM     24  C   UNL d   1     -52.187  23.821  33.409  0.00  0.00     0.000 A 
ATOM     25  C   UNL d   1     -51.877  24.578  33.505  0.00  0.00     0.005 A 
ENDBRANCH   2  19
TORSDOF 5
ENDMDL
