MODEL 1
REMARK VINA RESULT:     -11.5      0.000      0.000
REMARK  3 active torsions:
REMARK  status: ('A' for Active; 'I' for Inactive)
REMARK    1  A    between atoms: C_11  and  C_4 
REMARK    2  A    between atoms: N_14  and  C_7 
REMARK    3  A    between atoms: C_10  and  C_12 
ROOT
ATOM      1  C   UNL d   1      53.180  32.494  53.636  0.00  0.00     0.186 A 
ATOM      2  N   UNL d   1      53.637  33.157  53.822  0.00  0.00    -0.193 N 
ATOM      3  N   UNL d   1      52.367  32.581  53.477  0.00  0.00    -0.204 NA
ATOM      4  C   UNL d   1      53.673  31.831  53.651  0.00  0.00     0.140 A 
ATOM      5  N   UNL d   1      54.418  32.907  53.953  0.00  0.00    -0.058 NA
ATOM      6  N   UNL d   1      54.440  32.085  53.846  0.00  0.00    -0.127 NA
ATOM      7  C   UNL d   1      52.008  33.341  53.504  0.00  0.00     0.188 A 
ATOM      8  C   UNL d   1      52.477  33.998  53.691  0.00  0.00     0.056 A 
ATOM      9  C   UNL d   1      53.291  33.914  53.851  0.00  0.00     0.089 A 
ATOM     10  C   UNL d   1      52.129  34.748  53.720  0.00  0.00     0.005 A 
ATOM     11  C   UNL d   1      53.740  34.575  54.035  0.00  0.00     0.019 A 
ATOM     12  C   UNL d   1      52.587  35.407  53.905  0.00  0.00     0.000 A 
ATOM     13  C   UNL d   1      53.392  35.321  54.063  0.00  0.00     0.002 A 
ENDROOT
BRANCH   4  14
ATOM     14  C   UNL d   1      53.440  31.053  53.496  0.00  0.00     0.022 A 
ATOM     15  C   UNL d   1      53.468  30.492  54.099  0.00  0.00     0.005 A 
ATOM     16  C   UNL d   1      53.238  29.718  53.952  0.00  0.00     0.071 A 
ATOM     17  C   UNL d   1      52.979  29.499  53.201  0.00  0.00     0.004 A 
ATOM     18  C   UNL d   1      52.952  30.069  52.594  0.00  0.00    -0.000 A 
ATOM     19  C   UNL d   1      53.183  30.839  52.748  0.00  0.00     0.002 A 
BRANCH  16  20
ATOM     20  C   UNL d   1      53.265  29.157  54.555  0.00  0.00     0.419 C 
ATOM     21  F   UNL d   1      53.336  28.578  55.139  0.00  0.00    -0.166 F 
ATOM     22  F   UNL d   1      52.561  29.426  54.873  0.00  0.00    -0.166 F 
ATOM     23  F   UNL d   1      53.983  28.877  54.236  0.00  0.00    -0.166 F 
ENDBRANCH  16  20
ENDBRANCH   4  14
BRANCH   7  24
ATOM     24  N   UNL d   1      51.203  33.427  53.346  0.00  0.00    -0.108 NA
ATOM     25  N   UNL d   1      50.705  32.762  53.360  0.00  0.00    -0.021 N 
ENDBRANCH   7  24
TORSDOF 3
ENDMDL
MODEL 2
REMARK VINA RESULT:     -10.8      0.816      1.658
REMARK  3 active torsions:
REMARK  status: ('A' for Active; 'I' for Inactive)
REMARK    1  A    between atoms: C_11  and  C_4 
REMARK    2  A    between atoms: N_14  and  C_7 
REMARK    3  A    between atoms: C_10  and  C_12 
ROOT
ATOM      1  C   UNL d   1      53.172  32.414  53.561  0.00  0.00     0.186 A 
ATOM      2  N   UNL d   1      52.686  33.003  53.244  0.00  0.00    -0.193 N 
ATOM      3  N   UNL d   1      53.710  32.603  54.168  0.00  0.00    -0.204 NA
ATOM      4  C   UNL d   1      53.003  31.705  53.171  0.00  0.00     0.140 A 
ATOM      5  N   UNL d   1      52.212  32.660  52.655  0.00  0.00    -0.058 NA
ATOM      6  N   UNL d   1      52.409  31.855  52.610  0.00  0.00    -0.127 NA
ATOM      7  C   UNL d   1      53.762  33.388  54.461  0.00  0.00     0.188 A 
ATOM      8  C   UNL d   1      53.269  33.969  54.135  0.00  0.00     0.056 A 
ATOM      9  C   UNL d   1      52.729  33.785  53.528  0.00  0.00     0.089 A 
ATOM     10  C   UNL d   1      53.315  34.745  54.420  0.00  0.00     0.005 A 
ATOM     11  C   UNL d   1      52.249  34.371  53.217  0.00  0.00     0.019 A 
ATOM     12  C   UNL d   1      52.829  35.330  54.102  0.00  0.00     0.000 A 
ATOM     13  C   UNL d   1      52.296  35.143  53.501  0.00  0.00     0.002 A 
ENDROOT
BRANCH   4  14
ATOM     14  C   UNL d   1      53.365  30.976  53.317  0.00  0.00     0.022 A 
ATOM     15  C   UNL d   1      53.033  30.460  53.866  0.00  0.00     0.005 A 
ATOM     16  C   UNL d   1      53.388  29.734  54.016  0.00  0.00     0.071 A 
ATOM     17  C   UNL d   1      54.077  29.521  53.617  0.00  0.00     0.004 A 
ATOM     18  C   UNL d   1      54.408  30.046  53.062  0.00  0.00    -0.000 A 
ATOM     19  C   UNL d   1      54.049  30.767  52.918  0.00  0.00     0.002 A 
BRANCH  16  20
ATOM     20  C   UNL d   1      53.056  29.218  54.566  0.00  0.00     0.419 C 
ATOM     21  F   UNL d   1      52.750  28.725  55.152  0.00  0.00    -0.166 F 
ATOM     22  F   UNL d   1      52.644  28.819  53.982  0.00  0.00    -0.166 F 
ATOM     23  F   UNL d   1      53.474  29.619  55.166  0.00  0.00    -0.166 F 
ENDBRANCH  16  20
ENDBRANCH   4  14
BRANCH   7  24
ATOM     24  N   UNL d   1      54.295  33.575  55.063  0.00  0.00    -0.108 NA
ATOM     25  N   UNL d   1      54.556  32.982  55.582  0.00  0.00    -0.021 N 
ENDBRANCH   7  24
TORSDOF 3
ENDMDL
MODEL 3
REMARK VINA RESULT:     -10.0      3.079      4.249
REMARK  3 active torsions:
REMARK  status: ('A' for Active; 'I' for Inactive)
REMARK    1  A    between atoms: C_11  and  C_4 
REMARK    2  A    between atoms: N_14  and  C_7 
REMARK    3  A    between atoms: C_10  and  C_12 
ROOT
ATOM      1  C   UNL d   1      52.473  33.687  53.572  0.00  0.00     0.186 A 
ATOM      2  N   UNL d   1      52.890  33.055  53.904  0.00  0.00    -0.193 N 
ATOM      3  N   UNL d   1      52.676  34.470  53.772  0.00  0.00    -0.204 NA
ATOM      4  C   UNL d   1      51.894  33.376  53.071  0.00  0.00     0.140 A 
ATOM      5  N   UNL d   1      52.571  32.349  53.608  0.00  0.00    -0.058 NA
ATOM      6  N   UNL d   1      51.953  32.548  53.092  0.00  0.00    -0.127 NA
ATOM      7  C   UNL d   1      53.304  34.622  54.310  0.00  0.00     0.188 A 
ATOM      8  C   UNL d   1      53.715  33.979  54.635  0.00  0.00     0.056 A 
ATOM      9  C   UNL d   1      53.515  33.195  54.437  0.00  0.00     0.089 A 
ATOM     10  C   UNL d   1      54.335  34.122  55.165  0.00  0.00     0.005 A 
ATOM     11  C   UNL d   1      53.931  32.572  54.768  0.00  0.00     0.019 A 
ATOM     12  C   UNL d   1      54.749  33.490  55.493  0.00  0.00     0.000 A 
ATOM     13  C   UNL d   1      54.548  32.715  55.295  0.00  0.00     0.002 A 
ENDROOT
BRANCH   4  14
ATOM     14  C   UNL d   1      51.352  33.817  52.628  0.00  0.00     0.022 A 
ATOM     15  C   UNL d   1      50.660  34.087  52.982  0.00  0.00     0.005 A 
ATOM     16  C   UNL d   1      50.118  34.525  52.548  0.00  0.00     0.071 A 
ATOM     17  C   UNL d   1      50.266  34.696  51.755  0.00  0.00     0.004 A 
ATOM     18  C   UNL d   1      50.968  34.421  51.400  0.00  0.00    -0.000 A 
ATOM     19  C   UNL d   1      51.503  33.985  51.840  0.00  0.00     0.002 A 
BRANCH  16  20
ATOM     20  C   UNL d   1      49.425  34.795  52.902  0.00  0.00     0.419 C 
ATOM     21  F   UNL d   1      48.705  35.032  53.228  0.00  0.00    -0.166 F 
ATOM     22  F   UNL d   1      49.837  35.335  53.358  0.00  0.00    -0.166 F 
ATOM     23  F   UNL d   1      48.998  34.247  52.440  0.00  0.00    -0.166 F 
ENDBRANCH  16  20
ENDBRANCH   4  14
BRANCH   7  24
ATOM     24  N   UNL d   1      53.506  35.397  54.508  0.00  0.00    -0.108 NA
ATOM     25  N   UNL d   1      52.929  35.994  54.478  0.00  0.00    -0.021 N 
ENDBRANCH   7  24
TORSDOF 3
ENDMDL
MODEL 4
REMARK VINA RESULT:      -9.8      2.972      4.290
REMARK  3 active torsions:
REMARK  status: ('A' for Active; 'I' for Inactive)
REMARK    1  A    between atoms: C_11  and  C_4 
REMARK    2  A    between atoms: N_14  and  C_7 
REMARK    3  A    between atoms: C_10  and  C_12 
ROOT
ATOM      1  C   UNL d   1      52.483  33.940  53.534  0.00  0.00     0.186 A 
ATOM      2  N   UNL d   1      53.053  34.265  54.039  0.00  0.00    -0.193 N 
ATOM      3  N   UNL d   1      52.453  33.116  53.418  0.00  0.00    -0.204 NA
ATOM      4  C   UNL d   1      52.029  34.559  53.230  0.00  0.00     0.140 A 
ATOM      5  N   UNL d   1      52.953  35.089  54.048  0.00  0.00    -0.058 NA
ATOM      6  N   UNL d   1      52.318  35.271  53.546  0.00  0.00    -0.127 NA
ATOM      7  C   UNL d   1      52.999  32.611  53.811  0.00  0.00     0.188 A 
ATOM      8  C   UNL d   1      53.565  32.949  54.314  0.00  0.00     0.056 A 
ATOM      9  C   UNL d   1      53.598  33.773  54.432  0.00  0.00     0.089 A 
ATOM     10  C   UNL d   1      54.105  32.458  54.703  0.00  0.00     0.005 A 
ATOM     11  C   UNL d   1      54.164  34.090  54.933  0.00  0.00     0.019 A 
ATOM     12  C   UNL d   1      54.671  32.784  55.205  0.00  0.00     0.000 A 
ATOM     13  C   UNL d   1      54.700  33.600  55.320  0.00  0.00     0.002 A 
ENDROOT
BRANCH   4  14
ATOM     14  C   UNL d   1      51.398  34.480  52.702  0.00  0.00     0.022 A 
ATOM     15  C   UNL d   1      50.634  34.665  52.948  0.00  0.00     0.005 A 
ATOM     16  C   UNL d   1      50.003  34.588  52.429  0.00  0.00     0.071 A 
ATOM     17  C   UNL d   1      50.132  34.325  51.658  0.00  0.00     0.004 A 
ATOM     18  C   UNL d   1      50.906  34.139  51.412  0.00  0.00    -0.000 A 
ATOM     19  C   UNL d   1      51.530  34.218  51.937  0.00  0.00     0.002 A 
BRANCH  16  20
ATOM     20  C   UNL d   1      49.239  34.774  52.675  0.00  0.00     0.419 C 
ATOM     21  F   UNL d   1      48.460  34.961  52.873  0.00  0.00    -0.166 F 
ATOM     22  F   UNL d   1      49.458  34.746  53.463  0.00  0.00    -0.166 F 
ATOM     23  F   UNL d   1      49.008  34.803  51.874  0.00  0.00    -0.166 F 
ENDBRANCH  16  20
ENDBRANCH   4  14
BRANCH   7  24
ATOM     24  N   UNL d   1      52.969  31.795  53.696  0.00  0.00    -0.108 NA
ATOM     25  N   UNL d   1      52.676  31.489  52.981  0.00  0.00    -0.021 N 
ENDBRANCH   7  24
TORSDOF 3
ENDMDL
MODEL 5
REMARK VINA RESULT:      -8.7      2.267      3.122
REMARK  3 active torsions:
REMARK  status: ('A' for Active; 'I' for Inactive)
REMARK    1  A    between atoms: C_11  and  C_4 
REMARK    2  A    between atoms: N_14  and  C_7 
REMARK    3  A    between atoms: C_10  and  C_12 
ROOT
ATOM      1  C   UNL d   1      52.515  33.500  53.255  0.00  0.00     0.186 A 
ATOM      2  N   UNL d   1      51.866  33.214  52.831  0.00  0.00    -0.193 N 
ATOM      3  N   UNL d   1      52.490  34.263  53.588  0.00  0.00    -0.204 NA
ATOM      4  C   UNL d   1      53.098  32.915  53.256  0.00  0.00     0.140 A 
ATOM      5  N   UNL d   1      52.045  32.448  52.567  0.00  0.00    -0.058 NA
ATOM      6  N   UNL d   1      52.809  32.262  52.831  0.00  0.00    -0.127 NA
ATOM      7  C   UNL d   1      51.807  34.745  53.495  0.00  0.00     0.188 A 
ATOM      8  C   UNL d   1      51.163  34.446  53.067  0.00  0.00     0.056 A 
ATOM      9  C   UNL d   1      51.185  33.683  52.733  0.00  0.00     0.089 A 
ATOM     10  C   UNL d   1      50.488  34.916  52.972  0.00  0.00     0.005 A 
ATOM     11  C   UNL d   1      50.539  33.404  52.313  0.00  0.00     0.019 A 
ATOM     12  C   UNL d   1      49.843  34.628  52.549  0.00  0.00     0.000 A 
ATOM     13  C   UNL d   1      49.868  33.872  52.219  0.00  0.00     0.002 A 
ENDROOT
BRANCH   4  14
ATOM     14  C   UNL d   1      53.839  32.972  53.619  0.00  0.00     0.022 A 
ATOM     15  C   UNL d   1      53.889  33.007  54.440  0.00  0.00     0.005 A 
ATOM     16  C   UNL d   1      54.621  33.064  54.807  0.00  0.00     0.071 A 
ATOM     17  C   UNL d   1      55.309  33.087  54.353  0.00  0.00     0.004 A 
ATOM     18  C   UNL d   1      55.255  33.051  53.523  0.00  0.00    -0.000 A 
ATOM     19  C   UNL d   1      54.520  32.994  53.165  0.00  0.00     0.002 A 
BRANCH  16  20
ATOM     20  C   UNL d   1      54.671  33.099  55.628  0.00  0.00     0.419 C 
ATOM     21  F   UNL d   1      54.749  33.177  56.446  0.00  0.00    -0.166 F 
ATOM     22  F   UNL d   1      54.224  32.420  55.711  0.00  0.00    -0.166 F 
ATOM     23  F   UNL d   1      55.128  33.793  55.552  0.00  0.00    -0.166 F 
ENDBRANCH  16  20
ENDBRANCH   4  14
BRANCH   7  24
ATOM     24  N   UNL d   1      51.782  35.501  53.824  0.00  0.00    -0.108 NA
ATOM     25  N   UNL d   1      52.345  35.722  54.394  0.00  0.00    -0.021 N 
ENDBRANCH   7  24
TORSDOF 3
ENDMDL
