MODEL 1
REMARK VINA RESULT:      24.0      0.000      0.000
REMARK  5 active torsions:
REMARK  status: ('A' for Active; 'I' for Inactive)
REMARK    1  A    between atoms: S_2  and  C_1 
REMARK    2  A    between atoms: C_9  and  S_2 
REMARK    3  A    between atoms: N_14  and  C_10 
REMARK    4  A    between atoms: C_22  and  N_14 
REMARK    5  A    between atoms: C_23  and  N_14 
ROOT
ATOM      1  C   UNL d   1      45.600 -16.213  43.957  0.00  0.00     0.151 A 
ATOM      2  C   UNL d   1      45.097 -16.683  44.411  0.00  0.00     0.311 A 
ATOM      3  C   UNL d   1      46.116 -16.568  43.410  0.00  0.00     0.019 A 
ATOM      4  O   UNL d   1      45.109 -17.508  44.319  0.00  0.00    -0.272 OA
ATOM      5  C   UNL d   1      45.621 -17.857  43.777  0.00  0.00     0.105 A 
ATOM      6  C   UNL d   1      46.124 -17.387  43.323  0.00  0.00     0.024 A 
ATOM      7  C   UNL d   1      45.630 -18.675  43.689  0.00  0.00     0.042 A 
ATOM      8  C   UNL d   1      46.142 -19.024  43.147  0.00  0.00     0.066 A 
ATOM      9  O   UNL d   1      44.583 -16.330  44.955  0.00  0.00    -0.258 OA
ATOM     10  C   UNL d   1      46.637 -17.736  42.780  0.00  0.00     0.004 A 
ATOM     11  C   UNL d   1      46.646 -18.554  42.693  0.00  0.00     0.018 A 
ENDROOT
BRANCH   1  12
ATOM     12  S   UNL d   1      45.595 -15.386  44.042  0.00  0.00     0.215 S 
ATOM     13  O   UNL d   1      46.413 -15.397  44.218  0.00  0.00    -0.217 OA
ATOM     14  O   UNL d   1      44.778 -15.366  43.867  0.00  0.00    -0.217 OA
BRANCH  12  15
ATOM     15  C   UNL d   1      45.590 -14.550  44.128  0.00  0.00     0.088 A 
ATOM     16  C   UNL d   1      45.883 -14.212  44.818  0.00  0.00     0.011 A 
ATOM     17  C   UNL d   1      45.881 -13.393  44.907  0.00  0.00     0.001 A 
ATOM     18  C   UNL d   1      45.585 -12.913  44.305  0.00  0.00     0.000 A 
ATOM     19  C   UNL d   1      45.290 -13.255  43.611  0.00  0.00     0.001 A 
ATOM     20  C   UNL d   1      45.579 -12.080  44.389  0.00  0.00     0.000 C 
ATOM     21  C   UNL d   1      45.293 -14.074  43.523  0.00  0.00     0.011 A 
ENDBRANCH  12  15
ENDBRANCH   1  12
BRANCH   8  22
ATOM     22  N   UNL d   1      46.156 -19.852  43.054  0.00  0.00    -0.304 N 
BRANCH  22  23
ATOM     23  C   UNL d   1      45.934 -20.189  42.330  0.00  0.00     0.080 C 
ATOM     24  C   UNL d   1      46.478 -20.235  41.712  0.00  0.00     0.021 C 
ENDBRANCH  22  23
BRANCH  22  25
ATOM     25  C   UNL d   1      46.391 -20.330  43.684  0.00  0.00     0.080 C 
ATOM     26  C   UNL d   1      45.963 -20.325  44.388  0.00  0.00     0.021 C 
ENDBRANCH  22  25
ENDBRANCH   8  22
TORSDOF 5
ENDMDL
