MODEL 1
REMARK VINA RESULT:      14.4      0.000      0.000
REMARK  4 active torsions:
REMARK  status: ('A' for Active; 'I' for Inactive)
REMARK    1  A    between atoms: C_8  and  C_1 
REMARK    2  A    between atoms: N_11  and  C_9 
REMARK    3  A    between atoms: C_15  and  N_11 
REMARK    4  A    between atoms: C_16  and  N_11 
ROOT
ATOM      1  C   UNL d   1      46.366 -18.976  43.074  0.00  0.00     0.102 A 
ATOM      2  C   UNL d   1      46.261 -18.434  42.444  0.00  0.00     0.303 A 
ATOM      3  C   UNL d   1      46.303 -18.703  43.851  0.00  0.00     0.011 A 
ATOM      4  O   UNL d   1      46.097 -17.644  42.621  0.00  0.00    -0.273 OA
ATOM      5  C   UNL d   1      46.035 -17.377  43.391  0.00  0.00     0.105 A 
ATOM      6  C   UNL d   1      46.140 -17.919  44.021  0.00  0.00     0.023 A 
ATOM      7  C   UNL d   1      45.875 -16.607  43.550  0.00  0.00     0.042 A 
ATOM      8  C   UNL d   1      45.812 -16.337  44.324  0.00  0.00     0.066 A 
ATOM      9  O   UNL d   1      46.321 -18.691  41.655  0.00  0.00    -0.259 OA
ATOM     10  C   UNL d   1      46.081 -17.665  44.781  0.00  0.00     0.004 A 
ATOM     11  C   UNL d   1      45.917 -16.879  44.954  0.00  0.00     0.018 A 
ENDROOT
BRANCH   8  12
ATOM     12  N   UNL d   1      45.646 -15.539  44.479  0.00  0.00    -0.304 N 
BRANCH  12  13
ATOM     13  C   UNL d   1      44.952 -15.341  44.892  0.00  0.00     0.080 C 
ATOM     14  C   UNL d   1      44.613 -14.585  44.788  0.00  0.00     0.021 C 
ENDBRANCH  12  13
BRANCH  12  15
ATOM     15  C   UNL d   1      46.156 -14.957  44.230  0.00  0.00     0.080 C 
ATOM     16  C   UNL d   1      46.114 -14.207  44.527  0.00  0.00     0.021 C 
ENDBRANCH  12  15
ENDBRANCH   8  12
BRANCH   1  17
ATOM     17  C   UNL d   1      46.532 -19.776  42.917  0.00  0.00     0.201 C 
ATOM     18  O   UNL d   1      46.599 -20.044  42.129  0.00  0.00    -0.286 OA
ATOM     19  C   UNL d   1      46.631 -20.302  43.548  0.00  0.00     0.045 C 
ENDBRANCH   1  17
TORSDOF 4
ENDMDL
MODEL 2
REMARK VINA RESULT:      17.1      1.831      4.262
REMARK  4 active torsions:
REMARK  status: ('A' for Active; 'I' for Inactive)
REMARK    1  A    between atoms: C_8  and  C_1 
REMARK    2  A    between atoms: N_11  and  C_9 
REMARK    3  A    between atoms: C_15  and  N_11 
REMARK    4  A    between atoms: C_16  and  N_11 
ROOT
ATOM      1  C   UNL d   1      45.551 -14.353  44.492  0.00  0.00     0.102 A 
ATOM      2  C   UNL d   1      46.049 -14.391  43.819  0.00  0.00     0.303 A 
ATOM      3  C   UNL d   1      45.323 -15.056  44.860  0.00  0.00     0.011 A 
ATOM      4  O   UNL d   1      46.297 -15.131  43.548  0.00  0.00    -0.273 OA
ATOM      5  C   UNL d   1      46.069 -15.825  43.915  0.00  0.00     0.105 A 
ATOM      6  C   UNL d   1      45.570 -15.787  44.588  0.00  0.00     0.023 A 
ATOM      7  C   UNL d   1      46.316 -16.538  43.642  0.00  0.00     0.042 A 
ATOM      8  C   UNL d   1      46.089 -17.236  44.010  0.00  0.00     0.066 A 
ATOM      9  O   UNL d   1      46.289 -13.694  43.434  0.00  0.00    -0.259 OA
ATOM     10  C   UNL d   1      45.343 -16.464  44.954  0.00  0.00     0.004 A 
ATOM     11  C   UNL d   1      45.590 -17.198  44.682  0.00  0.00     0.018 A 
ENDROOT
BRANCH   8  12
ATOM     12  N   UNL d   1      46.349 -17.969  43.721  0.00  0.00    -0.304 N 
BRANCH  12  13
ATOM     13  C   UNL d   1      46.366 -18.098  42.899  0.00  0.00     0.080 C 
ATOM     14  C   UNL d   1      46.536 -18.862  42.607  0.00  0.00     0.021 C 
ENDBRANCH  12  13
BRANCH  12  15
ATOM     15  C   UNL d   1      46.584 -18.554  44.234  0.00  0.00     0.080 C 
ATOM     16  C   UNL d   1      46.458 -19.335  44.067  0.00  0.00     0.021 C 
ENDBRANCH  12  15
ENDBRANCH   8  12
BRANCH   1  17
ATOM     17  C   UNL d   1      45.291 -13.618  44.780  0.00  0.00     0.201 C 
ATOM     18  O   UNL d   1      44.478 -13.481  44.914  0.00  0.00    -0.286 OA
ATOM     19  C   UNL d   1      45.847 -13.023  44.932  0.00  0.00     0.045 C 
ENDBRANCH   1  17
TORSDOF 4
ENDMDL
