MODEL 1
REMARK VINA RESULT:      16.9      0.000      0.000
REMARK  5 active torsions:
REMARK  status: ('A' for Active; 'I' for Inactive)
REMARK    1  A    between atoms: C_10  and  C_4 
REMARK    2  A    between atoms: N_11  and  C_7 
REMARK    3  A    between atoms: C_13  and  N_11 
REMARK    4  A    between atoms: C_15  and  C_13 
REMARK    5  A    between atoms: O_25  and  C_17 
ROOT
ATOM      1  C   UNL d   1     -41.208-120.871 -52.789  0.00  0.00     0.186 A 
ATOM      2  N   UNL d   1     -41.228-121.346 -53.479  0.00  0.00    -0.193 N 
ATOM      3  N   UNL d   1     -41.209-121.237 -52.045  0.00  0.00    -0.206 NA
ATOM      4  C   UNL d   1     -41.191-120.079 -53.032  0.00  0.00     0.140 A 
ATOM      5  N   UNL d   1     -41.223-120.841 -54.138  0.00  0.00    -0.058 NA
ATOM      6  N   UNL d   1     -41.200-120.061 -53.858  0.00  0.00    -0.127 NA
ATOM      7  C   UNL d   1     -41.228-122.057 -51.975  0.00  0.00     0.166 A 
ATOM      8  C   UNL d   1     -41.248-122.519 -52.665  0.00  0.00     0.054 A 
ATOM      9  C   UNL d   1     -41.248-122.167 -53.410  0.00  0.00     0.089 A 
ATOM     10  C   UNL d   1     -41.268-123.339 -52.596  0.00  0.00     0.005 A 
ATOM     11  C   UNL d   1     -41.267-122.634 -54.088  0.00  0.00     0.019 A 
ATOM     12  C   UNL d   1     -41.287-123.807 -53.274  0.00  0.00     0.000 A 
ATOM     13  C   UNL d   1     -41.287-123.455 -54.019  0.00  0.00     0.002 A 
ENDROOT
BRANCH   7  14
ATOM     14  N   UNL d   1     -41.229-122.420 -51.236  0.00  0.00    -0.225 NA
BRANCH  14  15
ATOM     15  C   UNL d   1     -41.774-122.180 -50.661  0.00  0.00     0.101 C 
BRANCH  15  16
ATOM     16  C   UNL d   1     -41.815-122.567 -49.934  0.00  0.00     0.019 A 
ATOM     17  C   UNL d   1     -42.538-122.842 -49.652  0.00  0.00     0.004 A 
ATOM     18  C   UNL d   1     -42.579-123.228 -48.924  0.00  0.00     0.024 A 
ATOM     19  C   UNL d   1     -41.884-123.339 -48.477  0.00  0.00     0.094 A 
ATOM     20  C   UNL d   1     -41.160-123.058 -48.769  0.00  0.00     0.024 A 
ATOM     21  C   UNL d   1     -41.132-122.673 -49.498  0.00  0.00     0.004 A 
BRANCH  19  22
ATOM     22  O   UNL d   1     -41.921-123.725 -47.749  0.00  0.00    -0.328 OA
ATOM     23  C   UNL d   1     -42.373-123.401 -47.137  0.00  0.00     0.181 C 
ENDBRANCH  19  22
ENDBRANCH  15  16
ENDBRANCH  14  15
ENDBRANCH   7  14
BRANCH   4  24
ATOM     24  C   UNL d   1     -41.169-119.431 -52.532  0.00  0.00     0.025 A 
ATOM     25  C   UNL d   1     -41.159-119.549 -51.717  0.00  0.00     0.031 A 
ATOM     26  C   UNL d   1     -41.137-118.896 -51.203  0.00  0.00     0.140 A 
ATOM     27  F   UNL d   1     -41.127-119.014 -50.388  0.00  0.00    -0.204 F 
ATOM     28  C   UNL d   1     -41.125-118.132 -51.515  0.00  0.00     0.030 A 
ATOM     29  C   UNL d   1     -41.135-118.023 -52.340  0.00  0.00     0.002 A 
ATOM     30  C   UNL d   1     -41.157-118.670 -52.842  0.00  0.00     0.002 A 
ENDBRANCH   4  24
TORSDOF 5
ENDMDL
MODEL 2
REMARK VINA RESULT:      18.0      2.419      4.694
REMARK  5 active torsions:
REMARK  status: ('A' for Active; 'I' for Inactive)
REMARK    1  A    between atoms: C_10  and  C_4 
REMARK    2  A    between atoms: N_11  and  C_7 
REMARK    3  A    between atoms: C_13  and  N_11 
REMARK    4  A    between atoms: C_15  and  C_13 
REMARK    5  A    between atoms: O_25  and  C_17 
ROOT
ATOM      1  C   UNL d   1     -41.591-122.480 -53.386  0.00  0.00     0.186 A 
ATOM      2  N   UNL d   1     -41.540-123.069 -52.791  0.00  0.00    -0.193 N 
ATOM      3  N   UNL d   1     -41.504-121.683 -53.175  0.00  0.00    -0.206 NA
ATOM      4  C   UNL d   1     -41.728-122.865 -54.106  0.00  0.00     0.140 A 
ATOM      5  N   UNL d   1     -41.646-123.808 -53.153  0.00  0.00    -0.058 NA
ATOM      6  N   UNL d   1     -41.761-123.678 -53.964  0.00  0.00    -0.127 NA
ATOM      7  C   UNL d   1     -41.369-121.463 -52.393  0.00  0.00     0.166 A 
ATOM      8  C   UNL d   1     -41.321-122.054 -51.811  0.00  0.00     0.054 A 
ATOM      9  C   UNL d   1     -41.405-122.849 -52.008  0.00  0.00     0.089 A 
ATOM     10  C   UNL d   1     -41.186-121.834 -51.029  0.00  0.00     0.005 A 
ATOM     11  C   UNL d   1     -41.355-123.427 -51.424  0.00  0.00     0.019 A 
ATOM     12  C   UNL d   1     -41.136-122.412 -50.444  0.00  0.00     0.000 A 
ATOM     13  C   UNL d   1     -41.220-123.208 -50.642  0.00  0.00     0.002 A 
ENDROOT
BRANCH   7  14
ATOM     14  N   UNL d   1     -41.283-120.671 -52.183  0.00  0.00    -0.225 NA
BRANCH  14  15
ATOM     15  C   UNL d   1     -41.892-120.134 -52.349  0.00  0.00     0.101 C 
BRANCH  15  16
ATOM     16  C   UNL d   1     -41.720-119.378 -52.630  0.00  0.00     0.019 A 
ATOM     17  C   UNL d   1     -41.965-119.152 -53.383  0.00  0.00     0.004 A 
ATOM     18  C   UNL d   1     -41.793-118.396 -53.664  0.00  0.00     0.024 A 
ATOM     19  C   UNL d   1     -41.370-117.863 -53.183  0.00  0.00     0.094 A 
ATOM     20  C   UNL d   1     -41.127-118.100 -52.426  0.00  0.00     0.024 A 
ATOM     21  C   UNL d   1     -41.304-118.859 -52.155  0.00  0.00     0.004 A 
BRANCH  19  22
ATOM     22  O   UNL d   1     -41.196-117.106 -53.461  0.00  0.00    -0.328 OA
ATOM     23  C   UNL d   1     -41.813-116.597 -53.672  0.00  0.00     0.181 C 
ENDBRANCH  19  22
ENDBRANCH  15  16
ENDBRANCH  14  15
ENDBRANCH   7  14
BRANCH   4  24
ATOM     24  C   UNL d   1     -41.813-122.494 -54.832  0.00  0.00     0.025 A 
ATOM     25  C   UNL d   1     -42.565-122.404 -55.155  0.00  0.00     0.031 A 
ATOM     26  C   UNL d   1     -42.660-122.029 -55.890  0.00  0.00     0.140 A 
ATOM     27  F   UNL d   1     -43.412-121.939 -56.213  0.00  0.00    -0.204 F 
ATOM     28  C   UNL d   1     -41.995-121.748 -56.291  0.00  0.00     0.030 A 
ATOM     29  C   UNL d   1     -41.239-121.843 -55.957  0.00  0.00     0.002 A 
ATOM     30  C   UNL d   1     -41.152-122.214 -55.232  0.00  0.00     0.002 A 
ENDBRANCH   4  24
TORSDOF 5
ENDMDL
MODEL 3
REMARK VINA RESULT:      19.2      2.113      4.118
REMARK  5 active torsions:
REMARK  status: ('A' for Active; 'I' for Inactive)
REMARK    1  A    between atoms: C_10  and  C_4 
REMARK    2  A    between atoms: N_11  and  C_7 
REMARK    3  A    between atoms: C_13  and  N_11 
REMARK    4  A    between atoms: C_15  and  C_13 
REMARK    5  A    between atoms: O_25  and  C_17 
ROOT
ATOM      1  C   UNL d   1     -41.226-120.886 -51.681  0.00  0.00     0.186 A 
ATOM      2  N   UNL d   1     -41.186-121.351 -50.984  0.00  0.00    -0.193 N 
ATOM      3  N   UNL d   1     -41.268-121.263 -52.418  0.00  0.00    -0.206 NA
ATOM      4  C   UNL d   1     -41.213-120.090 -51.449  0.00  0.00     0.140 A 
ATOM      5  N   UNL d   1     -41.149-120.836 -50.334  0.00  0.00    -0.058 NA
ATOM      6  N   UNL d   1     -41.166-120.060 -50.625  0.00  0.00    -0.127 NA
ATOM      7  C   UNL d   1     -41.271-122.084 -52.475  0.00  0.00     0.166 A 
ATOM      8  C   UNL d   1     -41.231-122.536 -51.779  0.00  0.00     0.054 A 
ATOM      9  C   UNL d   1     -41.189-122.173 -51.041  0.00  0.00     0.089 A 
ATOM     10  C   UNL d   1     -41.234-123.357 -51.836  0.00  0.00     0.005 A 
ATOM     11  C   UNL d   1     -41.150-122.630 -50.358  0.00  0.00     0.019 A 
ATOM     12  C   UNL d   1     -41.195-123.815 -51.152  0.00  0.00     0.000 A 
ATOM     13  C   UNL d   1     -41.153-123.452 -50.414  0.00  0.00     0.002 A 
ENDROOT
BRANCH   7  14
ATOM     14  N   UNL d   1     -41.313-122.458 -53.208  0.00  0.00    -0.225 NA
BRANCH  14  15
ATOM     15  C   UNL d   1     -41.123-122.037 -53.895  0.00  0.00     0.101 C 
BRANCH  15  16
ATOM     16  C   UNL d   1     -41.597-122.096 -54.567  0.00  0.00     0.019 A 
ATOM     17  C   UNL d   1     -41.309-121.850 -55.298  0.00  0.00     0.004 A 
ATOM     18  C   UNL d   1     -41.783-121.909 -55.971  0.00  0.00     0.024 A 
ATOM     19  C   UNL d   1     -42.554-122.220 -55.906  0.00  0.00     0.094 A 
ATOM     20  C   UNL d   1     -42.835-122.465 -55.165  0.00  0.00     0.024 A 
ATOM     21  C   UNL d   1     -42.352-122.401 -54.499  0.00  0.00     0.004 A 
BRANCH  19  22
ATOM     22  O   UNL d   1     -43.030-122.280 -56.577  0.00  0.00    -0.328 OA
ATOM     23  C   UNL d   1     -43.798-122.580 -56.507  0.00  0.00     0.181 C 
ENDBRANCH  19  22
ENDBRANCH  15  16
ENDBRANCH  14  15
ENDBRANCH   7  14
BRANCH   4  24
ATOM     24  C   UNL d   1     -41.243-119.449 -51.959  0.00  0.00     0.025 A 
ATOM     25  C   UNL d   1     -41.175-118.687 -51.655  0.00  0.00     0.031 A 
ATOM     26  C   UNL d   1     -41.204-118.032 -52.166  0.00  0.00     0.140 A 
ATOM     27  F   UNL d   1     -41.137-117.269 -51.863  0.00  0.00    -0.204 F 
ATOM     28  C   UNL d   1     -41.301-118.153 -52.977  0.00  0.00     0.030 A 
ATOM     29  C   UNL d   1     -41.368-118.928 -53.275  0.00  0.00     0.002 A 
ATOM     30  C   UNL d   1     -41.339-119.569 -52.766  0.00  0.00     0.002 A 
ENDBRANCH   4  24
TORSDOF 5
ENDMDL
MODEL 4
REMARK VINA RESULT:      19.4      1.579      3.393
REMARK  5 active torsions:
REMARK  status: ('A' for Active; 'I' for Inactive)
REMARK    1  A    between atoms: C_10  and  C_4 
REMARK    2  A    between atoms: N_11  and  C_7 
REMARK    3  A    between atoms: C_13  and  N_11 
REMARK    4  A    between atoms: C_15  and  C_13 
REMARK    5  A    between atoms: O_25  and  C_17 
ROOT
ATOM      1  C   UNL d   1     -41.825-120.768 -53.921  0.00  0.00     0.186 A 
ATOM      2  N   UNL d   1     -41.654-119.951 -53.992  0.00  0.00    -0.193 N 
ATOM      3  N   UNL d   1     -41.814-121.121 -53.171  0.00  0.00    -0.206 NA
ATOM      4  C   UNL d   1     -41.979-121.057 -54.683  0.00  0.00     0.140 A 
ATOM      5  N   UNL d   1     -41.705-119.747 -54.796  0.00  0.00    -0.058 NA
ATOM      6  N   UNL d   1     -41.906-120.432 -55.217  0.00  0.00    -0.127 NA
ATOM      7  C   UNL d   1     -41.637-120.681 -52.498  0.00  0.00     0.166 A 
ATOM      8  C   UNL d   1     -41.469-119.872 -52.578  0.00  0.00     0.054 A 
ATOM      9  C   UNL d   1     -41.477-119.510 -53.319  0.00  0.00     0.089 A 
ATOM     10  C   UNL d   1     -41.292-119.432 -51.906  0.00  0.00     0.005 A 
ATOM     11  C   UNL d   1     -41.309-118.707 -53.388  0.00  0.00     0.019 A 
ATOM     12  C   UNL d   1     -41.124-118.628 -51.974  0.00  0.00     0.000 A 
ATOM     13  C   UNL d   1     -41.132-118.266 -52.715  0.00  0.00     0.002 A 
ENDROOT
BRANCH   7  14
ATOM     14  N   UNL d   1     -41.625-121.032 -51.752  0.00  0.00    -0.225 NA
BRANCH  14  15
ATOM     15  C   UNL d   1     -41.346-121.806 -51.668  0.00  0.00     0.101 C 
BRANCH  15  16
ATOM     16  C   UNL d   1     -41.552-122.258 -51.009  0.00  0.00     0.019 A 
ATOM     17  C   UNL d   1     -41.425-123.071 -51.009  0.00  0.00     0.004 A 
ATOM     18  C   UNL d   1     -41.632-123.522 -50.350  0.00  0.00     0.024 A 
ATOM     19  C   UNL d   1     -41.969-123.149 -49.685  0.00  0.00     0.094 A 
ATOM     20  C   UNL d   1     -42.093-122.329 -49.694  0.00  0.00     0.024 A 
ATOM     21  C   UNL d   1     -41.883-121.888 -50.359  0.00  0.00     0.004 A 
BRANCH  19  22
ATOM     22  O   UNL d   1     -42.177-123.597 -49.024  0.00  0.00    -0.328 OA
ATOM     23  C   UNL d   1     -42.969-123.801 -48.901  0.00  0.00     0.181 C 
ENDBRANCH  19  22
ENDBRANCH  15  16
ENDBRANCH  14  15
ENDBRANCH   7  14
BRANCH   4  24
ATOM     24  C   UNL d   1     -42.171-121.832 -54.864  0.00  0.00     0.025 A 
ATOM     25  C   UNL d   1     -41.625-122.431 -54.715  0.00  0.00     0.031 A 
ATOM     26  C   UNL d   1     -41.813-123.219 -54.896  0.00  0.00     0.140 A 
ATOM     27  F   UNL d   1     -41.267-123.817 -54.747  0.00  0.00    -0.204 F 
ATOM     28  C   UNL d   1     -42.549-123.397 -55.225  0.00  0.00     0.030 A 
ATOM     29  C   UNL d   1     -43.095-122.786 -55.372  0.00  0.00     0.002 A 
ATOM     30  C   UNL d   1     -42.904-122.010 -55.191  0.00  0.00     0.002 A 
ENDBRANCH   4  24
TORSDOF 5
ENDMDL
