MODEL 1
REMARK VINA RESULT:     169.3      0.000      0.000
REMARK  5 active torsions:
REMARK  status: ('A' for Active; 'I' for Inactive)
REMARK    1  A    between atoms: C_4  and  S_1 
REMARK    2  A    between atoms: N_6  and  S_1 
REMARK    3  A    between atoms: C_2  and  C_14 
REMARK    4  A    between atoms: C_7  and  C_16 
REMARK       I    between atoms: N_11  and  C_7 
REMARK    5  A    between atoms: C_26  and  N_11 
ROOT
ATOM      1  C   UNL d   1      62.302  43.457  50.381  0.00  0.00     0.279 C 
ATOM      2  N   UNL d   1      61.599  43.808  50.141  0.00  0.00    -0.208 NA
ATOM      3  O   UNL d   1      62.874  43.899  50.768  0.00  0.00    -0.265 OA
ENDROOT
BRANCH   1   4
ATOM      4  C   UNL d   1      62.432  42.655  50.232  0.00  0.00     0.061 A 
ATOM      5  C   UNL d   1      62.690  42.152  50.848  0.00  0.00     0.025 A 
ATOM      6  C   UNL d   1      62.820  41.349  50.699  0.00  0.00     0.092 A 
ATOM      7  N   UNL d   1      62.695  41.043  49.939  0.00  0.00    -0.229 N 
ATOM      8  C   UNL d   1      62.440  41.544  49.331  0.00  0.00     0.092 A 
ATOM      9  C   UNL d   1      62.308  42.344  49.471  0.00  0.00     0.025 A 
BRANCH   7  10
ATOM     10  S   UNL d   1      62.824  40.240  49.785  0.00  0.00     0.277 S 
ATOM     11  O   UNL d   1      62.808  40.414  48.984  0.00  0.00    -0.199 OA
ATOM     12  O   UNL d   1      62.840  40.071  50.596  0.00  0.00    -0.199 OA
BRANCH  10  13
ATOM     13  C   UNL d   1      62.951  39.456  49.594  0.00  0.00     0.133 A 
ATOM     14  S   UNL d   1      63.014  38.821  50.123  0.00  0.00    -0.074 SA
ATOM     15  C   UNL d   1      63.140  38.136  49.692  0.00  0.00     0.036 A 
ATOM     16  C   UNL d   1      63.158  38.333  48.890  0.00  0.00     0.008 A 
ATOM     17  C   UNL d   1      63.042  39.147  48.830  0.00  0.00     0.020 A 
ENDBRANCH  10  13
ENDBRANCH   7  10
ENDBRANCH   1   4
BRANCH   2  18
ATOM     18  C   UNL d   1      61.466  44.608  50.288  0.00  0.00     0.085 A 
ATOM     19  C   UNL d   1      61.222  44.850  51.043  0.00  0.00     0.019 A 
ATOM     20  C   UNL d   1      61.093  45.651  51.173  0.00  0.00     0.004 A 
ATOM     21  C   UNL d   1      61.205  46.184  50.570  0.00  0.00     0.024 A 
ATOM     22  C   UNL d   1      61.446  45.933  49.832  0.00  0.00     0.004 A 
ATOM     23  C   UNL d   1      61.575  45.154  49.690  0.00  0.00     0.019 A 
BRANCH  21  24
ATOM     24  C   UNL d   1      61.072  46.985  50.717  0.00  0.00     0.111 A 
ATOM     25  N   UNL d   1      61.269  47.615  50.210  0.00  0.00    -0.239 NA
ATOM     26  C   UNL d   1      61.037  48.325  50.574  0.00  0.00     0.088 A 
ATOM     27  C   UNL d   1      61.091  49.110  50.338  0.00  0.00     0.020 A 
ATOM     28  C   UNL d   1      60.700  48.131  51.300  0.00  0.00     0.049 A 
ATOM     29  C   UNL d   1      60.805  49.708  50.831  0.00  0.00     0.002 A 
ATOM     30  C   UNL d   1      60.467  49.518  51.558  0.00  0.00     0.001 A 
ATOM     31  C   UNL d   1      60.411  48.731  51.798  0.00  0.00     0.008 A 
ATOM     32  S   UNL d   1      60.713  47.306  51.405  0.00  0.00    -0.066 SA
ENDBRANCH  21  24
ENDBRANCH   2  18
TORSDOF 5
ENDMDL
