MODEL 1
REMARK VINA RESULT:      -2.2      0.000      0.000
REMARK  7 active torsions:
REMARK  status: ('A' for Active; 'I' for Inactive)
REMARK    1  A    between atoms: C_6  and  C_1 
REMARK    2  A    between atoms: O_18  and  C_6 
REMARK    3  A    between atoms: C_7  and  C_11 
REMARK    4  A    between atoms: O_19  and  C_7 
REMARK    5  A    between atoms: O_10  and  C_12 
REMARK    6  A    between atoms: C_11  and  O_10 
REMARK    7  A    between atoms: C_21  and  O_18 
ROOT
ATOM      1  C   UNL d   1      31.130  17.202 -24.361  0.00  0.00     0.081 A 
ATOM      2  C   UNL d   1      31.406  16.463 -24.609  0.00  0.00     0.069 A 
ATOM      3  N   UNL d   1      32.201  16.416 -24.414  0.00  0.00    -0.304 N 
ATOM      4  C   UNL d   1      31.752  17.606 -24.018  0.00  0.00     0.025 A 
ATOM      5  C   UNL d   1      32.415  17.119 -24.051  0.00  0.00     0.064 A 
ATOM      6  C   UNL d   1      33.132  17.379 -23.744  0.00  0.00     0.020 A 
ATOM      7  C   UNL d   1      31.805  18.351 -23.678  0.00  0.00     0.026 A 
ATOM      8  C   UNL d   1      32.532  18.613 -23.368  0.00  0.00     0.100 A 
ATOM      9  C   UNL d   1      33.189  18.131 -23.401  0.00  0.00     0.026 A 
ATOM     10  C   UNL d   1      30.963  15.878 -24.983  0.00  0.00     0.019 C 
ATOM     11  C   UNL d   1      32.699  15.768 -24.563  0.00  0.00     0.099 C 
ENDROOT
BRANCH   8  12
ATOM     12  O   UNL d   1      32.582  19.366 -23.027  0.00  0.00    -0.302 OA
BRANCH  12  13
ATOM     13  C   UNL d   1      32.892  19.442 -22.267  0.00  0.00     0.163 C 
ATOM     14  C   UNL d   1      33.241  18.791 -21.892  0.00  0.00     0.032 C 
BRANCH  13  15
ATOM     15  C   UNL d   1      32.855  20.169 -21.877  0.00  0.00     0.319 C 
ATOM     16  O   UNL d   1      32.691  20.203 -21.067  0.00  0.00    -0.257 OA
BRANCH  15  17
ATOM     17  O   UNL d   1      32.981  20.869 -22.290  0.00  0.00    -0.294 OA
ATOM     18  C   UNL d   1      32.858  21.595 -21.917  0.00  0.00     0.185 C 
ENDBRANCH  15  17
ENDBRANCH  13  15
ENDBRANCH  12  13
ENDBRANCH   8  12
BRANCH   1  19
ATOM     19  C   UNL d   1      30.357  17.485 -24.446  0.00  0.00     0.302 C 
ATOM     20  O   UNL d   1      30.166  17.958 -25.097  0.00  0.00    -0.259 OA
BRANCH  19  21
ATOM     21  O   UNL d   1      29.784  17.298 -23.890  0.00  0.00    -0.271 OA
BRANCH  21  22
ATOM     22  C   UNL d   1      28.994  17.491 -24.033  0.00  0.00     0.126 C 
ATOM     23  C   UNL d   1      28.395  17.084 -23.638  0.00  0.00     0.029 C 
ENDBRANCH  21  22
ENDBRANCH  19  21
ENDBRANCH   1  19
TORSDOF 7
ENDMDL
MODEL 2
REMARK VINA RESULT:      -1.4      2.447      5.319
REMARK  7 active torsions:
REMARK  status: ('A' for Active; 'I' for Inactive)
REMARK    1  A    between atoms: C_6  and  C_1 
REMARK    2  A    between atoms: O_18  and  C_6 
REMARK    3  A    between atoms: C_7  and  C_11 
REMARK    4  A    between atoms: O_19  and  C_7 
REMARK    5  A    between atoms: O_10  and  C_12 
REMARK    6  A    between atoms: C_11  and  O_10 
REMARK    7  A    between atoms: C_21  and  O_18 
ROOT
ATOM      1  C   UNL d   1      32.580  22.187 -21.626  0.00  0.00     0.081 A 
ATOM      2  C   UNL d   1      32.604  22.887 -22.065  0.00  0.00     0.069 A 
ATOM      3  N   UNL d   1      32.829  22.694 -22.830  0.00  0.00    -0.304 N 
ATOM      4  C   UNL d   1      32.788  21.569 -22.118  0.00  0.00     0.025 A 
ATOM      5  C   UNL d   1      32.943  21.883 -22.863  0.00  0.00     0.064 A 
ATOM      6  C   UNL d   1      33.169  21.389 -23.479  0.00  0.00     0.020 A 
ATOM      7  C   UNL d   1      32.859  20.761 -21.989  0.00  0.00     0.026 A 
ATOM      8  C   UNL d   1      33.088  20.262 -22.615  0.00  0.00     0.100 A 
ATOM      9  C   UNL d   1      33.241  20.573 -23.353  0.00  0.00     0.026 A 
ATOM     10  C   UNL d   1      32.433  23.643 -21.787  0.00  0.00     0.019 C 
ATOM     11  C   UNL d   1      32.924  23.230 -23.457  0.00  0.00     0.099 C 
ENDROOT
BRANCH   8  12
ATOM     12  O   UNL d   1      33.158  19.448 -22.480  0.00  0.00    -0.302 OA
BRANCH  12  13
ATOM     13  C   UNL d   1      32.807  18.922 -23.010  0.00  0.00     0.163 C 
ATOM     14  C   UNL d   1      32.326  19.205 -23.621  0.00  0.00     0.032 C 
BRANCH  13  15
ATOM     15  C   UNL d   1      32.936  18.110 -22.932  0.00  0.00     0.319 C 
ATOM     16  O   UNL d   1      33.097  17.781 -22.190  0.00  0.00    -0.257 OA
BRANCH  15  17
ATOM     17  O   UNL d   1      32.906  17.619 -23.590  0.00  0.00    -0.294 OA
ATOM     18  C   UNL d   1      33.194  16.847 -23.541  0.00  0.00     0.185 C 
ENDBRANCH  15  17
ENDBRANCH  13  15
ENDBRANCH  12  13
ENDBRANCH   8  12
BRANCH   1  19
ATOM     19  C   UNL d   1      32.378  22.123 -20.827  0.00  0.00     0.302 C 
ATOM     20  O   UNL d   1      31.629  21.846 -20.616  0.00  0.00    -0.259 OA
BRANCH  19  21
ATOM     21  O   UNL d   1      32.918  22.333 -20.245  0.00  0.00    -0.271 OA
BRANCH  21  22
ATOM     22  C   UNL d   1      32.650  22.600 -19.512  0.00  0.00     0.126 C 
ATOM     23  C   UNL d   1      33.130  22.521 -18.846  0.00  0.00     0.029 C 
ENDBRANCH  21  22
ENDBRANCH  19  21
ENDBRANCH   1  19
TORSDOF 7
ENDMDL
MODEL 3
REMARK VINA RESULT:      -0.3      2.354      5.189
REMARK  7 active torsions:
REMARK  status: ('A' for Active; 'I' for Inactive)
REMARK    1  A    between atoms: C_6  and  C_1 
REMARK    2  A    between atoms: O_18  and  C_6 
REMARK    3  A    between atoms: C_7  and  C_11 
REMARK    4  A    between atoms: O_19  and  C_7 
REMARK    5  A    between atoms: O_10  and  C_12 
REMARK    6  A    between atoms: C_11  and  O_10 
REMARK    7  A    between atoms: C_21  and  O_18 
ROOT
ATOM      1  C   UNL d   1      32.923  22.048 -21.496  0.00  0.00     0.081 A 
ATOM      2  C   UNL d   1      32.940  22.139 -20.674  0.00  0.00     0.069 A 
ATOM      3  N   UNL d   1      33.051  21.396 -20.344  0.00  0.00    -0.304 N 
ATOM      4  C   UNL d   1      33.023  21.256 -21.668  0.00  0.00     0.025 A 
ATOM      5  C   UNL d   1      33.102  20.852 -20.955  0.00  0.00     0.064 A 
ATOM      6  C   UNL d   1      33.211  20.038 -20.953  0.00  0.00     0.020 A 
ATOM      7  C   UNL d   1      33.052  20.846 -22.379  0.00  0.00     0.026 A 
ATOM      8  C   UNL d   1      33.162  20.021 -22.375  0.00  0.00     0.100 A 
ATOM      9  C   UNL d   1      33.241  19.621 -21.669  0.00  0.00     0.026 A 
ATOM     10  C   UNL d   1      32.861  22.846 -20.260  0.00  0.00     0.019 C 
ATOM     11  C   UNL d   1      33.102  21.230 -19.532  0.00  0.00     0.099 C 
ENDROOT
BRANCH   8  12
ATOM     12  O   UNL d   1      33.192  19.611 -23.094  0.00  0.00    -0.302 OA
BRANCH  12  13
ATOM     13  C   UNL d   1      32.958  18.820 -23.115  0.00  0.00     0.163 C 
ATOM     14  C   UNL d   1      33.228  18.290 -22.540  0.00  0.00     0.032 C 
BRANCH  13  15
ATOM     15  C   UNL d   1      32.450  18.556 -23.711  0.00  0.00     0.319 C 
ATOM     16  O   UNL d   1      32.032  17.848 -23.621  0.00  0.00    -0.257 OA
BRANCH  15  17
ATOM     17  O   UNL d   1      32.356  18.993 -24.400  0.00  0.00    -0.294 OA
ATOM     18  C   UNL d   1      31.947  18.670 -25.040  0.00  0.00     0.185 C 
ENDBRANCH  15  17
ENDBRANCH  13  15
ENDBRANCH  12  13
ENDBRANCH   8  12
BRANCH   1  19
ATOM     19  C   UNL d   1      32.823  22.655 -22.048  0.00  0.00     0.302 C 
ATOM     20  O   UNL d   1      32.331  23.295 -21.866  0.00  0.00    -0.259 OA
BRANCH  19  21
ATOM     21  O   UNL d   1      33.207  22.625 -22.773  0.00  0.00    -0.271 OA
BRANCH  21  22
ATOM     22  C   UNL d   1      33.238  23.296 -23.250  0.00  0.00     0.126 C 
ATOM     23  C   UNL d   1      33.213  23.218 -24.071  0.00  0.00     0.029 C 
ENDBRANCH  21  22
ENDBRANCH  19  21
ENDBRANCH   1  19
TORSDOF 7
ENDMDL
MODEL 4
REMARK VINA RESULT:       0.4      2.133      3.344
REMARK  7 active torsions:
REMARK  status: ('A' for Active; 'I' for Inactive)
REMARK    1  A    between atoms: C_6  and  C_1 
REMARK    2  A    between atoms: O_18  and  C_6 
REMARK    3  A    between atoms: C_7  and  C_11 
REMARK    4  A    between atoms: O_19  and  C_7 
REMARK    5  A    between atoms: O_10  and  C_12 
REMARK    6  A    between atoms: C_11  and  O_10 
REMARK    7  A    between atoms: C_21  and  O_18 
ROOT
ATOM      1  C   UNL d   1      32.616  19.381 -23.607  0.00  0.00     0.081 A 
ATOM      2  C   UNL d   1      32.708  19.602 -24.399  0.00  0.00     0.069 A 
ATOM      3  N   UNL d   1      32.954  20.385 -24.411  0.00  0.00    -0.304 N 
ATOM      4  C   UNL d   1      32.803  20.023 -23.138  0.00  0.00     0.025 A 
ATOM      5  C   UNL d   1      33.012  20.645 -23.636  0.00  0.00     0.064 A 
ATOM      6  C   UNL d   1      33.230  21.371 -23.319  0.00  0.00     0.020 A 
ATOM      7  C   UNL d   1      32.811  20.128 -22.324  0.00  0.00     0.026 A 
ATOM      8  C   UNL d   1      33.032  20.864 -22.005  0.00  0.00     0.100 A 
ATOM      9  C   UNL d   1      33.240  21.479 -22.497  0.00  0.00     0.026 A 
ATOM     10  C   UNL d   1      32.578  19.125 -25.056  0.00  0.00     0.019 C 
ATOM     11  C   UNL d   1      33.114  20.832 -25.093  0.00  0.00     0.099 C 
ENDROOT
BRANCH   8  12
ATOM     12  O   UNL d   1      33.040  20.965 -21.182  0.00  0.00    -0.302 OA
BRANCH  12  13
ATOM     13  C   UNL d   1      32.660  21.619 -20.855  0.00  0.00     0.163 C 
ATOM     14  C   UNL d   1      31.992  21.941 -21.223  0.00  0.00     0.032 C 
BRANCH  13  15
ATOM     15  C   UNL d   1      32.947  21.957 -20.158  0.00  0.00     0.319 C 
ATOM     16  O   UNL d   1      33.188  22.748 -20.144  0.00  0.00    -0.257 OA
BRANCH  15  17
ATOM     17  O   UNL d   1      32.996  21.511 -19.470  0.00  0.00    -0.294 OA
ATOM     18  C   UNL d   1      33.149  21.881 -18.748  0.00  0.00     0.185 C 
ENDBRANCH  15  17
ENDBRANCH  13  15
ENDBRANCH  12  13
ENDBRANCH   8  12
BRANCH   1  19
ATOM     19  C   UNL d   1      32.375  18.637 -23.337  0.00  0.00     0.302 C 
ATOM     20  O   UNL d   1      31.571  18.447 -23.330  0.00  0.00    -0.259 OA
BRANCH  19  21
ATOM     21  O   UNL d   1      32.930  18.091 -23.077  0.00  0.00    -0.271 OA
BRANCH  21  22
ATOM     22  C   UNL d   1      32.681  17.374 -22.755  0.00  0.00     0.126 C 
ATOM     23  C   UNL d   1      33.213  16.908 -22.332  0.00  0.00     0.029 C 
ENDBRANCH  21  22
ENDBRANCH  19  21
ENDBRANCH   1  19
TORSDOF 7
ENDMDL
MODEL 5
REMARK VINA RESULT:       0.4      1.972      4.939
REMARK  7 active torsions:
REMARK  status: ('A' for Active; 'I' for Inactive)
REMARK    1  A    between atoms: C_6  and  C_1 
REMARK    2  A    between atoms: O_18  and  C_6 
REMARK    3  A    between atoms: C_7  and  C_11 
REMARK    4  A    between atoms: O_19  and  C_7 
REMARK    5  A    between atoms: O_10  and  C_12 
REMARK    6  A    between atoms: C_11  and  O_10 
REMARK    7  A    between atoms: C_21  and  O_18 
ROOT
ATOM      1  C   UNL d   1      33.153  21.379 -22.190  0.00  0.00     0.081 A 
ATOM      2  C   UNL d   1      33.175  22.073 -22.639  0.00  0.00     0.069 A 
ATOM      3  N   UNL d   1      33.211  21.858 -23.430  0.00  0.00    -0.304 N 
ATOM      4  C   UNL d   1      33.176  20.743 -22.702  0.00  0.00     0.025 A 
ATOM      5  C   UNL d   1      33.211  21.039 -23.469  0.00  0.00     0.064 A 
ATOM      6  C   UNL d   1      33.239  20.524 -24.109  0.00  0.00     0.020 A 
ATOM      7  C   UNL d   1      33.169  19.932 -22.575  0.00  0.00     0.026 A 
ATOM      8  C   UNL d   1      33.197  19.412 -23.224  0.00  0.00     0.100 A 
ATOM      9  C   UNL d   1      33.232  19.705 -23.983  0.00  0.00     0.026 A 
ATOM     10  C   UNL d   1      33.163  22.843 -22.346  0.00  0.00     0.019 C 
ATOM     11  C   UNL d   1      33.241  22.382 -24.073  0.00  0.00     0.099 C 
ENDROOT
BRANCH   8  12
ATOM     12  O   UNL d   1      33.190  18.594 -23.090  0.00  0.00    -0.302 OA
BRANCH  12  13
ATOM     13  C   UNL d   1      32.680  18.120 -23.533  0.00  0.00     0.163 C 
ATOM     14  C   UNL d   1      32.272  18.438 -24.180  0.00  0.00     0.032 C 
BRANCH  13  15
ATOM     15  C   UNL d   1      32.576  17.326 -23.331  0.00  0.00     0.319 C 
ATOM     16  O   UNL d   1      33.210  16.882 -23.039  0.00  0.00    -0.257 OA
BRANCH  15  17
ATOM     17  O   UNL d   1      31.842  16.967 -23.419  0.00  0.00    -0.294 OA
ATOM     18  C   UNL d   1      31.770  16.149 -23.337  0.00  0.00     0.185 C 
ENDBRANCH  15  17
ENDBRANCH  13  15
ENDBRANCH  12  13
ENDBRANCH   8  12
BRANCH   1  19
ATOM     19  C   UNL d   1      33.116  21.336 -21.365  0.00  0.00     0.302 C 
ATOM     20  O   UNL d   1      33.218  20.606 -20.990  0.00  0.00    -0.259 OA
BRANCH  19  21
ATOM     21  O   UNL d   1      32.978  22.012 -20.920  0.00  0.00    -0.271 OA
BRANCH  21  22
ATOM     22  C   UNL d   1      33.158  22.017 -20.115  0.00  0.00     0.126 C 
ATOM     23  C   UNL d   1      32.720  22.491 -19.601  0.00  0.00     0.029 C 
ENDBRANCH  21  22
ENDBRANCH  19  21
ENDBRANCH   1  19
TORSDOF 7
ENDMDL
