MODEL 1
REMARK VINA RESULT:      46.6      0.000      0.000
REMARK  6 active torsions:
REMARK  status: ('A' for Active; 'I' for Inactive)
REMARK    1  A    between atoms: N_2  and  S_1 
REMARK    2  A    between atoms: C_7  and  S_1 
REMARK    3  A    between atoms: C_3  and  N_2 
REMARK    4  A    between atoms: C_4  and  C_3 
REMARK    5  A    between atoms: N_5  and  C_4 
REMARK    6  A    between atoms: C_6  and  C_4 
ROOT
ATOM      1  C   UNL d   1      13.934  13.286  -1.335  0.00  0.00     0.110 C 
ATOM      2  C   UNL d   1      13.213  13.436  -0.960  0.00  0.00     0.023 C 
ENDROOT
BRANCH   1   3
ATOM      3  N   UNL d   1      13.945  12.920  -2.067  0.00  0.00    -0.157 NA
BRANCH   3   4
ATOM      4  S   UNL d   1      13.383  12.354  -2.265  0.00  0.00     0.285 S 
ATOM      5  O   UNL d   1      12.856  11.783  -1.982  0.00  0.00    -0.198 OA
ATOM      6  O   UNL d   1      13.318  12.216  -1.449  0.00  0.00    -0.198 OA
BRANCH   4   7
ATOM      7  C   UNL d   1      13.398  12.441  -3.081  0.00  0.00     0.105 A 
ATOM      8  C   UNL d   1      13.453  13.204  -3.414  0.00  0.00     0.013 A 
ATOM      9  C   UNL d   1      13.468  13.286  -4.237  0.00  0.00     0.007 A 
ATOM     10  C   UNL d   1      13.428  12.623  -4.724  0.00  0.00     0.035 A 
ATOM     11  C   UNL d   1      13.374  11.869  -4.395  0.00  0.00     0.007 A 
ATOM     12 BR   UNL d   1      13.444  12.713  -5.551  0.00  0.00    -0.049 Br
ATOM     13  C   UNL d   1      13.359  11.779  -3.568  0.00  0.00     0.013 A 
ENDBRANCH   4   7
ENDBRANCH   3   4
ENDBRANCH   1   3
BRANCH   1  14
ATOM     14  C   UNL d   1      14.638  13.504  -0.972  0.00  0.00     0.089 C 
BRANCH  14  15
ATOM     15  N   UNL d   1      14.848  14.295  -0.921  0.00  0.00    -0.300 N 
ATOM     16  C   UNL d   1      14.783  14.786  -1.581  0.00  0.00     0.100 A 
ATOM     17  C   UNL d   1      14.996  15.584  -1.526  0.00  0.00     0.100 A 
ATOM     18  N   UNL d   1      15.271  15.893  -0.817  0.00  0.00    -0.299 N 
ATOM     19  C   UNL d   1      15.337  15.401  -0.153  0.00  0.00     0.100 A 
ATOM     20  C   UNL d   1      15.483  16.694  -0.767  0.00  0.00     0.100 C 
ATOM     21  C   UNL d   1      15.127  14.610  -0.205  0.00  0.00     0.100 A 
ENDBRANCH  14  15
BRANCH  14  22
ATOM     22  C   UNL d   1      15.134  12.925  -0.659  0.00  0.00     0.047 A 
ATOM     23  S   UNL d   1      14.907  12.168  -0.412  0.00  0.00    -0.085 SA
ATOM     24  C   UNL d   1      15.584  11.780  -0.139  0.00  0.00     0.035 A 
ATOM     25  C   UNL d   1      16.225  12.281  -0.212  0.00  0.00     0.007 A 
ATOM     26  C   UNL d   1      15.949  12.996  -0.536  0.00  0.00     0.009 A 
ENDBRANCH  14  22
ENDBRANCH   1  14
TORSDOF 6
ENDMDL
