MODEL 1
REMARK VINA RESULT:      -5.4      0.000      0.000
REMARK  6 active torsions:
REMARK  status: ('A' for Active; 'I' for Inactive)
REMARK       I    between atoms: C_2  and  N_1 
REMARK    1  A    between atoms: C_3  and  C_2 
REMARK    2  A    between atoms: C_12  and  C_4 
REMARK       I    between atoms: C_5  and  N_8 
REMARK    3  A    between atoms: C_6  and  C_5 
REMARK       I    between atoms: N_9  and  C_6 
REMARK    4  A    between atoms: N_8  and  C_12 
REMARK    5  A    between atoms: C_19  and  N_9 
REMARK    6  A    between atoms: C_21  and  C_19 
ROOT
ATOM      1  C   UNL d   1      57.730   0.202  29.601  0.00  0.00     0.337 C 
ATOM      2  N   UNL d   1      58.187  -0.341  29.191  0.00  0.00    -0.199 NA
ATOM      3  O   UNL d   1      57.199   0.681  29.193  0.00  0.00    -0.260 OA
ENDROOT
BRANCH   2   4
ATOM      4  C   UNL d   1      58.718  -0.820  29.599  0.00  0.00     0.146 C 
BRANCH   4   5
ATOM      5  C   UNL d   1      59.433  -1.042  29.237  0.00  0.00     0.190 A 
ATOM      6  N   UNL d   1      59.642  -1.813  29.042  0.00  0.00    -0.250 N 
ATOM      7  C   UNL d   1      59.248  -2.537  29.133  0.00  0.00     0.272 C 
ATOM      8  C   UNL d   1      60.393  -1.777  28.696  0.00  0.00     0.112 A 
ATOM      9  O   UNL d   1      58.498  -2.555  29.480  0.00  0.00    -0.266 OA
ATOM     10  C   UNL d   1      60.636  -0.994  28.682  0.00  0.00     0.144 A 
ATOM     11  O   UNL d   1      60.031  -0.540  29.022  0.00  0.00    -0.285 OA
BRANCH   7  12
ATOM     12  C   UNL d   1      59.598  -3.236  28.881  0.00  0.00     0.086 A 
ATOM     13  S   UNL d   1      60.395  -3.439  28.765  0.00  0.00    -0.082 SA
ATOM     14  C   UNL d   1      60.416  -4.233  28.501  0.00  0.00     0.036 A 
ATOM     15  C   UNL d   1      59.636  -4.502  28.460  0.00  0.00     0.008 A 
ATOM     16  C   UNL d   1      59.132  -3.895  28.691  0.00  0.00     0.012 A 
ENDBRANCH   7  12
ENDBRANCH   4   5
ENDBRANCH   2   4
BRANCH   1  17
ATOM     17  C   UNL d   1      57.796   0.274  30.422  0.00  0.00     0.337 C 
ATOM     18  N   UNL d   1      57.157   0.124  30.899  0.00  0.00    -0.202 NA
ATOM     19  O   UNL d   1      58.516   0.498  30.753  0.00  0.00    -0.260 OA
BRANCH  18  20
ATOM     20  C   UNL d   1      57.223   0.196  31.720  0.00  0.00     0.102 C 
BRANCH  20  21
ATOM     21  C   UNL d   1      56.610  -0.039  32.210  0.00  0.00     0.019 A 
ATOM     22  C   UNL d   1      56.481  -0.828  32.377  0.00  0.00     0.002 A 
ATOM     23  C   UNL d   1      55.875  -1.073  32.861  0.00  0.00     0.011 A 
ATOM     24  C   UNL d   1      55.369  -0.501  33.199  0.00  0.00     0.058 A 
ATOM     25  C   UNL d   1      55.486   0.297  33.041  0.00  0.00     0.011 A 
ATOM     26 CL   UNL d   1      54.747  -0.743  33.696  0.00  0.00    -0.082 Cl
ATOM     27  C   UNL d   1      56.104   0.533  32.548  0.00  0.00     0.002 A 
ENDBRANCH  20  21
ENDBRANCH  18  20
ENDBRANCH   1  17
TORSDOF 6
ENDMDL
