MODEL 1
REMARK VINA RESULT:      41.9      0.000      0.000
REMARK  4 active torsions:
REMARK  status: ('A' for Active; 'I' for Inactive)
REMARK    1  A    between atoms: N_2  and  S_1 
REMARK    2  A    between atoms: C_3  and  S_1 
REMARK    3  A    between atoms: O_16  and  C_8 
REMARK    4  A    between atoms: O_17  and  C_11 
ROOT
ATOM      1  S   UNL d   1     -54.792-101.292 -42.159  0.00  0.00     0.271 S 
ATOM      2  O   UNL d   1     -54.712-102.016 -42.541  0.00  0.00    -0.200 OA
ATOM      3  O   UNL d   1     -54.873-100.560 -41.772  0.00  0.00    -0.200 OA
ENDROOT
BRANCH   1   4
ATOM      4  N   UNL d   1     -54.774-101.672 -41.426  0.00  0.00    -0.229 N 
ATOM      5  C   UNL d   1     -54.774-101.224 -40.733  0.00  0.00     0.092 A 
ATOM      6  C   UNL d   1     -54.755-101.604 -40.000  0.00  0.00     0.018 A 
ATOM      7  C   UNL d   1     -54.755-101.157 -39.306  0.00  0.00     0.002 A 
ATOM      8  C   UNL d   1     -54.737-102.429 -39.961  0.00  0.00     0.003 A 
ATOM      9  C   UNL d   1     -54.737-101.537 -38.574  0.00  0.00     0.000 A 
ATOM     10  C   UNL d   1     -54.718-102.362 -38.535  0.00  0.00     0.000 A 
ATOM     11  C   UNL d   1     -54.719-102.809 -39.229  0.00  0.00     0.000 A 
ATOM     12  C   UNL d   1     -54.737-102.876 -40.655  0.00  0.00     0.020 A 
ATOM     13  C   UNL d   1     -54.755-102.496 -41.388  0.00  0.00     0.092 A 
ENDBRANCH   1   4
BRANCH   1  14
ATOM     14  C   UNL d   1     -54.811-100.907 -42.884  0.00  0.00     0.106 A 
ATOM     15  C   UNL d   1     -54.866-101.351 -43.580  0.00  0.00     0.039 A 
ATOM     16  C   UNL d   1     -54.886-100.969 -44.308  0.00  0.00     0.117 A 
ATOM     17  C   UNL d   1     -54.850-100.147 -44.348  0.00  0.00     0.116 A 
ATOM     18  C   UNL d   1     -54.795 -99.704 -43.652  0.00  0.00     0.027 A 
ATOM     19  C   UNL d   1     -54.776-100.088 -42.927  0.00  0.00     0.015 A 
BRANCH  16  20
ATOM     20  O   UNL d   1     -54.941-101.412 -45.003  0.00  0.00    -0.326 OA
ATOM     21  C   UNL d   1     -54.776-102.224 -44.990  0.00  0.00     0.181 C 
ENDBRANCH  16  20
BRANCH  17  22
ATOM     22  O   UNL d   1     -54.870 -99.764 -45.082  0.00  0.00    -0.326 OA
ATOM     23  C   UNL d   1     -54.717 -98.955 -45.129  0.00  0.00     0.181 C 
ENDBRANCH  17  22
ENDBRANCH   1  14
TORSDOF 4
ENDMDL
