MODEL 1
REMARK VINA RESULT:      87.8      0.000      0.000
REMARK  6 active torsions:
REMARK  status: ('A' for Active; 'I' for Inactive)
REMARK       I    between atoms: C_6  and  N_1 
REMARK    1  A    between atoms: C_7  and  C_3 
REMARK    2  A    between atoms: C_14  and  C_4 
REMARK    3  A    between atoms: C_20  and  C_6 
REMARK    4  A    between atoms: C_11  and  C_22 
REMARK    5  A    between atoms: C_21  and  C_20 
REMARK    6  A    between atoms: C_22  and  C_21 
ROOT
ATOM      1  N   UNL d   1     -49.311  29.213  33.983  0.00  0.00    -0.195 N 
ATOM      2  N   UNL d   1     -49.893  28.720  33.628  0.00  0.00    -0.163 NA
ATOM      3  C   UNL d   1     -48.855  28.748  34.469  0.00  0.00     0.088 A 
ATOM      4  C   UNL d   1     -49.775  27.952  33.914  0.00  0.00     0.103 A 
ATOM      5  C   UNL d   1     -49.121  27.986  34.439  0.00  0.00     0.040 A 
ATOM      6  C   UNL d   1     -49.240  30.060  33.833  0.00  0.00     0.280 C 
ATOM      7  O   UNL d   1     -49.772  30.433  33.307  0.00  0.00    -0.265 OA
ENDROOT
BRANCH   3   8
ATOM      8  C   UNL d   1     -48.218  29.015  34.924  0.00  0.00     0.019 A 
ATOM      9  C   UNL d   1     -48.313  29.209  35.696  0.00  0.00     0.022 A 
ATOM     10  C   UNL d   1     -47.676  29.477  36.152  0.00  0.00     0.099 A 
ATOM     11  N   UNL d   1     -47.797  29.662  36.911  0.00  0.00    -0.241 NA
ATOM     12  C   UNL d   1     -46.925  29.548  35.810  0.00  0.00     0.099 A 
ATOM     13  C   UNL d   1     -47.137  29.940  37.382  0.00  0.00     0.120 A 
ATOM     14  C   UNL d   1     -46.401  30.013  37.061  0.00  0.00     0.120 A 
ATOM     15  N   UNL d   1     -46.311  29.806  36.249  0.00  0.00    -0.241 NA
ATOM     16  C   UNL d   1     -46.851  29.344  35.020  0.00  0.00     0.021 A 
ATOM     17  C   UNL d   1     -47.466  29.086  34.581  0.00  0.00     0.003 A 
ENDBRANCH   3   8
BRANCH   6  18
ATOM     18  C   UNL d   1     -48.649  30.469  34.215  0.00  0.00     0.063 C 
BRANCH  18  19
ATOM     19  C   UNL d   1     -48.686  31.301  34.245  0.00  0.00     0.011 C 
BRANCH  19  20
ATOM     20  C   UNL d   1     -48.131  31.725  33.811  0.00  0.00     0.070 C 
BRANCH  20  21
ATOM     21  C   UNL d   1     -47.931  32.497  34.004  0.00  0.00     0.211 C 
ATOM     22  O   UNL d   1     -47.808  32.695  34.801  0.00  0.00    -0.644 OA
ATOM     23  O   UNL d   1     -47.849  33.076  33.427  0.00  0.00    -0.644 OA
ENDBRANCH  20  21
ENDBRANCH  19  20
ENDBRANCH  18  19
ENDBRANCH   6  18
BRANCH   4  24
ATOM     24  C   UNL d   1     -50.233  27.271  33.707  0.00  0.00     0.019 A 
ATOM     25  C   UNL d   1     -49.864  26.583  33.521  0.00  0.00     0.002 A 
ATOM     26  C   UNL d   1     -50.298  25.910  33.317  0.00  0.00     0.000 A 
ATOM     27  C   UNL d   1     -51.114  25.952  33.306  0.00  0.00     0.000 A 
ATOM     28  C   UNL d   1     -51.490  26.662  33.498  0.00  0.00     0.000 A 
ATOM     29  C   UNL d   1     -51.057  27.334  33.702  0.00  0.00     0.002 A 
ENDBRANCH   4  24
TORSDOF 6
ENDMDL
