MODEL 1
REMARK VINA RESULT:      -9.6      0.000      0.000
REMARK  4 active torsions:
REMARK  status: ('A' for Active; 'I' for Inactive)
REMARK    1  A    between atoms: C_7  and  N_1 
REMARK    2  A    between atoms: N_6  and  C_2 
REMARK    3  A    between atoms: C_10  and  N_6 
REMARK    4  A    between atoms: C_12  and  C_7 
ROOT
ATOM      1  N   UNL d   1      52.986  33.513  53.618  0.00  0.00    -0.239 N 
ATOM      2  C   UNL d   1      53.630  32.327  53.646  0.00  0.00     0.151 A 
ATOM      3  C   UNL d   1      53.255  32.887  53.124  0.00  0.00     0.285 A 
ATOM      4  C   UNL d   1      53.202  33.322  54.437  0.00  0.00     0.269 A 
ATOM      5  C   UNL d   1      53.588  32.602  54.418  0.00  0.00     0.086 A 
ATOM      6  O   UNL d   1      53.209  32.799  52.447  0.00  0.00    -0.265 OA
ATOM      7  O   UNL d   1      53.017  33.779  54.887  0.00  0.00    -0.267 OA
ENDROOT
BRANCH   2   8
ATOM      8  N   UNL d   1      53.988  31.609  53.431  0.00  0.00    -0.181 N 
ATOM      9  O   UNL d   1      54.682  31.767  53.182  0.00  0.00    -0.080 OA
BRANCH   8  10
ATOM     10  C   UNL d   1      53.573  30.898  53.512  0.00  0.00     0.090 A 
ATOM     11  C   UNL d   1      53.058  30.632  52.918  0.00  0.00     0.020 A 
ATOM     12  C   UNL d   1      52.643  29.913  53.010  0.00  0.00     0.002 A 
ATOM     13  C   UNL d   1      52.735  29.448  53.694  0.00  0.00     0.000 A 
ATOM     14  C   UNL d   1      53.250  29.717  54.286  0.00  0.00     0.002 A 
ATOM     15  C   UNL d   1      53.666  30.431  54.202  0.00  0.00     0.020 A 
ENDBRANCH   8  10
ENDBRANCH   2   8
BRANCH   1  16
ATOM     16  C   UNL d   1      52.606  34.177  53.470  0.00  0.00     0.086 C 
BRANCH  16  17
ATOM     17  C   UNL d   1      51.874  34.164  53.117  0.00  0.00     0.018 A 
ATOM     18  C   UNL d   1      51.221  33.948  53.552  0.00  0.00     0.002 A 
ATOM     19  C   UNL d   1      50.489  33.936  53.199  0.00  0.00     0.000 A 
ATOM     20  C   UNL d   1      50.404  34.135  52.422  0.00  0.00     0.000 A 
ATOM     21  C   UNL d   1      51.068  34.354  51.981  0.00  0.00     0.000 A 
ATOM     22  C   UNL d   1      51.813  34.369  52.334  0.00  0.00     0.002 A 
ENDBRANCH  16  17
ENDBRANCH   1  16
TORSDOF 4
ENDMDL
MODEL 2
REMARK VINA RESULT:      -8.9      0.741      3.630
REMARK  4 active torsions:
REMARK  status: ('A' for Active; 'I' for Inactive)
REMARK    1  A    between atoms: C_7  and  N_1 
REMARK    2  A    between atoms: N_6  and  C_2 
REMARK    3  A    between atoms: C_10  and  N_6 
REMARK    4  A    between atoms: C_12  and  C_7 
ROOT
ATOM      1  N   UNL d   1      53.692  32.571  53.805  0.00  0.00    -0.239 N 
ATOM      2  C   UNL d   1      53.045  33.727  53.543  0.00  0.00     0.151 A 
ATOM      3  C   UNL d   1      53.386  33.038  53.175  0.00  0.00     0.285 A 
ATOM      4  C   UNL d   1      53.530  32.986  54.550  0.00  0.00     0.269 A 
ATOM      5  C   UNL d   1      53.140  33.677  54.357  0.00  0.00     0.086 A 
ATOM      6  O   UNL d   1      53.386  32.934  52.499  0.00  0.00    -0.265 OA
ATOM      7  O   UNL d   1      53.747  32.669  55.096  0.00  0.00    -0.267 OA
ENDROOT
BRANCH   2   8
ATOM      8  N   UNL d   1      52.670  34.362  53.161  0.00  0.00    -0.181 N 
ATOM      9  O   UNL d   1      53.194  34.886  53.023  0.00  0.00    -0.080 OA
BRANCH   8  10
ATOM     10  C   UNL d   1      51.859  34.330  53.003  0.00  0.00     0.090 A 
ATOM     11  C   UNL d   1      51.300  34.465  53.602  0.00  0.00     0.020 A 
ATOM     12  C   UNL d   1      50.483  34.431  53.433  0.00  0.00     0.002 A 
ATOM     13  C   UNL d   1      50.210  34.261  52.667  0.00  0.00     0.000 A 
ATOM     14  C   UNL d   1      50.770  34.125  52.070  0.00  0.00     0.002 A 
ATOM     15  C   UNL d   1      51.584  34.158  52.231  0.00  0.00     0.020 A 
ENDBRANCH   8  10
ENDBRANCH   2   8
BRANCH   1  16
ATOM     16  C   UNL d   1      54.063  31.887  53.822  0.00  0.00     0.086 C 
BRANCH  16  17
ATOM     17  C   UNL d   1      53.663  31.196  53.669  0.00  0.00     0.018 A 
ATOM     18  C   UNL d   1      53.397  30.739  54.288  0.00  0.00     0.002 A 
ATOM     19  C   UNL d   1      52.997  30.048  54.135  0.00  0.00     0.000 A 
ATOM     20  C   UNL d   1      52.862  29.812  53.376  0.00  0.00     0.000 A 
ATOM     21  C   UNL d   1      53.132  30.276  52.748  0.00  0.00     0.000 A 
ATOM     22  C   UNL d   1      53.538  30.977  52.897  0.00  0.00     0.002 A 
ENDBRANCH  16  17
ENDBRANCH   1  16
TORSDOF 4
ENDMDL
MODEL 3
REMARK VINA RESULT:      -8.6      1.373      2.495
REMARK  4 active torsions:
REMARK  status: ('A' for Active; 'I' for Inactive)
REMARK    1  A    between atoms: C_7  and  N_1 
REMARK    2  A    between atoms: N_6  and  C_2 
REMARK    3  A    between atoms: C_10  and  N_6 
REMARK    4  A    between atoms: C_12  and  C_7 
ROOT
ATOM      1  N   UNL d   1      53.206  32.894  53.442  0.00  0.00    -0.239 N 
ATOM      2  C   UNL d   1      52.908  31.640  53.039  0.00  0.00     0.151 A 
ATOM      3  C   UNL d   1      53.554  32.182  53.158  0.00  0.00     0.285 A 
ATOM      4  C   UNL d   1      52.347  32.772  53.491  0.00  0.00     0.269 A 
ATOM      5  C   UNL d   1      52.202  32.007  53.242  0.00  0.00     0.086 A 
ATOM      6  O   UNL d   1      54.208  32.022  53.033  0.00  0.00    -0.265 OA
ATOM      7  O   UNL d   1      52.005  33.301  53.711  0.00  0.00    -0.267 OA
ENDROOT
BRANCH   2   8
ATOM      8  N   UNL d   1      52.958  30.858  52.763  0.00  0.00    -0.181 N 
ATOM      9  O   UNL d   1      52.957  30.883  52.010  0.00  0.00    -0.080 OA
BRANCH   8  10
ATOM     10  C   UNL d   1      52.997  30.231  53.300  0.00  0.00     0.090 A 
ATOM     11  C   UNL d   1      53.720  29.998  53.635  0.00  0.00     0.020 A 
ATOM     12  C   UNL d   1      53.750  29.363  54.176  0.00  0.00     0.002 A 
ATOM     13  C   UNL d   1      53.062  28.951  54.393  0.00  0.00     0.000 A 
ATOM     14  C   UNL d   1      52.340  29.186  54.057  0.00  0.00     0.002 A 
ATOM     15  C   UNL d   1      52.303  29.816  53.518  0.00  0.00     0.020 A 
ENDBRANCH   8  10
ENDBRANCH   2   8
BRANCH   1  16
ATOM     16  C   UNL d   1      53.505  33.582  53.649  0.00  0.00     0.086 C 
BRANCH  16  17
ATOM     17  C   UNL d   1      54.041  33.634  54.258  0.00  0.00     0.018 A 
ATOM     18  C   UNL d   1      53.781  33.581  55.028  0.00  0.00     0.002 A 
ATOM     19  C   UNL d   1      54.316  33.632  55.637  0.00  0.00     0.000 A 
ATOM     20  C   UNL d   1      55.102  33.735  55.486  0.00  0.00     0.000 A 
ATOM     21  C   UNL d   1      55.365  33.789  54.704  0.00  0.00     0.000 A 
ATOM     22  C   UNL d   1      54.826  33.737  54.082  0.00  0.00     0.002 A 
ENDBRANCH  16  17
ENDBRANCH   1  16
TORSDOF 4
ENDMDL
MODEL 4
REMARK VINA RESULT:      -8.4      1.556      4.052
REMARK  4 active torsions:
REMARK  status: ('A' for Active; 'I' for Inactive)
REMARK    1  A    between atoms: C_7  and  N_1 
REMARK    2  A    between atoms: N_6  and  C_2 
REMARK    3  A    between atoms: C_10  and  N_6 
REMARK    4  A    between atoms: C_12  and  C_7 
ROOT
ATOM      1  N   UNL d   1      52.891  33.023  53.774  0.00  0.00    -0.239 N 
ATOM      2  C   UNL d   1      52.204  33.800  52.910  0.00  0.00     0.151 A 
ATOM      3  C   UNL d   1      52.602  33.806  53.663  0.00  0.00     0.285 A 
ATOM      4  C   UNL d   1      52.662  32.551  53.082  0.00  0.00     0.269 A 
ATOM      5  C   UNL d   1      52.250  33.049  52.582  0.00  0.00     0.086 A 
ATOM      6  O   UNL d   1      52.650  34.361  54.060  0.00  0.00    -0.265 OA
ATOM      7  O   UNL d   1      52.860  31.914  53.103  0.00  0.00    -0.267 OA
ENDROOT
BRANCH   2   8
ATOM      8  N   UNL d   1      51.822  34.440  52.544  0.00  0.00    -0.181 N 
ATOM      9  O   UNL d   1      52.347  34.956  52.382  0.00  0.00    -0.080 OA
BRANCH   8  10
ATOM     10  C   UNL d   1      51.004  34.420  52.422  0.00  0.00     0.090 A 
ATOM     11  C   UNL d   1      50.475  34.584  53.040  0.00  0.00     0.020 A 
ATOM     12  C   UNL d   1      49.651  34.561  52.908  0.00  0.00     0.002 A 
ATOM     13  C   UNL d   1      49.341  34.375  52.159  0.00  0.00     0.000 A 
ATOM     14  C   UNL d   1      49.872  34.212  51.543  0.00  0.00     0.002 A 
ATOM     15  C   UNL d   1      50.693  34.232  51.667  0.00  0.00     0.020 A 
ENDBRANCH   8  10
ENDBRANCH   2   8
BRANCH   1  16
ATOM     16  C   UNL d   1      53.295  32.686  54.349  0.00  0.00     0.086 C 
BRANCH  16  17
ATOM     17  C   UNL d   1      53.999  33.004  54.600  0.00  0.00     0.018 A 
ATOM     18  C   UNL d   1      54.639  33.016  54.096  0.00  0.00     0.002 A 
ATOM     19  C   UNL d   1      55.343  33.334  54.347  0.00  0.00     0.000 A 
ATOM     20  C   UNL d   1      55.414  33.638  55.091  0.00  0.00     0.000 A 
ATOM     21  C   UNL d   1      54.765  33.626  55.602  0.00  0.00     0.000 A 
ATOM     22  C   UNL d   1      54.048  33.305  55.352  0.00  0.00     0.002 A 
ENDBRANCH  16  17
ENDBRANCH   1  16
TORSDOF 4
ENDMDL
MODEL 5
REMARK VINA RESULT:      -8.2      1.280      2.433
REMARK  4 active torsions:
REMARK  status: ('A' for Active; 'I' for Inactive)
REMARK    1  A    between atoms: C_7  and  N_1 
REMARK    2  A    between atoms: N_6  and  C_2 
REMARK    3  A    between atoms: C_10  and  N_6 
REMARK    4  A    between atoms: C_12  and  C_7 
ROOT
ATOM      1  N   UNL d   1      52.587  32.509  52.781  0.00  0.00    -0.239 N 
ATOM      2  C   UNL d   1      53.802  32.483  53.369  0.00  0.00     0.151 A 
ATOM      3  C   UNL d   1      53.275  32.974  52.914  0.00  0.00     0.285 A 
ATOM      4  C   UNL d   1      52.707  31.737  53.161  0.00  0.00     0.269 A 
ATOM      5  C   UNL d   1      53.448  31.755  53.505  0.00  0.00     0.086 A 
ATOM      6  O   UNL d   1      53.428  33.613  52.720  0.00  0.00    -0.265 OA
ATOM      7  O   UNL d   1      52.196  31.313  53.095  0.00  0.00    -0.267 OA
ENDROOT
BRANCH   2   8
ATOM      8  N   UNL d   1      54.559  32.686  53.644  0.00  0.00    -0.181 N 
ATOM      9  O   UNL d   1      55.053  32.500  53.107  0.00  0.00    -0.080 OA
BRANCH   8  10
ATOM     10  C   UNL d   1      54.650  33.028  54.392  0.00  0.00     0.090 A 
ATOM     11  C   UNL d   1      54.293  32.694  55.062  0.00  0.00     0.020 A 
ATOM     12  C   UNL d   1      54.391  33.047  55.813  0.00  0.00     0.002 A 
ATOM     13  C   UNL d   1      54.846  33.737  55.907  0.00  0.00     0.000 A 
ATOM     14  C   UNL d   1      55.202  34.068  55.235  0.00  0.00     0.002 A 
ATOM     15  C   UNL d   1      55.109  33.723  54.485  0.00  0.00     0.020 A 
ENDBRANCH   8  10
ENDBRANCH   2   8
BRANCH   1  16
ATOM     16  C   UNL d   1      51.919  32.649  52.406  0.00  0.00     0.086 C 
BRANCH  16  17
ATOM     17  C   UNL d   1      51.434  33.258  52.638  0.00  0.00     0.018 A 
ATOM     18  C   UNL d   1      50.992  33.185  53.318  0.00  0.00     0.002 A 
ATOM     19  C   UNL d   1      50.507  33.794  53.551  0.00  0.00     0.000 A 
ATOM     20  C   UNL d   1      50.460  34.470  53.114  0.00  0.00     0.000 A 
ATOM     21  C   UNL d   1      50.909  34.545  52.424  0.00  0.00     0.000 A 
ATOM     22  C   UNL d   1      51.402  33.930  52.183  0.00  0.00     0.002 A 
ENDBRANCH  16  17
ENDBRANCH   1  16
TORSDOF 4
ENDMDL
MODEL 6
REMARK VINA RESULT:      -8.1      1.569      4.025
REMARK  4 active torsions:
REMARK  status: ('A' for Active; 'I' for Inactive)
REMARK    1  A    between atoms: C_7  and  N_1 
REMARK    2  A    between atoms: N_6  and  C_2 
REMARK    3  A    between atoms: C_10  and  N_6 
REMARK    4  A    between atoms: C_12  and  C_7 
ROOT
ATOM      1  N   UNL d   1      53.131  31.054  53.160  0.00  0.00    -0.239 N 
ATOM      2  C   UNL d   1      53.568  32.322  53.311  0.00  0.00     0.151 A 
ATOM      3  C   UNL d   1      53.814  31.507  53.349  0.00  0.00     0.285 A 
ATOM      4  C   UNL d   1      52.476  31.603  53.009  0.00  0.00     0.269 A 
ATOM      5  C   UNL d   1      52.773  32.358  53.108  0.00  0.00     0.086 A 
ATOM      6  O   UNL d   1      54.451  31.313  53.506  0.00  0.00    -0.265 OA
ATOM      7  O   UNL d   1      51.898  31.309  52.851  0.00  0.00    -0.267 OA
ENDROOT
BRANCH   2   8
ATOM      8  N   UNL d   1      54.038  32.992  53.452  0.00  0.00    -0.181 N 
ATOM      9  O   UNL d   1      54.649  32.936  53.015  0.00  0.00    -0.080 OA
BRANCH   8  10
ATOM     10  C   UNL d   1      53.792  33.564  53.997  0.00  0.00     0.090 A 
ATOM     11  C   UNL d   1      53.972  33.493  54.803  0.00  0.00     0.020 A 
ATOM     12  C   UNL d   1      53.720  34.075  55.346  0.00  0.00     0.002 A 
ATOM     13  C   UNL d   1      53.284  34.737  55.093  0.00  0.00     0.000 A 
ATOM     14  C   UNL d   1      53.105  34.805  54.286  0.00  0.00     0.002 A 
ATOM     15  C   UNL d   1      53.353  34.230  53.741  0.00  0.00     0.020 A 
ENDBRANCH   8  10
ENDBRANCH   2   8
BRANCH   1  16
ATOM     16  C   UNL d   1      53.005  30.287  53.104  0.00  0.00     0.086 C 
BRANCH  16  17
ATOM     17  C   UNL d   1      53.130  29.800  53.743  0.00  0.00     0.018 A 
ATOM     18  C   UNL d   1      52.663  29.877  54.405  0.00  0.00     0.002 A 
ATOM     19  C   UNL d   1      52.788  29.391  55.044  0.00  0.00     0.000 A 
ATOM     20  C   UNL d   1      53.370  28.833  55.027  0.00  0.00     0.000 A 
ATOM     21  C   UNL d   1      53.844  28.755  54.355  0.00  0.00     0.000 A 
ATOM     22  C   UNL d   1      53.722  29.246  53.704  0.00  0.00     0.002 A 
ENDBRANCH  16  17
ENDBRANCH   1  16
TORSDOF 4
ENDMDL
