MODEL 1
REMARK VINA RESULT:     112.6      0.000      0.000
REMARK  2 active torsions:
REMARK  status: ('A' for Active; 'I' for Inactive)
REMARK    1  A    between atoms: C_6  and  C_1 
REMARK       I    between atoms: N_11  and  C_6 
REMARK    2  A    between atoms: C_13  and  N_11 
ROOT
ATOM      1  C   UNL d   1      61.536  45.878  50.042  0.00  0.00     0.108 A 
ATOM      2  C   UNL d   1      61.384  47.177  50.222  0.00  0.00     0.044 A 
ATOM      3  C   UNL d   1      61.095  46.800  50.896  0.00  0.00     0.112 A 
ATOM      4  S   UNL d   1      61.191  45.991  50.780  0.00  0.00    -0.061 SA
ATOM      5  C   UNL d   1      61.648  46.622  49.712  0.00  0.00     0.116 A 
ATOM      6  N   UNL d   1      60.780  47.241  51.528  0.00  0.00    -0.239 NA
ATOM      7  C   UNL d   1      61.058  48.438  50.787  0.00  0.00     0.057 A 
ATOM      8  C   UNL d   1      61.366  48.002  50.167  0.00  0.00     0.008 A 
ATOM      9  C   UNL d   1      60.768  48.062  51.460  0.00  0.00     0.085 A 
ATOM     10  C   UNL d   1      61.038  49.261  50.735  0.00  0.00     0.197 A 
ATOM     11  N   UNL d   1      62.020  46.922  48.869  0.00  0.00    -0.147 N 
ATOM     12  O   UNL d   1      61.396  49.707  49.905  0.00  0.00    -0.286 OA
ATOM     13  C   UNL d   1      60.459  48.509  52.080  0.00  0.00     0.019 A 
ATOM     14  C   UNL d   1      60.731  49.699  51.351  0.00  0.00     0.042 A 
ATOM     15  C   UNL d   1      60.441  49.323  52.025  0.00  0.00     0.005 A 
ENDROOT
BRANCH   1  16
ATOM     16  C   UNL d   1      61.783  45.038  49.603  0.00  0.00     0.287 C 
ATOM     17  N   UNL d   1      61.916  44.083  49.747  0.00  0.00    -0.205 NA
ATOM     18  O   UNL d   1      61.921  45.251  48.834  0.00  0.00    -0.265 OA
BRANCH  17  19
ATOM     19  C   UNL d   1      61.799  43.729  50.532  0.00  0.00     0.112 A 
ATOM     20  C   UNL d   1      62.307  43.075  50.789  0.00  0.00     0.158 A 
ATOM     21  F   UNL d   1      63.157  42.477  50.391  0.00  0.00    -0.203 F 
ATOM     22  C   UNL d   1      62.185  42.715  51.594  0.00  0.00     0.031 A 
ATOM     23  C   UNL d   1      61.554  43.021  52.119  0.00  0.00     0.002 A 
ATOM     24  C   UNL d   1      61.046  43.683  51.849  0.00  0.00     0.002 A 
ATOM     25  C   UNL d   1      61.157  44.047  51.057  0.00  0.00     0.021 A 
ENDBRANCH  17  19
ENDBRANCH   1  16
TORSDOF 2
ENDMDL
