MODEL 1
REMARK VINA RESULT:       9.6      0.000      0.000
REMARK  3 active torsions:
REMARK  status: ('A' for Active; 'I' for Inactive)
REMARK    1  A    between atoms: S_10  and  C_6 
REMARK    2  A    between atoms: C_13  and  S_10 
REMARK    3  A    between atoms: C_14  and  C_13 
ROOT
ATOM      1  C   UNL d   1      46.414 -18.398  43.530  0.00  0.00     0.141 A 
ATOM      2  O   UNL d   1      46.460 -18.116  42.756  0.00  0.00    -0.303 OA
ATOM      3  C   UNL d   1      46.451 -19.224  43.506  0.00  0.00     0.110 A 
ATOM      4  C   UNL d   1      46.519 -19.451  42.719  0.00  0.00     0.043 A 
ATOM      5  C   UNL d   1      46.525 -18.771  42.251  0.00  0.00     0.102 A 
ATOM      6  C   UNL d   1      46.344 -18.009  44.249  0.00  0.00     0.137 A 
ATOM      7  N   UNL d   1      46.310 -18.445  44.954  0.00  0.00    -0.215 NA
ATOM      8  N   UNL d   1      46.417 -19.652  44.208  0.00  0.00    -0.222 NA
ATOM      9  C   UNL d   1      46.347 -19.263  44.928  0.00  0.00     0.200 A 
ATOM     10  C   UNL d   1      46.577 -20.198  42.365  0.00  0.00     0.004 A 
ATOM     11  C   UNL d   1      46.589 -18.830  41.428  0.00  0.00     0.025 A 
ATOM     12  C   UNL d   1      46.641 -20.258  41.542  0.00  0.00     0.000 A 
ATOM     13  C   UNL d   1      46.647 -19.577  41.079  0.00  0.00     0.002 A 
ENDROOT
BRANCH   6  14
ATOM     14  S   UNL d   1      46.307 -17.180  44.281  0.00  0.00    -0.065 SA
BRANCH  14  15
ATOM     15  C   UNL d   1      45.778 -16.816  44.800  0.00  0.00     0.037 C 
BRANCH  15  16
ATOM     16  C   UNL d   1      45.758 -15.995  44.861  0.00  0.00     0.007 C 
ATOM     17  C   UNL d   1      45.051 -15.596  44.721  0.00  0.00     0.001 C 
ENDBRANCH  15  16
ENDBRANCH  14  15
ENDBRANCH   6  14
TORSDOF 3
ENDMDL
