MODEL 1
REMARK VINA RESULT:      -9.1      0.000      0.000
REMARK  5 active torsions:
REMARK  status: ('A' for Active; 'I' for Inactive)
REMARK       I    between atoms: N_2  and  C_5 
REMARK    1  A    between atoms: C_3  and  N_2 
REMARK    2  A    between atoms: C_14  and  C_4 
REMARK    3  A    between atoms: C_5  and  C_13 
REMARK    4  A    between atoms: C_17  and  C_6 
REMARK    5  A    between atoms: C_13  and  C_14 
ROOT
ATOM      1  N   UNL d   1      52.898  33.463  53.066  0.00  0.00    -0.208 NA
ATOM      2  C   UNL d   1      52.618  32.740  52.812  0.00  0.00     0.279 C 
ATOM      3  O   UNL d   1      52.031  32.703  52.226  0.00  0.00    -0.265 OA
ENDROOT
BRANCH   2   4
ATOM      4  C   UNL d   1      52.919  32.043  53.136  0.00  0.00     0.065 C 
BRANCH   4   5
ATOM      5  C   UNL d   1      52.584  31.315  52.938  0.00  0.00     0.030 C 
BRANCH   5   6
ATOM      6  C   UNL d   1      52.871  30.625  53.277  0.00  0.00     0.100 A 
ATOM      7  O   UNL d   1      52.846  30.423  54.084  0.00  0.00    -0.307 OA
ATOM      8  C   UNL d   1      53.192  29.689  54.175  0.00  0.00     0.100 A 
ATOM      9  C   UNL d   1      53.435  29.424  53.433  0.00  0.00     0.027 A 
ATOM     10  C   UNL d   1      53.235  30.004  52.883  0.00  0.00     0.027 A 
BRANCH   8  11
ATOM     11  C   UNL d   1      53.280  29.288  54.886  0.00  0.00     0.025 C 
ATOM     12  C   UNL d   1      53.423  28.472  54.885  0.00  0.00     0.002 C 
ENDBRANCH   8  11
ENDBRANCH   5   6
ENDBRANCH   4   5
ENDBRANCH   2   4
BRANCH   1  13
ATOM     13  C   UNL d   1      53.482  33.500  53.649  0.00  0.00     0.085 A 
ATOM     14  C   UNL d   1      53.332  33.898  54.353  0.00  0.00     0.018 A 
ATOM     15  C   UNL d   1      53.914  33.933  54.932  0.00  0.00     0.002 A 
ATOM     16  C   UNL d   1      52.597  34.259  54.473  0.00  0.00     0.002 C 
ATOM     17  C   UNL d   1      54.644  33.571  54.804  0.00  0.00     0.000 A 
ATOM     18  C   UNL d   1      54.794  33.173  54.101  0.00  0.00     0.002 A 
ATOM     19  C   UNL d   1      55.231  33.607  55.391  0.00  0.00     0.000 C 
ATOM     20  C   UNL d   1      54.201  33.140  53.518  0.00  0.00     0.019 A 
ENDBRANCH   1  13
TORSDOF 5
ENDMDL
MODEL 2
REMARK VINA RESULT:      -8.8      1.416      2.319
REMARK  5 active torsions:
REMARK  status: ('A' for Active; 'I' for Inactive)
REMARK       I    between atoms: N_2  and  C_5 
REMARK    1  A    between atoms: C_3  and  N_2 
REMARK    2  A    between atoms: C_14  and  C_4 
REMARK    3  A    between atoms: C_5  and  C_13 
REMARK    4  A    between atoms: C_17  and  C_6 
REMARK    5  A    between atoms: C_13  and  C_14 
ROOT
ATOM      1  N   UNL d   1      53.150  33.911  54.400  0.00  0.00    -0.208 NA
ATOM      2  C   UNL d   1      53.572  33.215  54.466  0.00  0.00     0.279 C 
ATOM      3  O   UNL d   1      54.192  33.154  55.013  0.00  0.00    -0.265 OA
ENDROOT
BRANCH   2   4
ATOM      4  C   UNL d   1      53.382  32.569  53.988  0.00  0.00     0.065 C 
BRANCH   4   5
ATOM      5  C   UNL d   1      53.912  31.942  53.908  0.00  0.00     0.030 C 
BRANCH   5   6
ATOM      6  C   UNL d   1      53.639  31.196  53.698  0.00  0.00     0.100 A 
ATOM      7  O   UNL d   1      53.456  30.574  54.218  0.00  0.00    -0.307 OA
ATOM      8  C   UNL d   1      53.205  29.935  53.774  0.00  0.00     0.100 A 
ATOM      9  C   UNL d   1      53.229  30.149  52.978  0.00  0.00     0.027 A 
ATOM     10  C   UNL d   1      53.497  30.927  52.936  0.00  0.00     0.027 A 
BRANCH   8  11
ATOM     11  C   UNL d   1      52.971  29.208  54.075  0.00  0.00     0.025 C 
ATOM     12  C   UNL d   1      53.408  28.854  54.683  0.00  0.00     0.002 C 
ENDBRANCH   8  11
ENDBRANCH   5   6
ENDBRANCH   4   5
ENDBRANCH   2   4
BRANCH   1  13
ATOM     13  C   UNL d   1      52.532  33.970  53.855  0.00  0.00     0.085 A 
ATOM     14  C   UNL d   1      52.566  34.539  53.262  0.00  0.00     0.018 A 
ATOM     15  C   UNL d   1      51.951  34.597  52.720  0.00  0.00     0.002 A 
ATOM     16  C   UNL d   1      53.217  35.048  53.214  0.00  0.00     0.002 C 
ATOM     17  C   UNL d   1      51.305  34.087  52.773  0.00  0.00     0.000 A 
ATOM     18  C   UNL d   1      51.271  33.518  53.366  0.00  0.00     0.002 A 
ATOM     19  C   UNL d   1      50.684  34.147  52.225  0.00  0.00     0.000 C 
ATOM     20  C   UNL d   1      51.897  33.463  53.912  0.00  0.00     0.019 A 
ENDBRANCH   1  13
TORSDOF 5
ENDMDL
MODEL 3
REMARK VINA RESULT:      -8.6      1.625      3.367
REMARK  5 active torsions:
REMARK  status: ('A' for Active; 'I' for Inactive)
REMARK       I    between atoms: N_2  and  C_5 
REMARK    1  A    between atoms: C_3  and  N_2 
REMARK    2  A    between atoms: C_14  and  C_4 
REMARK    3  A    between atoms: C_5  and  C_13 
REMARK    4  A    between atoms: C_17  and  C_6 
REMARK    5  A    between atoms: C_13  and  C_14 
ROOT
ATOM      1  N   UNL d   1      53.736  31.551  53.606  0.00  0.00    -0.208 NA
ATOM      2  C   UNL d   1      53.095  31.677  53.117  0.00  0.00     0.279 C 
ATOM      3  O   UNL d   1      52.753  31.041  52.708  0.00  0.00    -0.265 OA
ENDROOT
BRANCH   2   4
ATOM      4  C   UNL d   1      52.786  32.436  53.027  0.00  0.00     0.065 C 
BRANCH   4   5
ATOM      5  C   UNL d   1      52.131  32.563  52.541  0.00  0.00     0.030 C 
BRANCH   5   6
ATOM      6  C   UNL d   1      51.710  33.266  52.592  0.00  0.00     0.100 A 
ATOM      7  O   UNL d   1      51.054  33.415  53.080  0.00  0.00    -0.307 OA
ATOM      8  C   UNL d   1      50.810  34.184  52.954  0.00  0.00     0.100 A 
ATOM      9  C   UNL d   1      51.307  34.524  52.390  0.00  0.00     0.027 A 
ATOM     10  C   UNL d   1      51.860  33.955  52.170  0.00  0.00     0.027 A 
BRANCH   8  11
ATOM     11  C   UNL d   1      50.178  34.551  53.328  0.00  0.00     0.025 C 
ATOM     12  C   UNL d   1      49.581  34.906  52.876  0.00  0.00     0.002 C 
ENDBRANCH   8  11
ENDBRANCH   5   6
ENDBRANCH   4   5
ENDBRANCH   2   4
BRANCH   1  13
ATOM     13  C   UNL d   1      54.077  32.185  54.013  0.00  0.00     0.085 A 
ATOM     14  C   UNL d   1      54.001  32.232  54.830  0.00  0.00     0.018 A 
ATOM     15  C   UNL d   1      54.340  32.863  55.234  0.00  0.00     0.002 A 
ATOM     16  C   UNL d   1      53.585  31.647  55.240  0.00  0.00     0.002 C 
ATOM     17  C   UNL d   1      54.754  33.443  54.818  0.00  0.00     0.000 A 
ATOM     18  C   UNL d   1      54.830  33.396  54.001  0.00  0.00     0.002 A 
ATOM     19  C   UNL d   1      55.096  34.080  55.227  0.00  0.00     0.000 C 
ATOM     20  C   UNL d   1      54.484  32.755  53.597  0.00  0.00     0.019 A 
ENDBRANCH   1  13
TORSDOF 5
ENDMDL
MODEL 4
REMARK VINA RESULT:      -8.3      1.961      3.970
REMARK  5 active torsions:
REMARK  status: ('A' for Active; 'I' for Inactive)
REMARK       I    between atoms: N_2  and  C_5 
REMARK    1  A    between atoms: C_3  and  N_2 
REMARK    2  A    between atoms: C_14  and  C_4 
REMARK    3  A    between atoms: C_5  and  C_13 
REMARK    4  A    between atoms: C_17  and  C_6 
REMARK    5  A    between atoms: C_13  and  C_14 
ROOT
ATOM      1  N   UNL d   1      54.109  33.633  54.613  0.00  0.00    -0.208 NA
ATOM      2  C   UNL d   1      53.597  34.237  54.416  0.00  0.00     0.279 C 
ATOM      3  O   UNL d   1      53.711  34.997  54.729  0.00  0.00    -0.265 OA
ENDROOT
BRANCH   2   4
ATOM      4  C   UNL d   1      52.965  34.094  53.906  0.00  0.00     0.065 C 
BRANCH   4   5
ATOM      5  C   UNL d   1      52.522  34.723  53.606  0.00  0.00     0.030 C 
BRANCH   5   6
ATOM      6  C   UNL d   1      51.881  34.578  53.115  0.00  0.00     0.100 A 
ATOM      7  O   UNL d   1      51.079  34.577  53.337  0.00  0.00    -0.307 OA
ATOM      8  C   UNL d   1      50.631  34.407  52.675  0.00  0.00     0.100 A 
ATOM      9  C   UNL d   1      51.142  34.301  52.037  0.00  0.00     0.027 A 
ATOM     10  C   UNL d   1      51.911  34.408  52.313  0.00  0.00     0.027 A 
BRANCH   8  11
ATOM     11  C   UNL d   1      49.812  34.353  52.655  0.00  0.00     0.025 C 
ATOM     12  C   UNL d   1      49.408  34.463  51.941  0.00  0.00     0.002 C 
ENDBRANCH   8  11
ENDBRANCH   5   6
ENDBRANCH   4   5
ENDBRANCH   2   4
BRANCH   1  13
ATOM     13  C   UNL d   1      53.995  32.876  54.301  0.00  0.00     0.085 A 
ATOM     14  C   UNL d   1      54.529  32.578  53.751  0.00  0.00     0.018 A 
ATOM     15  C   UNL d   1      54.415  31.825  53.441  0.00  0.00     0.002 A 
ATOM     16  C   UNL d   1      55.175  33.035  53.513  0.00  0.00     0.002 C 
ATOM     17  C   UNL d   1      53.768  31.374  53.683  0.00  0.00     0.000 A 
ATOM     18  C   UNL d   1      53.234  31.672  54.233  0.00  0.00     0.002 A 
ATOM     19  C   UNL d   1      53.654  30.613  53.370  0.00  0.00     0.000 C 
ATOM     20  C   UNL d   1      53.355  32.435  54.543  0.00  0.00     0.019 A 
ENDBRANCH   1  13
TORSDOF 5
ENDMDL
