MODEL 1
REMARK VINA RESULT:      -6.1      0.000      0.000
REMARK  2 active torsions:
REMARK  status: ('A' for Active; 'I' for Inactive)
REMARK    1  A    between atoms: CA_3  and  C_1 
REMARK    2  A    between atoms: C_2  and  CA_3 
ROOT
ATOM      1  C   UNL d   1     -47.778  13.039  22.659  0.00  0.00     0.026 A 
ATOM      2  C   UNL d   1     -48.112  12.581  23.266  0.00  0.00     0.013 A 
ATOM      3  C   UNL d   1     -48.699  12.031  23.093  0.00  0.00     0.058 A 
ATOM      4 CL   UNL d   1     -49.028  11.579  23.698  0.00  0.00    -0.082 Cl
ATOM      5  C   UNL d   1     -48.036  12.941  21.882  0.00  0.00     0.002 A 
ATOM      6  C   UNL d   1     -48.629  12.385  21.712  0.00  0.00     0.001 A 
ATOM      7  C   UNL d   1     -48.958  11.933  22.316  0.00  0.00     0.011 A 
ENDROOT
BRANCH   1   8
ATOM      8  CA  UNL d   1     -47.188  13.590  22.836  0.00  0.00     0.167 C 
ATOM      9  N   UNL d   1     -47.381  14.381  22.947  0.00  0.00    -0.142 N 
BRANCH   8  10
ATOM     10  C   UNL d   1     -46.404  13.343  22.900  0.00  0.00     0.231 C 
ATOM     11  O   UNL d   1     -45.933  13.258  22.231  0.00  0.00    -0.643 OA
ATOM     12  OXT UNL d   1     -46.082  13.179  23.646  0.00  0.00    -0.643 OA
ENDBRANCH   8  10
ENDBRANCH   1   8
TORSDOF 2
ENDMDL
MODEL 2
REMARK VINA RESULT:      -6.1      2.252      2.878
REMARK  2 active torsions:
REMARK  status: ('A' for Active; 'I' for Inactive)
REMARK    1  A    between atoms: CA_3  and  C_1 
REMARK    2  A    between atoms: C_2  and  CA_3 
ROOT
ATOM      1  C   UNL d   1     -48.110  12.016  23.112  0.00  0.00     0.026 A 
ATOM      2  C   UNL d   1     -47.758  12.764  23.028  0.00  0.00     0.013 A 
ATOM      3  C   UNL d   1     -46.983  12.885  23.279  0.00  0.00     0.058 A 
ATOM      4 CL   UNL d   1     -46.637  13.628  23.194  0.00  0.00    -0.082 Cl
ATOM      5  C   UNL d   1     -47.682  11.396  23.447  0.00  0.00     0.002 A 
ATOM      6  C   UNL d   1     -46.900  11.523  23.698  0.00  0.00     0.001 A 
ATOM      7  C   UNL d   1     -46.555  12.265  23.614  0.00  0.00     0.011 A 
ENDROOT
BRANCH   1   8
ATOM      8  CA  UNL d   1     -48.888  11.897  22.860  0.00  0.00     0.167 C 
ATOM      9  N   UNL d   1     -49.058  11.829  22.058  0.00  0.00    -0.142 N 
BRANCH   8  10
ATOM     10  C   UNL d   1     -49.495  11.846  23.417  0.00  0.00     0.231 C 
ATOM     11  O   UNL d   1     -49.865  12.525  23.698  0.00  0.00    -0.643 OA
ATOM     12  OXT UNL d   1     -49.737  11.106  23.698  0.00  0.00    -0.643 OA
ENDBRANCH   8  10
ENDBRANCH   1   8
TORSDOF 2
ENDMDL
