MODEL 1
REMARK VINA RESULT:      39.1      0.000      0.000
REMARK  4 active torsions:
REMARK  status: ('A' for Active; 'I' for Inactive)
REMARK    1  A    between atoms: C_3  and  N_5 
REMARK    2  A    between atoms: S_13  and  C_4 
REMARK       I    between atoms: N_5  and  C_12 
REMARK    3  A    between atoms: C_12  and  C_18 
REMARK    4  A    between atoms: C_18  and  S_13 
ROOT
ATOM      1  N   UNL d   1     -57.074 -98.780 -43.832  0.00  0.00    -0.238 NA
ATOM      2  C   UNL d   1     -56.846 -98.772 -45.244  0.00  0.00     0.092 A 
ATOM      3  C   UNL d   1     -56.534 -98.776 -44.481  0.00  0.00     0.120 A 
ATOM      4  C   UNL d   1     -56.340 -98.767 -45.923  0.00  0.00     0.103 C 
ATOM      5  C   UNL d   1     -57.872 -98.781 -43.934  0.00  0.00     0.082 A 
ATOM      6  N   UNL d   1     -55.838 -98.762 -46.587  0.00  0.00    -0.191 NA
ATOM      7  C   UNL d   1     -57.702 -98.773 -45.367  0.00  0.00     0.014 A 
ATOM      8  C   UNL d   1     -58.184 -98.778 -44.697  0.00  0.00     0.018 A 
ATOM      9  C   UNL d   1     -58.285 -98.786 -43.225  0.00  0.00     0.019 A 
ATOM     10  C   UNL d   1     -58.989 -98.778 -44.949  0.00  0.00     0.002 A 
ATOM     11  C   UNL d   1     -59.086 -98.789 -43.091  0.00  0.00     0.002 A 
ATOM     12  C   UNL d   1     -59.656 -98.782 -44.487  0.00  0.00     0.000 A 
ATOM     13  C   UNL d   1     -59.690 -98.787 -43.623  0.00  0.00     0.000 A 
ENDROOT
BRANCH   3  14
ATOM     14  S   UNL d   1     -55.713 -98.775 -44.388  0.00  0.00    -0.062 SA
BRANCH  14  15
ATOM     15  C   UNL d   1     -55.365 -99.369 -43.934  0.00  0.00     0.099 C 
BRANCH  15  16
ATOM     16  C   UNL d   1     -55.163-100.072 -44.297  0.00  0.00     0.288 C 
ATOM     17  N   UNL d   1     -55.409-100.768 -43.928  0.00  0.00    -0.182 NA
ATOM     18  O   UNL d   1     -54.735-100.106 -45.001  0.00  0.00    -0.265 OA
BRANCH  17  19
ATOM     19  C   UNL d   1     -55.205-101.482 -44.294  0.00  0.00     0.197 A 
ATOM     20  N   UNL d   1     -55.076-101.663 -45.068  0.00  0.00    -0.219 NA
ATOM     21  C   UNL d   1     -54.893-102.438 -45.141  0.00  0.00     0.108 A 
ATOM     22  C   UNL d   1     -54.903-102.778 -44.382  0.00  0.00     0.059 A 
ATOM     23  S   UNL d   1     -55.096-102.183 -43.866  0.00  0.00    -0.046 SA
ENDBRANCH  17  19
ENDBRANCH  15  16
ENDBRANCH  14  15
ENDBRANCH   3  14
TORSDOF 4
ENDMDL
