MODEL 1
REMARK VINA RESULT:      -6.5      0.000      0.000
REMARK  9 active torsions:
REMARK  status: ('A' for Active; 'I' for Inactive)
REMARK    1  A    between atoms: N_2  and  S_1 
REMARK    2  A    between atoms: C_5  and  S_1 
REMARK    3  A    between atoms: C_15  and  C_3 
REMARK       I    between atoms: C_4  and  N_11 
REMARK    4  A    between atoms: C_7  and  C_4 
REMARK       I    between atoms: N_22  and  C_7 
REMARK    5  A    between atoms: N_8  and  C_28 
REMARK    6  A    between atoms: N_11  and  C_15 
REMARK    7  A    between atoms: C_30  and  N_22 
REMARK    8  A    between atoms: C_28  and  C_29 
REMARK    9  A    between atoms: C_29  and  C_30 
ROOT
ATOM      1  N   UNL d   1      53.071  31.911  53.394  0.00  0.00    -0.207 N 
ATOM      2  C   UNL d   1      52.455  32.184  52.928  0.00  0.00     0.197 A 
ATOM      3  O   UNL d   1      52.075  31.546  52.571  0.00  0.00    -0.285 OA
ATOM      4  C   UNL d   1      53.080  31.084  53.330  0.00  0.00     0.120 A 
ATOM      5  C   UNL d   1      52.465  30.851  52.822  0.00  0.00     0.144 A 
ENDROOT
BRANCH   2   6
ATOM      6  C   UNL d   1      52.242  32.975  52.827  0.00  0.00     0.146 C 
BRANCH   6   7
ATOM      7  N   UNL d   1      52.200  33.303  52.074  0.00  0.00    -0.199 NA
ATOM      8  C   UNL d   1      51.730  33.962  51.942  0.00  0.00     0.337 C 
ATOM      9  O   UNL d   1      51.688  34.290  51.188  0.00  0.00    -0.260 OA
BRANCH   8  10
ATOM     10  C   UNL d   1      51.297  34.299  52.559  0.00  0.00     0.337 C 
ATOM     11  O   UNL d   1      51.693  34.617  53.206  0.00  0.00    -0.260 OA
ATOM     12  N   UNL d   1      50.487  34.319  52.530  0.00  0.00    -0.202 NA
BRANCH  12  13
ATOM     13  C   UNL d   1      50.048  34.656  53.146  0.00  0.00     0.104 C 
BRANCH  13  14
ATOM     14  C   UNL d   1      49.302  34.967  53.011  0.00  0.00     0.040 C 
BRANCH  14  15
ATOM     15  C   UNL d   1      48.959  35.480  53.540  0.00  0.00     0.083 C 
BRANCH  15  16
ATOM     16  N   UNL d   1      48.251  35.855  53.368  0.00  0.00    -0.285 N 
ATOM     17  C   UNL d   1      47.824  36.105  54.032  0.00  0.00     0.183 A 
ATOM     18  N   UNL d   1      47.130  36.469  53.776  0.00  0.00    -0.222 NA
ATOM     19  C   UNL d   1      47.125  36.447  52.949  0.00  0.00     0.120 A 
ATOM     20  C   UNL d   1      47.816  36.069  52.698  0.00  0.00     0.102 A 
ENDBRANCH  15  16
ENDBRANCH  14  15
ENDBRANCH  13  14
ENDBRANCH  12  13
ENDBRANCH   8  10
ENDBRANCH   6   7
ENDBRANCH   2   6
BRANCH   1  21
ATOM     21  S   UNL d   1      53.586  32.365  53.842  0.00  0.00     0.273 S 
ATOM     22  O   UNL d   1      53.033  32.393  54.448  0.00  0.00    -0.200 OA
ATOM     23  O   UNL d   1      54.139  32.336  53.236  0.00  0.00    -0.200 OA
BRANCH  21  24
ATOM     24  C   UNL d   1      54.102  32.819  54.291  0.00  0.00     0.104 A 
ATOM     25  C   UNL d   1      54.742  33.210  53.922  0.00  0.00     0.013 A 
ATOM     26  C   UNL d   1      55.259  33.665  54.371  0.00  0.00     0.007 A 
ATOM     27  C   UNL d   1      55.145  33.737  55.194  0.00  0.00     0.035 A 
ATOM     28  C   UNL d   1      54.509  33.348  55.554  0.00  0.00     0.007 A 
ATOM     29 BR   UNL d   1      55.661  34.193  55.648  0.00  0.00    -0.049 Br
ATOM     30  C   UNL d   1      53.994  32.894  55.105  0.00  0.00     0.013 A 
ENDBRANCH  21  24
ENDBRANCH   1  21
TORSDOF 9
ENDMDL
MODEL 2
REMARK VINA RESULT:      -4.9      2.798      5.410
REMARK  9 active torsions:
REMARK  status: ('A' for Active; 'I' for Inactive)
REMARK    1  A    between atoms: N_2  and  S_1 
REMARK    2  A    between atoms: C_5  and  S_1 
REMARK    3  A    between atoms: C_15  and  C_3 
REMARK       I    between atoms: C_4  and  N_11 
REMARK    4  A    between atoms: C_7  and  C_4 
REMARK       I    between atoms: N_22  and  C_7 
REMARK    5  A    between atoms: N_8  and  C_28 
REMARK    6  A    between atoms: N_11  and  C_15 
REMARK    7  A    between atoms: C_30  and  N_22 
REMARK    8  A    between atoms: C_28  and  C_29 
REMARK    9  A    between atoms: C_29  and  C_30 
ROOT
ATOM      1  N   UNL d   1      52.880  35.535  54.276  0.00  0.00    -0.207 N 
ATOM      2  C   UNL d   1      53.572  35.323  54.658  0.00  0.00     0.197 A 
ATOM      3  O   UNL d   1      53.902  35.986  55.019  0.00  0.00    -0.285 OA
ATOM      4  C   UNL d   1      52.769  36.348  54.399  0.00  0.00     0.120 A 
ATOM      5  C   UNL d   1      53.399  36.634  54.858  0.00  0.00     0.144 A 
ENDROOT
BRANCH   2   6
ATOM      6  C   UNL d   1      53.896  34.565  54.682  0.00  0.00     0.146 C 
BRANCH   6   7
ATOM      7  N   UNL d   1      54.464  34.370  55.245  0.00  0.00    -0.199 NA
ATOM      8  C   UNL d   1      54.901  33.682  55.163  0.00  0.00     0.337 C 
ATOM      9  O   UNL d   1      55.469  33.488  55.726  0.00  0.00    -0.260 OA
BRANCH   8  10
ATOM     10  C   UNL d   1      54.778  33.181  54.518  0.00  0.00     0.337 C 
ATOM     11  O   UNL d   1      55.122  33.359  53.792  0.00  0.00    -0.260 OA
ATOM     12  N   UNL d   1      54.321  32.515  54.596  0.00  0.00    -0.202 NA
BRANCH  12  13
ATOM     13  C   UNL d   1      54.194  32.009  53.953  0.00  0.00     0.104 C 
BRANCH  13  14
ATOM     14  C   UNL d   1      53.740  31.331  54.034  0.00  0.00     0.040 C 
BRANCH  14  15
ATOM     15  C   UNL d   1      53.520  30.894  53.385  0.00  0.00     0.083 C 
BRANCH  15  16
ATOM     16  N   UNL d   1      53.167  30.159  53.469  0.00  0.00    -0.285 N 
ATOM     17  C   UNL d   1      52.545  30.013  52.943  0.00  0.00     0.183 A 
ATOM     18  N   UNL d   1      52.247  29.259  53.091  0.00  0.00    -0.222 NA
ATOM     19  C   UNL d   1      52.684  28.934  53.713  0.00  0.00     0.120 A 
ATOM     20  C   UNL d   1      53.252  29.488  53.946  0.00  0.00     0.102 A 
ENDBRANCH  15  16
ENDBRANCH  14  15
ENDBRANCH  13  14
ENDBRANCH  12  13
ENDBRANCH   8  10
ENDBRANCH   6   7
ENDBRANCH   2   6
BRANCH   1  21
ATOM     21  S   UNL d   1      52.383  35.040  53.851  0.00  0.00     0.273 S 
ATOM     22  O   UNL d   1      51.967  34.867  54.538  0.00  0.00    -0.200 OA
ATOM     23  O   UNL d   1      52.798  35.212  53.164  0.00  0.00    -0.200 OA
BRANCH  21  24
ATOM     24  C   UNL d   1      51.885  34.545  53.425  0.00  0.00     0.104 A 
ATOM     25  C   UNL d   1      51.970  34.481  52.596  0.00  0.00     0.013 A 
ATOM     26  C   UNL d   1      51.473  33.985  52.169  0.00  0.00     0.007 A 
ATOM     27  C   UNL d   1      50.883  33.546  52.563  0.00  0.00     0.035 A 
ATOM     28  C   UNL d   1      50.803  33.612  53.384  0.00  0.00     0.007 A 
ATOM     29 BR   UNL d   1      50.382  33.047  52.138  0.00  0.00    -0.049 Br
ATOM     30  C   UNL d   1      51.301  34.108  53.809  0.00  0.00     0.013 A 
ENDBRANCH  21  24
ENDBRANCH   1  21
TORSDOF 9
ENDMDL
MODEL 3
REMARK VINA RESULT:      -3.6      1.977      2.987
REMARK  9 active torsions:
REMARK  status: ('A' for Active; 'I' for Inactive)
REMARK    1  A    between atoms: N_2  and  S_1 
REMARK    2  A    between atoms: C_5  and  S_1 
REMARK    3  A    between atoms: C_15  and  C_3 
REMARK       I    between atoms: C_4  and  N_11 
REMARK    4  A    between atoms: C_7  and  C_4 
REMARK       I    between atoms: N_22  and  C_7 
REMARK    5  A    between atoms: N_8  and  C_28 
REMARK    6  A    between atoms: N_11  and  C_15 
REMARK    7  A    between atoms: C_30  and  N_22 
REMARK    8  A    between atoms: C_28  and  C_29 
REMARK    9  A    between atoms: C_29  and  C_30 
ROOT
ATOM      1  N   UNL d   1      54.540  33.234  54.590  0.00  0.00    -0.207 N 
ATOM      2  C   UNL d   1      54.238  33.990  54.670  0.00  0.00     0.197 A 
ATOM      3  O   UNL d   1      54.803  34.478  55.019  0.00  0.00    -0.285 OA
ATOM      4  C   UNL d   1      55.312  33.243  54.895  0.00  0.00     0.120 A 
ATOM      5  C   UNL d   1      55.482  34.010  55.162  0.00  0.00     0.144 A 
ENDROOT
BRANCH   2   6
ATOM      6  C   UNL d   1      53.484  34.235  54.439  0.00  0.00     0.146 C 
BRANCH   6   7
ATOM      7  N   UNL d   1      53.137  34.898  54.782  0.00  0.00    -0.199 NA
ATOM      8  C   UNL d   1      52.538  35.294  54.387  0.00  0.00     0.337 C 
ATOM      9  O   UNL d   1      52.191  35.958  54.729  0.00  0.00    -0.260 OA
BRANCH   8  10
ATOM     10  C   UNL d   1      52.279  35.034  53.647  0.00  0.00     0.337 C 
ATOM     11  O   UNL d   1      52.769  35.119  52.991  0.00  0.00    -0.260 OA
ATOM     12  N   UNL d   1      51.547  34.696  53.563  0.00  0.00    -0.202 NA
BRANCH  12  13
ATOM     13  C   UNL d   1      51.282  34.434  52.823  0.00  0.00     0.104 C 
BRANCH  13  14
ATOM     14  C   UNL d   1      50.482  34.412  52.645  0.00  0.00     0.040 C 
BRANCH  14  15
ATOM     15  C   UNL d   1      50.223  34.209  51.902  0.00  0.00     0.083 C 
BRANCH  15  16
ATOM     16  N   UNL d   1      49.481  34.432  51.638  0.00  0.00    -0.285 N 
ATOM     17  C   UNL d   1      49.309  34.204  50.860  0.00  0.00     0.183 A 
ATOM     18  N   UNL d   1      48.550  34.463  50.671  0.00  0.00    -0.222 NA
ATOM     19  C   UNL d   1      48.246  34.854  51.334  0.00  0.00     0.120 A 
ATOM     20  C   UNL d   1      48.820  34.835  51.929  0.00  0.00     0.102 A 
ENDBRANCH  15  16
ENDBRANCH  14  15
ENDBRANCH  13  14
ENDBRANCH  12  13
ENDBRANCH   8  10
ENDBRANCH   6   7
ENDBRANCH   2   6
BRANCH   1  21
ATOM     21  S   UNL d   1      54.156  32.584  54.270  0.00  0.00     0.273 S 
ATOM     22  O   UNL d   1      54.496  32.743  53.540  0.00  0.00    -0.200 OA
ATOM     23  O   UNL d   1      53.816  32.424  55.000  0.00  0.00    -0.200 OA
BRANCH  21  24
ATOM     24  C   UNL d   1      53.772  31.932  53.949  0.00  0.00     0.104 A 
ATOM     25  C   UNL d   1      53.685  31.865  53.120  0.00  0.00     0.013 A 
ATOM     26  C   UNL d   1      53.301  31.214  52.800  0.00  0.00     0.007 A 
ATOM     27  C   UNL d   1      52.997  30.620  53.299  0.00  0.00     0.035 A 
ATOM     28  C   UNL d   1      53.085  30.691  54.119  0.00  0.00     0.007 A 
ATOM     29 BR   UNL d   1      52.610  29.965  52.981  0.00  0.00    -0.049 Br
ATOM     30  C   UNL d   1      53.469  31.342  54.439  0.00  0.00     0.013 A 
ENDBRANCH  21  24
ENDBRANCH   1  21
TORSDOF 9
ENDMDL
