MODEL 1
REMARK VINA RESULT:      -3.6      0.000      0.000
REMARK  3 active torsions:
REMARK  status: ('A' for Active; 'I' for Inactive)
REMARK    1  A    between atoms: N_3  and  C_1 
REMARK       I    between atoms: C_5  and  N_3 
REMARK    2  A    between atoms: C_8  and  C_5 
REMARK       I    between atoms: C_11  and  N_12 
REMARK    3  A    between atoms: N_12  and  C_13 
ROOT
ATOM      1  C   UNL d   1      33.234  20.759 -21.816  0.00  0.00     0.197 A 
ATOM      2  N   UNL d   1      33.225  20.714 -22.635  0.00  0.00    -0.221 NA
ATOM      3  S   UNL d   1      33.241  20.001 -21.518  0.00  0.00    -0.047 SA
ATOM      4  C   UNL d   1      33.235  19.487 -22.151  0.00  0.00     0.051 A 
ATOM      5  C   UNL d   1      33.225  19.932 -22.848  0.00  0.00     0.090 A 
ATOM      6  C   UNL d   1      33.238  18.651 -22.179  0.00  0.00     0.027 A 
ATOM      7  C   UNL d   1      33.230  18.270 -22.908  0.00  0.00     0.085 A 
ATOM      8  C   UNL d   1      33.217  19.542 -23.575  0.00  0.00     0.021 A 
ATOM      9  C   UNL d   1      33.220  18.724 -23.619  0.00  0.00     0.021 A 
ENDROOT
BRANCH   1  10
ATOM     10  N   UNL d   1      33.237  21.449 -21.357  0.00  0.00    -0.182 NA
ATOM     11  C   UNL d   1      32.516  21.757 -21.113  0.00  0.00     0.287 C 
ATOM     12  O   UNL d   1      31.804  21.359 -21.337  0.00  0.00    -0.265 OA
BRANCH  11  13
ATOM     13  C   UNL d   1      32.486  22.429 -20.665  0.00  0.00     0.087 A 
ATOM     14  S   UNL d   1      32.751  22.597 -19.894  0.00  0.00    -0.082 SA
ATOM     15  C   UNL d   1      32.578  23.364 -19.715  0.00  0.00     0.036 A 
ATOM     16  C   UNL d   1      32.205  23.702 -20.353  0.00  0.00     0.008 A 
ATOM     17  C   UNL d   1      32.143  23.115 -20.961  0.00  0.00     0.012 A 
ENDBRANCH  11  13
ENDBRANCH   1  10
BRANCH   7  18
ATOM     18  N   UNL d   1      33.234  17.428 -22.919  0.00  0.00    -0.208 NA
ATOM     19  C   UNL d   1      32.621  17.017 -23.318  0.00  0.00     0.279 C 
ATOM     20  O   UNL d   1      32.622  16.184 -23.330  0.00  0.00    -0.265 OA
ATOM     21  C   UNL d   1      32.018  17.440 -23.697  0.00  0.00     0.068 C 
ENDBRANCH   7  18
TORSDOF 3
ENDMDL
MODEL 2
REMARK VINA RESULT:      -1.5      3.169      3.919
REMARK  3 active torsions:
REMARK  status: ('A' for Active; 'I' for Inactive)
REMARK    1  A    between atoms: N_3  and  C_1 
REMARK       I    between atoms: C_5  and  N_3 
REMARK    2  A    between atoms: C_8  and  C_5 
REMARK       I    between atoms: C_11  and  N_12 
REMARK    3  A    between atoms: N_12  and  C_13 
ROOT
ATOM      1  C   UNL d   1      33.236  23.159 -20.104  0.00  0.00     0.197 A 
ATOM      2  N   UNL d   1      33.238  22.396 -20.409  0.00  0.00    -0.221 NA
ATOM      3  S   UNL d   1      33.234  23.683 -20.728  0.00  0.00    -0.047 SA
ATOM      4  C   UNL d   1      33.236  23.247 -21.417  0.00  0.00     0.051 A 
ATOM      5  C   UNL d   1      33.239  22.445 -21.218  0.00  0.00     0.090 A 
ATOM      6  C   UNL d   1      33.236  23.487 -22.219  0.00  0.00     0.027 A 
ATOM      7  C   UNL d   1      33.238  22.918 -22.812  0.00  0.00     0.085 A 
ATOM      8  C   UNL d   1      33.241  21.880 -21.820  0.00  0.00     0.021 A 
ATOM      9  C   UNL d   1      33.241  22.100 -22.609  0.00  0.00     0.021 A 
ENDROOT
BRANCH   1  10
ATOM     10  N   UNL d   1      33.234  23.373 -19.304  0.00  0.00    -0.182 NA
ATOM     11  C   UNL d   1      32.793  22.920 -18.781  0.00  0.00     0.287 C 
ATOM     12  O   UNL d   1      32.360  22.256 -19.078  0.00  0.00    -0.265 OA
BRANCH  11  13
ATOM     13  C   UNL d   1      32.771  23.103 -17.994  0.00  0.00     0.087 A 
ATOM     14  S   UNL d   1      33.241  22.858 -17.353  0.00  0.00    -0.082 SA
ATOM     15  C   UNL d   1      32.977  23.213 -16.679  0.00  0.00     0.036 A 
ATOM     16  C   UNL d   1      32.343  23.686 -16.866  0.00  0.00     0.008 A 
ATOM     17  C   UNL d   1      32.206  23.622 -17.699  0.00  0.00     0.012 A 
ENDBRANCH  11  13
ENDBRANCH   1  10
BRANCH   7  18
ATOM     18  N   UNL d   1      33.238  23.176 -23.614  0.00  0.00    -0.208 NA
ATOM     19  C   UNL d   1      33.222  22.609 -24.231  0.00  0.00     0.279 C 
ATOM     20  O   UNL d   1      33.221  22.862 -25.025  0.00  0.00    -0.265 OA
ATOM     21  C   UNL d   1      33.206  21.801 -24.050  0.00  0.00     0.068 C 
ENDBRANCH   7  18
TORSDOF 3
ENDMDL
MODEL 3
REMARK VINA RESULT:      -0.8      1.332      1.678
REMARK  3 active torsions:
REMARK  status: ('A' for Active; 'I' for Inactive)
REMARK    1  A    between atoms: N_3  and  C_1 
REMARK       I    between atoms: C_5  and  N_3 
REMARK    2  A    between atoms: C_8  and  C_5 
REMARK       I    between atoms: C_11  and  N_12 
REMARK    3  A    between atoms: N_12  and  C_13 
ROOT
ATOM      1  C   UNL d   1      33.010  21.381 -21.143  0.00  0.00     0.197 A 
ATOM      2  N   UNL d   1      33.191  20.606 -20.940  0.00  0.00    -0.221 NA
ATOM      3  S   UNL d   1      32.836  21.403 -21.939  0.00  0.00    -0.047 SA
ATOM      4  C   UNL d   1      32.909  20.644 -22.229  0.00  0.00     0.051 A 
ATOM      5  C   UNL d   1      33.130  20.147 -21.606  0.00  0.00     0.090 A 
ATOM      6  C   UNL d   1      32.798  20.338 -22.999  0.00  0.00     0.027 A 
ATOM      7  C   UNL d   1      32.911  19.535 -23.136  0.00  0.00     0.085 A 
ATOM      8  C   UNL d   1      33.241  19.343 -21.752  0.00  0.00     0.021 A 
ATOM      9  C   UNL d   1      33.137  19.028 -22.501  0.00  0.00     0.021 A 
ENDROOT
BRANCH   1  10
ATOM     10  N   UNL d   1      33.002  22.036 -20.637  0.00  0.00    -0.182 NA
ATOM     11  C   UNL d   1      32.973  21.902 -19.827  0.00  0.00     0.287 C 
ATOM     12  O   UNL d   1      32.952  21.105 -19.544  0.00  0.00    -0.265 OA
BRANCH  11  13
ATOM     13  C   UNL d   1      32.964  22.521 -19.307  0.00  0.00     0.087 A 
ATOM     14  S   UNL d   1      32.761  23.323 -19.399  0.00  0.00    -0.082 SA
ATOM     15  C   UNL d   1      32.852  23.702 -18.694  0.00  0.00     0.036 A 
ATOM     16  C   UNL d   1      33.111  23.166 -18.141  0.00  0.00     0.008 A 
ATOM     17  C   UNL d   1      33.184  22.413 -18.522  0.00  0.00     0.012 A 
ENDBRANCH  11  13
ENDBRANCH   1  10
BRANCH   7  18
ATOM     18  N   UNL d   1      32.796  19.243 -23.918  0.00  0.00    -0.208 NA
ATOM     19  C   UNL d   1      32.325  18.559 -24.039  0.00  0.00     0.279 C 
ATOM     20  O   UNL d   1      32.210  18.269 -24.811  0.00  0.00    -0.265 OA
ATOM     21  C   UNL d   1      31.978  18.177 -23.392  0.00  0.00     0.068 C 
ENDBRANCH   7  18
TORSDOF 3
ENDMDL
