MODEL 1
REMARK VINA RESULT:      16.2      0.000      0.000
REMARK  3 active torsions:
REMARK  status: ('A' for Active; 'I' for Inactive)
REMARK    1  A    between atoms: N_9  and  C_2 
REMARK    2  A    between atoms: C_11  and  N_9 
REMARK    3  A    between atoms: O_14  and  C_13 
ROOT
ATOM      1  C   UNL d   1      24.089  12.576  -1.324  0.00  0.00     0.154 A 
ATOM      2  C   UNL d   1      23.970  12.443  -2.125  0.00  0.00     0.185 A 
ATOM      3  C   UNL d   1      23.455  12.783  -0.839  0.00  0.00     0.186 A 
ATOM      4  N   UNL d   1      24.768  12.545  -0.857  0.00  0.00    -0.218 NA
ATOM      5  N   UNL d   1      23.743  12.879  -0.074  0.00  0.00    -0.203 NA
ATOM      6  N   UNL d   1      23.213  12.517  -2.446  0.00  0.00    -0.203 NA
ATOM      7  N   UNL d   1      22.700  12.857  -1.156  0.00  0.00    -0.203 NA
ATOM      8  C   UNL d   1      24.546  12.734  -0.083  0.00  0.00     0.201 A 
ATOM      9  C   UNL d   1      22.578  12.724  -1.962  0.00  0.00     0.202 A 
ENDROOT
BRANCH   2  10
ATOM     10  N   UNL d   1      24.604  12.236  -2.610  0.00  0.00    -0.225 NA
BRANCH  10  11
ATOM     11  C   UNL d   1      24.658  12.539  -3.371  0.00  0.00     0.085 A 
ATOM     12  C   UNL d   1      24.671  12.025  -4.017  0.00  0.00     0.043 A 
ATOM     13  C   UNL d   1      24.726  12.327  -4.784  0.00  0.00     0.096 A 
ATOM     14  C   UNL d   1      24.767  13.142  -4.904  0.00  0.00     0.024 A 
ATOM     15  C   UNL d   1      24.754  13.656  -4.249  0.00  0.00     0.004 A 
ATOM     16  C   UNL d   1      24.700  13.354  -3.492  0.00  0.00     0.019 A 
BRANCH  13  17
ATOM     17  O   UNL d   1      24.738  11.808  -5.434  0.00  0.00    -0.328 OA
ATOM     18  C   UNL d   1      24.741  12.108  -6.203  0.00  0.00     0.181 C 
ENDBRANCH  13  17
ENDBRANCH  10  11
ENDBRANCH   2  10
TORSDOF 3
ENDMDL
