MODEL 1
REMARK VINA RESULT:      -1.7      0.000      0.000
REMARK  7 active torsions:
REMARK  status: ('A' for Active; 'I' for Inactive)
REMARK    1  A    between atoms: C_8  and  C_1 
REMARK    2  A    between atoms: N_7  and  C_2 
REMARK    3  A    between atoms: C_10  and  C_4 
REMARK       I    between atoms: C_6  and  N_7 
REMARK       I    between atoms: N_9  and  C_6 
REMARK    4  A    between atoms: O_14  and  C_8 
REMARK    5  A    between atoms: C_13  and  N_9 
REMARK    6  A    between atoms: O_20  and  C_15 
REMARK    7  A    between atoms: C_23  and  O_20 
ROOT
ATOM      1  C   UNL d   1      32.678  21.396 -21.566  0.00  0.00     0.110 A 
ATOM      2  C   UNL d   1      33.061  20.747 -21.999  0.00  0.00     0.098 A 
ATOM      3  S   UNL d   1      32.633  22.032 -22.038  0.00  0.00    -0.080 SA
ATOM      4  C   UNL d   1      32.975  21.843 -22.788  0.00  0.00     0.031 A 
ATOM      5  C   UNL d   1      33.241  21.029 -22.749  0.00  0.00     0.026 A 
ENDROOT
BRANCH   2   6
ATOM      6  N   UNL d   1      33.229  19.984 -21.744  0.00  0.00    -0.190 NA
ATOM      7  C   UNL d   1      33.058  19.330 -22.239  0.00  0.00     0.369 C 
ATOM      8  N   UNL d   1      32.731  19.432 -22.962  0.00  0.00    -0.191 NA
ATOM      9  O   UNL d   1      33.238  18.553 -21.961  0.00  0.00    -0.242 OA
BRANCH   8  10
ATOM     10  C   UNL d   1      32.570  18.787 -23.434  0.00  0.00     0.086 A 
ATOM     11  C   UNL d   1      31.882  18.767 -23.868  0.00  0.00     0.021 A 
ATOM     12  C   UNL d   1      31.708  18.120 -24.350  0.00  0.00     0.026 A 
ATOM     13  C   UNL d   1      32.232  17.492 -24.391  0.00  0.00     0.100 A 
ATOM     14  C   UNL d   1      32.920  17.512 -23.957  0.00  0.00     0.026 A 
ATOM     15  C   UNL d   1      33.091  18.161 -23.476  0.00  0.00     0.021 A 
BRANCH  13  16
ATOM     16  O   UNL d   1      32.059  16.853 -24.867  0.00  0.00    -0.305 OA
BRANCH  16  17
ATOM     17  C   UNL d   1      31.723  16.177 -24.539  0.00  0.00     0.123 C 
ATOM     18  C   UNL d   1      31.386  15.601 -25.040  0.00  0.00     0.029 C 
ENDBRANCH  16  17
ENDBRANCH  13  16
ENDBRANCH   8  10
ENDBRANCH   2   6
BRANCH   1  19
ATOM     19  C   UNL d   1      32.396  21.372 -20.779  0.00  0.00     0.303 C 
ATOM     20  O   UNL d   1      31.681  21.019 -20.618  0.00  0.00    -0.259 OA
BRANCH  19  21
ATOM     21  O   UNL d   1      32.880  21.719 -20.209  0.00  0.00    -0.295 OA
ATOM     22  C   UNL d   1      32.831  21.535 -19.401  0.00  0.00     0.185 C 
ENDBRANCH  19  21
ENDBRANCH   1  19
BRANCH   4  23
ATOM     23  C   UNL d   1      33.036  22.363 -23.438  0.00  0.00     0.006 A 
ATOM     24  C   UNL d   1      32.966  23.187 -23.342  0.00  0.00     0.001 A 
ATOM     25  C   UNL d   1      33.027  23.696 -23.985  0.00  0.00     0.000 A 
ATOM     26  C   UNL d   1      33.161  23.384 -24.752  0.00  0.00     0.000 A 
ATOM     27  C   UNL d   1      33.234  22.532 -24.855  0.00  0.00     0.000 A 
ATOM     28  C   UNL d   1      33.170  22.051 -24.204  0.00  0.00     0.001 A 
ENDBRANCH   4  23
TORSDOF 7
ENDMDL
MODEL 2
REMARK VINA RESULT:      -0.1      2.121      5.498
REMARK  7 active torsions:
REMARK  status: ('A' for Active; 'I' for Inactive)
REMARK    1  A    between atoms: C_8  and  C_1 
REMARK    2  A    between atoms: N_7  and  C_2 
REMARK    3  A    between atoms: C_10  and  C_4 
REMARK       I    between atoms: C_6  and  N_7 
REMARK       I    between atoms: N_9  and  C_6 
REMARK    4  A    between atoms: O_14  and  C_8 
REMARK    5  A    between atoms: C_13  and  N_9 
REMARK    6  A    between atoms: O_20  and  C_15 
REMARK    7  A    between atoms: C_23  and  O_20 
ROOT
ATOM      1  C   UNL d   1      31.825  16.685 -24.222  0.00  0.00     0.110 A 
ATOM      2  C   UNL d   1      31.770  17.505 -24.502  0.00  0.00     0.098 A 
ATOM      3  S   UNL d   1      31.101  16.428 -24.024  0.00  0.00    -0.080 SA
ATOM      4  C   UNL d   1      30.543  17.049 -24.158  0.00  0.00     0.031 A 
ATOM      5  C   UNL d   1      30.978  17.723 -24.460  0.00  0.00     0.026 A 
ENDROOT
BRANCH   2   6
ATOM      6  N   UNL d   1      32.367  18.003 -24.767  0.00  0.00    -0.190 NA
ATOM      7  C   UNL d   1      32.608  18.654 -24.297  0.00  0.00     0.369 C 
ATOM      8  N   UNL d   1      32.266  18.804 -23.590  0.00  0.00    -0.191 NA
ATOM      9  O   UNL d   1      33.224  19.155 -24.585  0.00  0.00    -0.242 OA
BRANCH   8  10
ATOM     10  C   UNL d   1      32.510  19.441 -23.143  0.00  0.00     0.086 A 
ATOM     11  C   UNL d   1      32.516  20.185 -23.471  0.00  0.00     0.021 A 
ATOM     12  C   UNL d   1      32.761  20.837 -23.028  0.00  0.00     0.026 A 
ATOM     13  C   UNL d   1      32.999  20.734 -22.252  0.00  0.00     0.100 A 
ATOM     14  C   UNL d   1      32.993  19.989 -21.924  0.00  0.00     0.026 A 
ATOM     15  C   UNL d   1      32.747  19.340 -22.369  0.00  0.00     0.021 A 
BRANCH  13  16
ATOM     16  O   UNL d   1      33.241  21.380 -21.815  0.00  0.00    -0.305 OA
BRANCH  16  17
ATOM     17  C   UNL d   1      32.882  21.543 -21.093  0.00  0.00     0.123 C 
ATOM     18  C   UNL d   1      33.173  22.166 -20.620  0.00  0.00     0.029 C 
ENDBRANCH  16  17
ENDBRANCH  13  16
ENDBRANCH   8  10
ENDBRANCH   2   6
BRANCH   1  19
ATOM     19  C   UNL d   1      32.520  16.224 -24.165  0.00  0.00     0.303 C 
ATOM     20  O   UNL d   1      32.824  15.867 -24.830  0.00  0.00    -0.259 OA
BRANCH  19  21
ATOM     21  O   UNL d   1      32.857  16.165 -23.414  0.00  0.00    -0.295 OA
ATOM     22  C   UNL d   1      33.147  15.452 -23.104  0.00  0.00     0.185 C 
ENDBRANCH  19  21
ENDBRANCH   1  19
BRANCH   4  23
ATOM     23  C   UNL d   1      29.722  17.001 -24.017  0.00  0.00     0.006 A 
ATOM     24  C   UNL d   1      29.356  16.278 -23.825  0.00  0.00     0.001 A 
ATOM     25  C   UNL d   1      28.546  16.236 -23.688  0.00  0.00     0.000 A 
ATOM     26  C   UNL d   1      28.077  16.929 -23.741  0.00  0.00     0.000 A 
ATOM     27  C   UNL d   1      28.452  17.678 -23.939  0.00  0.00     0.000 A 
ATOM     28  C   UNL d   1      29.253  17.694 -24.071  0.00  0.00     0.001 A 
ENDBRANCH   4  23
TORSDOF 7
ENDMDL
