MODEL 1
REMARK VINA RESULT:      -9.5      0.000      0.000
REMARK  3 active torsions:
REMARK  status: ('A' for Active; 'I' for Inactive)
REMARK    1  A    between atoms: S_10  and  C_2 
REMARK    2  A    between atoms: C_9  and  C_4 
REMARK    3  A    between atoms: C_17  and  C_12 
ROOT
ATOM      1  C   UNL d   1      53.212  33.654  54.019  0.00  0.00     0.092 A 
ATOM      2  C   UNL d   1      53.891  33.342  54.332  0.00  0.00     0.119 A 
ATOM      3  N   UNL d   1      54.111  32.562  54.144  0.00  0.00    -0.201 NA
ATOM      4  C   UNL d   1      52.740  33.193  53.513  0.00  0.00     0.016 A 
ATOM      5  C   UNL d   1      53.642  32.109  53.643  0.00  0.00     0.280 A 
ATOM      6  C   UNL d   1      52.990  34.429  54.205  0.00  0.00     0.103 C 
ATOM      7  N   UNL d   1      52.775  35.207  54.395  0.00  0.00    -0.191 NA
ATOM      8  C   UNL d   1      52.963  32.421  53.330  0.00  0.00     0.063 A 
ATOM      9  O   UNL d   1      53.863  31.334  53.457  0.00  0.00    -0.265 OA
ENDROOT
BRANCH   2  10
ATOM     10  S   UNL d   1      54.361  33.799  54.836  0.00  0.00    -0.093 SA
ATOM     11  C   UNL d   1      55.036  33.468  55.195  0.00  0.00     0.076 C 
ENDBRANCH   2  10
BRANCH   4  12
ATOM     12  C   UNL d   1      52.053  33.509  53.196  0.00  0.00     0.001 A 
ATOM     13  C   UNL d   1      51.345  33.353  53.563  0.00  0.00     0.000 A 
ATOM     14  C   UNL d   1      50.644  33.669  53.250  0.00  0.00     0.000 A 
ATOM     15  C   UNL d   1      50.662  34.128  52.585  0.00  0.00     0.000 A 
ATOM     16  C   UNL d   1      51.382  34.281  52.218  0.00  0.00     0.000 A 
ATOM     17  C   UNL d   1      52.091  33.966  52.530  0.00  0.00     0.000 A 
BRANCH  15  18
ATOM     18  C   UNL d   1      49.893  34.482  52.231  0.00  0.00     0.000 C 
ATOM     19  C   UNL d   1      49.485  34.370  51.215  0.00  0.00     0.000 C 
ATOM     20  C   UNL d   1      49.109  35.178  52.796  0.00  0.00     0.000 C 
ENDBRANCH  15  18
ENDBRANCH   4  12
TORSDOF 3
ENDMDL
MODEL 2
REMARK VINA RESULT:      -9.4      2.193      3.606
REMARK  3 active torsions:
REMARK  status: ('A' for Active; 'I' for Inactive)
REMARK    1  A    between atoms: S_10  and  C_2 
REMARK    2  A    between atoms: C_9  and  C_4 
REMARK    3  A    between atoms: C_17  and  C_12 
ROOT
ATOM      1  C   UNL d   1      53.375  33.690  54.306  0.00  0.00     0.092 A 
ATOM      2  C   UNL d   1      53.537  34.454  54.521  0.00  0.00     0.119 A 
ATOM      3  N   UNL d   1      54.257  34.634  54.896  0.00  0.00    -0.201 NA
ATOM      4  C   UNL d   1      53.931  33.091  54.460  0.00  0.00     0.016 A 
ATOM      5  C   UNL d   1      54.805  34.038  55.046  0.00  0.00     0.280 A 
ATOM      6  C   UNL d   1      52.659  33.508  53.933  0.00  0.00     0.103 C 
ATOM      7  N   UNL d   1      51.939  33.334  53.561  0.00  0.00    -0.191 NA
ATOM      8  C   UNL d   1      54.643  33.274  54.830  0.00  0.00     0.063 A 
ATOM      9  O   UNL d   1      55.521  34.219  55.418  0.00  0.00    -0.265 OA
ENDROOT
BRANCH   2  10
ATOM     10  S   UNL d   1      52.985  35.051  54.369  0.00  0.00    -0.093 SA
ATOM     11  C   UNL d   1      53.132  35.831  54.617  0.00  0.00     0.076 C 
ENDBRANCH   2  10
BRANCH   4  12
ATOM     12  C   UNL d   1      53.768  32.317  54.241  0.00  0.00     0.001 A 
ATOM     13  C   UNL d   1      53.479  31.804  54.802  0.00  0.00     0.000 A 
ATOM     14  C   UNL d   1      53.311  31.020  54.590  0.00  0.00     0.000 A 
ATOM     15  C   UNL d   1      53.432  30.764  53.834  0.00  0.00     0.000 A 
ATOM     16  C   UNL d   1      53.725  31.288  53.271  0.00  0.00     0.000 A 
ATOM     17  C   UNL d   1      53.896  32.079  53.479  0.00  0.00     0.000 A 
BRANCH  15  18
ATOM     18  C   UNL d   1      53.250  29.899  53.589  0.00  0.00     0.000 C 
ATOM     19  C   UNL d   1      52.822  29.522  52.648  0.00  0.00     0.000 C 
ATOM     20  C   UNL d   1      53.434  28.924  54.249  0.00  0.00     0.000 C 
ENDBRANCH  15  18
ENDBRANCH   4  12
TORSDOF 3
ENDMDL
MODEL 3
REMARK VINA RESULT:      -7.9      1.730      3.477
REMARK  3 active torsions:
REMARK  status: ('A' for Active; 'I' for Inactive)
REMARK    1  A    between atoms: S_10  and  C_2 
REMARK    2  A    between atoms: C_9  and  C_4 
REMARK    3  A    between atoms: C_17  and  C_12 
ROOT
ATOM      1  C   UNL d   1      52.943  33.664  53.853  0.00  0.00     0.092 A 
ATOM      2  C   UNL d   1      52.842  34.468  53.833  0.00  0.00     0.119 A 
ATOM      3  N   UNL d   1      52.400  34.813  53.219  0.00  0.00    -0.201 NA
ATOM      4  C   UNL d   1      52.604  33.191  53.259  0.00  0.00     0.016 A 
ATOM      5  C   UNL d   1      52.067  34.341  52.633  0.00  0.00     0.280 A 
ATOM      6  C   UNL d   1      53.382  33.318  54.463  0.00  0.00     0.103 C 
ATOM      7  N   UNL d   1      53.824  32.978  55.076  0.00  0.00    -0.191 NA
ATOM      8  C   UNL d   1      52.168  33.537  52.653  0.00  0.00     0.063 A 
ATOM      9  O   UNL d   1      51.628  34.687  52.024  0.00  0.00    -0.265 OA
ENDROOT
BRANCH   2  10
ATOM     10  S   UNL d   1      53.178  34.941  54.423  0.00  0.00    -0.093 SA
ATOM     11  C   UNL d   1      52.978  35.746  54.479  0.00  0.00     0.076 C 
ENDBRANCH   2  10
BRANCH   4  12
ATOM     12  C   UNL d   1      52.707  32.377  53.279  0.00  0.00     0.001 A 
ATOM     13  C   UNL d   1      52.078  31.908  53.491  0.00  0.00     0.000 A 
ATOM     14  C   UNL d   1      52.172  31.084  53.514  0.00  0.00     0.000 A 
ATOM     15  C   UNL d   1      52.882  30.747  53.327  0.00  0.00     0.000 A 
ATOM     16  C   UNL d   1      53.514  31.227  53.114  0.00  0.00     0.000 A 
ATOM     17  C   UNL d   1      53.425  32.058  53.089  0.00  0.00     0.000 A 
BRANCH  15  18
ATOM     18  C   UNL d   1      52.996  29.837  53.350  0.00  0.00     0.000 C 
ATOM     19  C   UNL d   1      52.769  29.092  52.572  0.00  0.00     0.000 C 
ATOM     20  C   UNL d   1      53.435  29.201  54.257  0.00  0.00     0.000 C 
ENDBRANCH  15  18
ENDBRANCH   4  12
TORSDOF 3
ENDMDL
