MODEL 1
REMARK VINA RESULT:      16.3      0.000      0.000
REMARK  5 active torsions:
REMARK  status: ('A' for Active; 'I' for Inactive)
REMARK    1  A    between atoms: N_8  and  C_1 
REMARK    2  A    between atoms: C_11  and  N_4 
REMARK    3  A    between atoms: N_6  and  C_7 
REMARK       I    between atoms: C_9  and  N_6 
REMARK    4  A    between atoms: C_7  and  N_8 
REMARK    5  A    between atoms: C_14  and  C_9 
ROOT
ATOM      1  C   UNL d   1      45.653 -17.171  43.800  0.00  0.00     0.209 A 
ATOM      2  C   UNL d   1      45.654 -17.754  42.571  0.00  0.00     0.310 A 
ATOM      3  N   UNL d   1      46.249 -18.379  43.621  0.00  0.00    -0.237 N 
ATOM      4  N   UNL d   1      46.051 -18.365  42.864  0.00  0.00    -0.208 N 
ATOM      5  C   UNL d   1      46.049 -17.780  44.089  0.00  0.00     0.116 A 
ATOM      6  O   UNL d   1      45.343 -17.536  41.795  0.00  0.00    -0.262 OA
ATOM      7  C   UNL d   1      46.645 -18.988  43.911  0.00  0.00     0.120 C 
ATOM      8  C   UNL d   1      46.250 -17.798  44.850  0.00  0.00     0.024 C 
ENDROOT
BRANCH   1   9
ATOM      9  N   UNL d   1      45.342 -16.429  44.126  0.00  0.00    -0.366 NA
BRANCH   9  10
ATOM     10  C   UNL d   1      45.044 -15.721  44.437  0.00  0.00     0.275 C 
ATOM     11  S   UNL d   1      44.394 -15.733  44.954  0.00  0.00    -0.023 SA
BRANCH  10  12
ATOM     12  N   UNL d   1      45.398 -14.999  44.231  0.00  0.00    -0.168 NA
ATOM     13  C   UNL d   1      45.044 -14.286  44.461  0.00  0.00     0.282 C 
ATOM     14  O   UNL d   1      44.337 -14.293  44.897  0.00  0.00    -0.265 OA
BRANCH  13  15
ATOM     15  C   UNL d   1      45.398 -13.564  44.255  0.00  0.00     0.058 A 
ATOM     16  C   UNL d   1      45.921 -13.195  44.777  0.00  0.00     0.005 A 
ATOM     17  C   UNL d   1      46.276 -12.471  44.568  0.00  0.00     0.000 A 
ATOM     18  C   UNL d   1      46.099 -12.118  43.826  0.00  0.00     0.000 A 
ATOM     19  C   UNL d   1      45.571 -12.496  43.307  0.00  0.00     0.000 A 
ATOM     20  C   UNL d   1      45.223 -13.213  43.518  0.00  0.00     0.005 A 
ENDBRANCH  13  15
ENDBRANCH  10  12
ENDBRANCH   9  10
ENDBRANCH   1   9
BRANCH   4  21
ATOM     21  C   UNL d   1      46.249 -18.960  42.396  0.00  0.00     0.085 A 
ATOM     22  C   UNL d   1      46.384 -19.667  42.701  0.00  0.00     0.019 A 
ATOM     23  C   UNL d   1      46.583 -20.267  42.238  0.00  0.00     0.002 A 
ATOM     24  C   UNL d   1      46.647 -20.153  41.453  0.00  0.00     0.000 A 
ATOM     25  C   UNL d   1      46.509 -19.441  41.155  0.00  0.00     0.002 A 
ATOM     26  C   UNL d   1      46.312 -18.847  41.623  0.00  0.00     0.019 A 
ENDBRANCH   4  21
TORSDOF 5
ENDMDL
MODEL 2
REMARK VINA RESULT:      18.5      1.147      5.444
REMARK  5 active torsions:
REMARK  status: ('A' for Active; 'I' for Inactive)
REMARK    1  A    between atoms: N_8  and  C_1 
REMARK    2  A    between atoms: C_11  and  N_4 
REMARK    3  A    between atoms: N_6  and  C_7 
REMARK       I    between atoms: C_9  and  N_6 
REMARK    4  A    between atoms: C_7  and  N_8 
REMARK    5  A    between atoms: C_14  and  C_9 
ROOT
ATOM      1  C   UNL d   1      45.556 -15.960  44.241  0.00  0.00     0.209 A 
ATOM      2  C   UNL d   1      45.931 -14.714  43.845  0.00  0.00     0.310 A 
ATOM      3  N   UNL d   1      44.702 -14.914  44.391  0.00  0.00    -0.237 N 
ATOM      4  N   UNL d   1      45.236 -14.433  44.078  0.00  0.00    -0.208 N 
ATOM      5  C   UNL d   1      44.864 -15.679  44.472  0.00  0.00     0.116 A 
ATOM      6  O   UNL d   1      46.643 -14.379  43.487  0.00  0.00    -0.262 OA
ATOM      7  C   UNL d   1      44.010 -14.633  44.622  0.00  0.00     0.120 C 
ATOM      8  C   UNL d   1      44.326 -16.159  44.787  0.00  0.00     0.024 C 
ENDROOT
BRANCH   1   9
ATOM      9  N   UNL d   1      45.932 -16.743  44.237  0.00  0.00    -0.366 NA
BRANCH   9  10
ATOM     10  C   UNL d   1      46.290 -17.491  44.234  0.00  0.00     0.275 C 
ATOM     11  S   UNL d   1      46.480 -17.866  44.951  0.00  0.00    -0.023 SA
BRANCH  10  12
ATOM     12  N   UNL d   1      46.459 -17.863  43.512  0.00  0.00    -0.168 NA
ATOM     13  C   UNL d   1      46.133 -18.607  43.346  0.00  0.00     0.282 C 
ATOM     14  O   UNL d   1      45.638 -18.979  43.901  0.00  0.00    -0.265 OA
BRANCH  13  15
ATOM     15  C   UNL d   1      46.302 -18.980  42.624  0.00  0.00     0.058 A 
ATOM     16  C   UNL d   1      46.366 -19.803  42.588  0.00  0.00     0.005 A 
ATOM     17  C   UNL d   1      46.536 -20.175  41.862  0.00  0.00     0.000 A 
ATOM     18  C   UNL d   1      46.642 -19.710  41.169  0.00  0.00     0.000 A 
ATOM     19  C   UNL d   1      46.576 -18.883  41.215  0.00  0.00     0.000 A 
ATOM     20  C   UNL d   1      46.408 -18.520  41.935  0.00  0.00     0.005 A 
ENDBRANCH  13  15
ENDBRANCH  10  12
ENDBRANCH   9  10
ENDBRANCH   1   9
BRANCH   4  21
ATOM     21  C   UNL d   1      45.077 -13.672  43.996  0.00  0.00     0.085 A 
ATOM     22  C   UNL d   1      45.361 -13.157  44.512  0.00  0.00     0.019 A 
ATOM     23  C   UNL d   1      45.206 -12.393  44.436  0.00  0.00     0.002 A 
ATOM     24  C   UNL d   1      44.756 -12.142  43.829  0.00  0.00     0.000 A 
ATOM     25  C   UNL d   1      44.476 -12.665  43.316  0.00  0.00     0.002 A 
ATOM     26  C   UNL d   1      44.635 -13.425  43.398  0.00  0.00     0.019 A 
ENDBRANCH   4  21
TORSDOF 5
ENDMDL
