MODEL 1
REMARK VINA RESULT:      11.4      0.000      0.000
REMARK  7 active torsions:
REMARK  status: ('A' for Active; 'I' for Inactive)
REMARK    1  A    between atoms: C_4  and  C_1 
REMARK    2  A    between atoms: N_5  and  C_2 
REMARK    3  A    between atoms: C_15  and  C_4 
REMARK    4  A    between atoms: C_9  and  C_13 
REMARK    5  A    between atoms: O_21  and  C_9 
REMARK    6  A    between atoms: C_25  and  C_20 
REMARK    7  A    between atoms: C_26  and  O_21 
ROOT
ATOM      1  C   UNL d   1      57.416   0.241  32.738  0.00  0.00     0.074 A 
ATOM      2  C   UNL d   1      58.133   0.231  32.319  0.00  0.00     0.070 A 
ATOM      3  C   UNL d   1      58.842   0.377  32.710  0.00  0.00     0.034 A 
ATOM      4  C   UNL d   1      57.416   0.398  33.548  0.00  0.00     0.103 A 
ATOM      5  N   UNL d   1      58.134   0.545  33.938  0.00  0.00    -0.244 NA
ATOM      6  C   UNL d   1      58.843   0.534  33.520  0.00  0.00     0.083 A 
ATOM      7  C   UNL d   1      59.551   0.366  32.291  0.00  0.00     0.003 A 
ATOM      8  C   UNL d   1      59.553   0.679  33.911  0.00  0.00     0.019 A 
ATOM      9  C   UNL d   1      60.265   0.512  32.683  0.00  0.00     0.000 A 
ATOM     10  C   UNL d   1      60.266   0.669  33.493  0.00  0.00     0.002 A 
ENDROOT
BRANCH   2  11
ATOM     11  N   UNL d   1      58.132   0.071  31.497  0.00  0.00    -0.304 N 
ATOM     12  C   UNL d   1      58.001   0.681  30.958  0.00  0.00     0.080 A 
ATOM     13  C   UNL d   1      58.000   0.524  30.148  0.00  0.00     0.024 A 
ATOM     14  C   UNL d   1      58.131  -0.242  29.877  0.00  0.00     0.067 A 
ATOM     15  C   UNL d   1      58.264  -0.856  30.415  0.00  0.00     0.024 A 
ATOM     16  C   UNL d   1      58.264  -0.699  31.225  0.00  0.00     0.080 A 
BRANCH  14  17
ATOM     17  C   UNL d   1      58.129  -0.391  29.065  0.00  0.00     0.300 C 
ATOM     18  O   UNL d   1      57.879   0.190  28.532  0.00  0.00    -0.259 OA
BRANCH  17  19
ATOM     19  O   UNL d   1      58.379  -1.125  28.787  0.00  0.00    -0.271 OA
BRANCH  19  20
ATOM     20  C   UNL d   1      59.172  -1.345  28.826  0.00  0.00     0.126 C 
ATOM     21  C   UNL d   1      59.759  -0.893  28.458  0.00  0.00     0.029 C 
ENDBRANCH  19  20
ENDBRANCH  17  19
ENDBRANCH  14  17
ENDBRANCH   2  11
BRANCH   1  22
ATOM     22  C   UNL d   1      56.702   0.095  32.346  0.00  0.00     0.198 C 
ATOM     23  O   UNL d   1      56.640   0.210  31.531  0.00  0.00    -0.286 OA
BRANCH  22  24
ATOM     24  C   UNL d   1      56.047  -0.168  32.770  0.00  0.00     0.039 A 
ATOM     25  C   UNL d   1      56.017  -0.948  33.037  0.00  0.00     0.003 A 
ATOM     26  C   UNL d   1      55.361  -1.210  33.461  0.00  0.00     0.000 A 
ATOM     27  C   UNL d   1      54.736  -0.693  33.617  0.00  0.00     0.000 A 
ATOM     28  C   UNL d   1      54.762   0.088  33.352  0.00  0.00     0.000 A 
ATOM     29  C   UNL d   1      55.425   0.349  32.925  0.00  0.00     0.003 A 
ENDBRANCH  22  24
ENDBRANCH   1  22
BRANCH   9  30
ATOM     30  C   UNL d   1      60.982   0.501  32.260  0.00  0.00     0.000 C 
ATOM     31  C   UNL d   1      60.979   0.669  31.452  0.00  0.00     0.000 C 
ENDBRANCH   9  30
TORSDOF 7
ENDMDL
MODEL 2
REMARK VINA RESULT:      13.5      8.770      9.683
REMARK  7 active torsions:
REMARK  status: ('A' for Active; 'I' for Inactive)
REMARK    1  A    between atoms: C_4  and  C_1 
REMARK    2  A    between atoms: N_5  and  C_2 
REMARK    3  A    between atoms: C_15  and  C_4 
REMARK    4  A    between atoms: C_9  and  C_13 
REMARK    5  A    between atoms: O_21  and  C_9 
REMARK    6  A    between atoms: C_25  and  C_20 
REMARK    7  A    between atoms: C_26  and  O_21 
ROOT
ATOM      1  C   UNL d   1      57.762  -9.719  31.065  0.00  0.00     0.074 A 
ATOM      2  C   UNL d   1      58.550  -9.568  31.277  0.00  0.00     0.070 A 
ATOM      3  C   UNL d   1      58.761  -9.516  32.072  0.00  0.00     0.034 A 
ATOM      4  C   UNL d   1      57.190  -9.818  31.651  0.00  0.00     0.103 A 
ATOM      5  N   UNL d   1      57.408  -9.765  32.451  0.00  0.00    -0.244 NA
ATOM      6  C   UNL d   1      58.189  -9.615  32.658  0.00  0.00     0.083 A 
ATOM      7  C   UNL d   1      59.544  -9.365  32.279  0.00  0.00     0.003 A 
ATOM      8  C   UNL d   1      58.401  -9.563  33.452  0.00  0.00     0.019 A 
ATOM      9  C   UNL d   1      59.758  -9.313  33.076  0.00  0.00     0.000 A 
ATOM     10  C   UNL d   1      59.186  -9.412  33.663  0.00  0.00     0.002 A 
ENDROOT
BRANCH   2  11
ATOM     11  N   UNL d   1      59.130  -9.468  30.682  0.00  0.00    -0.304 N 
ATOM     12  C   UNL d   1      58.952  -9.041  30.000  0.00  0.00     0.080 A 
ATOM     13  C   UNL d   1      59.524  -8.943  29.413  0.00  0.00     0.024 A 
ATOM     14  C   UNL d   1      60.273  -9.270  29.508  0.00  0.00     0.067 A 
ATOM     15  C   UNL d   1      60.454  -9.699  30.192  0.00  0.00     0.024 A 
ATOM     16  C   UNL d   1      59.883  -9.797  30.779  0.00  0.00     0.080 A 
BRANCH  14  17
ATOM     17  C   UNL d   1      60.839  -9.167  28.917  0.00  0.00     0.300 C 
ATOM     18  O   UNL d   1      61.117  -9.813  28.483  0.00  0.00    -0.259 OA
BRANCH  17  19
ATOM     19  O   UNL d   1      61.127  -8.411  28.759  0.00  0.00    -0.271 OA
BRANCH  19  20
ATOM     20  C   UNL d   1      60.618  -7.803  28.531  0.00  0.00     0.126 C 
ATOM     21  C   UNL d   1      60.885  -7.023  28.471  0.00  0.00     0.029 C 
ENDBRANCH  19  20
ENDBRANCH  17  19
ENDBRANCH  14  17
ENDBRANCH   2  11
BRANCH   1  22
ATOM     22  C   UNL d   1      57.548  -9.772  30.267  0.00  0.00     0.198 C 
ATOM     23  O   UNL d   1      58.126  -9.811  29.680  0.00  0.00    -0.286 OA
BRANCH  22  24
ATOM     24  C   UNL d   1      56.753  -9.785  30.055  0.00  0.00     0.039 A 
ATOM     25  C   UNL d   1      56.540  -9.785  29.257  0.00  0.00     0.003 A 
ATOM     26  C   UNL d   1      55.745  -9.799  29.047  0.00  0.00     0.000 A 
ATOM     27  C   UNL d   1      55.162  -9.812  29.632  0.00  0.00     0.000 A 
ATOM     28  C   UNL d   1      55.369  -9.812  30.430  0.00  0.00     0.000 A 
ATOM     29  C   UNL d   1      56.173  -9.799  30.640  0.00  0.00     0.003 A 
ENDBRANCH  22  24
ENDBRANCH   1  22
BRANCH   9  30
ATOM     30  C   UNL d   1      60.548  -9.161  33.286  0.00  0.00     0.000 C 
ATOM     31  C   UNL d   1      60.825  -9.396  34.027  0.00  0.00     0.000 C 
ENDBRANCH   9  30
TORSDOF 7
ENDMDL
MODEL 3
REMARK VINA RESULT:      13.5      1.035      3.444
REMARK  7 active torsions:
REMARK  status: ('A' for Active; 'I' for Inactive)
REMARK    1  A    between atoms: C_4  and  C_1 
REMARK    2  A    between atoms: N_5  and  C_2 
REMARK    3  A    between atoms: C_15  and  C_4 
REMARK    4  A    between atoms: C_9  and  C_13 
REMARK    5  A    between atoms: O_21  and  C_9 
REMARK    6  A    between atoms: C_25  and  C_20 
REMARK    7  A    between atoms: C_26  and  O_21 
ROOT
ATOM      1  C   UNL d   1      57.643   0.231  32.077  0.00  0.00     0.074 A 
ATOM      2  C   UNL d   1      57.246  -0.477  31.901  0.00  0.00     0.070 A 
ATOM      3  C   UNL d   1      56.621  -0.728  32.376  0.00  0.00     0.034 A 
ATOM      4  C   UNL d   1      57.411   0.682  32.728  0.00  0.00     0.103 A 
ATOM      5  N   UNL d   1      56.780   0.424  33.203  0.00  0.00    -0.244 NA
ATOM      6  C   UNL d   1      56.389  -0.278  33.026  0.00  0.00     0.083 A 
ATOM      7  C   UNL d   1      56.230  -1.431  32.198  0.00  0.00     0.003 A 
ATOM      8  C   UNL d   1      55.764  -0.530  33.500  0.00  0.00     0.019 A 
ATOM      9  C   UNL d   1      55.602  -1.685  32.674  0.00  0.00     0.000 A 
ATOM     10  C   UNL d   1      55.369  -1.235  33.324  0.00  0.00     0.002 A 
ENDROOT
BRANCH   2  11
ATOM     11  N   UNL d   1      57.482  -0.934  31.241  0.00  0.00    -0.304 N 
ATOM     12  C   UNL d   1      57.486  -0.600  30.488  0.00  0.00     0.080 A 
ATOM     13  C   UNL d   1      57.718  -1.051  29.837  0.00  0.00     0.024 A 
ATOM     14  C   UNL d   1      57.947  -1.835  29.940  0.00  0.00     0.067 A 
ATOM     15  C   UNL d   1      57.944  -2.173  30.695  0.00  0.00     0.024 A 
ATOM     16  C   UNL d   1      57.711  -1.722  31.345  0.00  0.00     0.080 A 
BRANCH  14  17
ATOM     17  C   UNL d   1      58.178  -2.279  29.283  0.00  0.00     0.300 C 
ATOM     18  O   UNL d   1      57.618  -2.687  28.833  0.00  0.00    -0.259 OA
BRANCH  17  19
ATOM     19  O   UNL d   1      58.976  -2.313  29.078  0.00  0.00    -0.271 OA
BRANCH  19  20
ATOM     20  C   UNL d   1      59.303  -1.765  28.556  0.00  0.00     0.126 C 
ATOM     21  C   UNL d   1      60.108  -1.579  28.581  0.00  0.00     0.029 C 
ENDBRANCH  19  20
ENDBRANCH  17  19
ENDBRANCH  14  17
ENDBRANCH   2  11
BRANCH   1  22
ATOM     22  C   UNL d   1      58.271   0.485  31.602  0.00  0.00     0.198 C 
ATOM     23  O   UNL d   1      58.146   0.675  30.809  0.00  0.00    -0.286 OA
BRANCH  22  24
ATOM     24  C   UNL d   1      59.027   0.551  31.920  0.00  0.00     0.039 A 
ATOM     25  C   UNL d   1      59.683   0.578  31.420  0.00  0.00     0.003 A 
ATOM     26  C   UNL d   1      60.439   0.644  31.740  0.00  0.00     0.000 A 
ATOM     27  C   UNL d   1      60.540   0.681  32.559  0.00  0.00     0.000 A 
ATOM     28  C   UNL d   1      59.887   0.653  33.063  0.00  0.00     0.000 A 
ATOM     29  C   UNL d   1      59.126   0.587  32.737  0.00  0.00     0.003 A 
ENDBRANCH  22  24
ENDBRANCH   1  22
BRANCH   9  30
ATOM     30  C   UNL d   1      55.206  -2.395  32.495  0.00  0.00     0.000 C 
ATOM     31  C   UNL d   1      54.877  -2.842  33.105  0.00  0.00     0.000 C 
ENDBRANCH   9  30
TORSDOF 7
ENDMDL
