MODEL 1
REMARK VINA RESULT:      -5.4      0.000      0.000
REMARK  2 active torsions:
REMARK  status: ('A' for Active; 'I' for Inactive)
REMARK    1  A    between atoms: C_6  and  N_1 
REMARK    2  A    between atoms: C_7  and  C_6 
ROOT
ATOM      1  N   UNL d   1      56.840  -0.032  31.602  0.00  0.00    -0.287 N 
ATOM      2  N   UNL d   1      56.649  -1.311  31.970  0.00  0.00    -0.224 NA
ATOM      3  C   UNL d   1      57.013  -0.826  31.434  0.00  0.00     0.183 A 
ATOM      4  C   UNL d   1      56.347  -0.021  32.273  0.00  0.00     0.083 A 
ATOM      5  C   UNL d   1      56.226  -0.834  32.507  0.00  0.00     0.099 A 
ATOM      6  C   UNL d   1      55.990   0.561  32.710  0.00  0.00     0.019 A 
ATOM      7  C   UNL d   1      55.760  -0.981  33.153  0.00  0.00     0.021 A 
ATOM      8  C   UNL d   1      55.540   0.406  33.337  0.00  0.00     0.002 A 
ATOM      9  C   UNL d   1      55.418  -0.408  33.571  0.00  0.00     0.002 A 
ENDROOT
BRANCH   1  10
ATOM     10  C   UNL d   1      57.163   0.539  31.114  0.00  0.00     0.082 C 
BRANCH  10  11
ATOM     11  C   UNL d   1      57.895   0.483  30.792  0.00  0.00     0.018 A 
ATOM     12  C   UNL d   1      58.029   0.241  30.030  0.00  0.00     0.002 A 
ATOM     13  C   UNL d   1      58.767   0.183  29.700  0.00  0.00     0.000 A 
ATOM     14  C   UNL d   1      58.881  -0.067  28.918  0.00  0.00     0.000 C 
ATOM     15  C   UNL d   1      59.419   0.382  30.166  0.00  0.00     0.000 A 
ATOM     16  C   UNL d   1      59.308   0.632  30.945  0.00  0.00     0.000 A 
ATOM     17  C   UNL d   1      58.547   0.682  31.257  0.00  0.00     0.002 A 
ENDBRANCH  10  11
ENDBRANCH   1  10
TORSDOF 2
ENDMDL
MODEL 2
REMARK VINA RESULT:      -4.7      0.859      3.740
REMARK  2 active torsions:
REMARK  status: ('A' for Active; 'I' for Inactive)
REMARK    1  A    between atoms: C_6  and  N_1 
REMARK    2  A    between atoms: C_7  and  C_6 
ROOT
ATOM      1  N   UNL d   1      57.811   0.263  30.904  0.00  0.00    -0.287 N 
ATOM      2  N   UNL d   1      59.063   0.682  31.161  0.00  0.00    -0.224 NA
ATOM      3  C   UNL d   1      58.299   0.682  31.429  0.00  0.00     0.183 A 
ATOM      4  C   UNL d   1      58.291  -0.010  30.282  0.00  0.00     0.083 A 
ATOM      5  C   UNL d   1      59.087   0.256  30.445  0.00  0.00     0.099 A 
ATOM      6  C   UNL d   1      58.162  -0.442  29.608  0.00  0.00     0.019 A 
ATOM      7  C   UNL d   1      59.671   0.063  29.919  0.00  0.00     0.021 A 
ATOM      8  C   UNL d   1      58.739  -0.624  29.104  0.00  0.00     0.002 A 
ATOM      9  C   UNL d   1      59.534  -0.358  29.267  0.00  0.00     0.002 A 
ENDROOT
BRANCH   1  10
ATOM     10  C   UNL d   1      57.016   0.206  31.088  0.00  0.00     0.082 C 
BRANCH  10  11
ATOM     11  C   UNL d   1      56.742   0.045  31.824  0.00  0.00     0.018 A 
ATOM     12  C   UNL d   1      56.459  -0.682  32.044  0.00  0.00     0.002 A 
ATOM     13  C   UNL d   1      56.181  -0.849  32.788  0.00  0.00     0.000 A 
ATOM     14  C   UNL d   1      55.896  -1.600  32.991  0.00  0.00     0.000 C 
ATOM     15  C   UNL d   1      56.187  -0.246  33.351  0.00  0.00     0.000 A 
ATOM     16  C   UNL d   1      56.470   0.503  33.150  0.00  0.00     0.000 A 
ATOM     17  C   UNL d   1      56.748   0.648  32.387  0.00  0.00     0.002 A 
ENDBRANCH  10  11
ENDBRANCH   1  10
TORSDOF 2
ENDMDL
MODEL 3
REMARK VINA RESULT:      -4.7      0.851      3.639
REMARK  2 active torsions:
REMARK  status: ('A' for Active; 'I' for Inactive)
REMARK    1  A    between atoms: C_6  and  N_1 
REMARK    2  A    between atoms: C_7  and  C_6 
ROOT
ATOM      1  N   UNL d   1      56.802   0.077  31.618  0.00  0.00    -0.287 N 
ATOM      2  N   UNL d   1      57.057  -1.226  31.401  0.00  0.00    -0.224 NA
ATOM      3  C   UNL d   1      56.621  -0.702  31.839  0.00  0.00     0.183 A 
ATOM      4  C   UNL d   1      57.376   0.038  31.016  0.00  0.00     0.083 A 
ATOM      5  C   UNL d   1      57.538  -0.790  30.879  0.00  0.00     0.099 A 
ATOM      6  C   UNL d   1      57.778   0.585  30.573  0.00  0.00     0.019 A 
ATOM      7  C   UNL d   1      58.084  -0.985  30.313  0.00  0.00     0.021 A 
ATOM      8  C   UNL d   1      58.306   0.384  30.026  0.00  0.00     0.002 A 
ATOM      9  C   UNL d   1      58.468  -0.444  29.888  0.00  0.00     0.002 A 
ENDROOT
BRANCH   1  10
ATOM     10  C   UNL d   1      56.412   0.682  32.004  0.00  0.00     0.082 C 
BRANCH  10  11
ATOM     11  C   UNL d   1      56.244   0.671  32.789  0.00  0.00     0.018 A 
ATOM     12  C   UNL d   1      55.489   0.650  33.082  0.00  0.00     0.002 A 
ATOM     13  C   UNL d   1      55.315   0.639  33.874  0.00  0.00     0.000 A 
ATOM     14  C   UNL d   1      54.534   0.617  34.152  0.00  0.00     0.000 C 
ATOM     15  C   UNL d   1      55.941   0.650  34.411  0.00  0.00     0.000 A 
ATOM     16  C   UNL d   1      56.720   0.671  34.136  0.00  0.00     0.000 A 
ATOM     17  C   UNL d   1      56.870   0.682  33.326  0.00  0.00     0.002 A 
ENDBRANCH  10  11
ENDBRANCH   1  10
TORSDOF 2
ENDMDL
MODEL 4
REMARK VINA RESULT:      -4.4      8.976      9.800
REMARK  2 active torsions:
REMARK  status: ('A' for Active; 'I' for Inactive)
REMARK    1  A    between atoms: C_6  and  N_1 
REMARK    2  A    between atoms: C_7  and  C_6 
ROOT
ATOM      1  N   UNL d   1      60.188  -8.832  35.018  0.00  0.00    -0.287 N 
ATOM      2  N   UNL d   1      61.133  -7.919  35.303  0.00  0.00    -0.224 NA
ATOM      3  C   UNL d   1      60.988  -8.627  34.938  0.00  0.00     0.183 A 
ATOM      4  C   UNL d   1      59.817  -8.226  35.452  0.00  0.00     0.083 A 
ATOM      5  C   UNL d   1      60.419  -7.646  35.633  0.00  0.00     0.099 A 
ATOM      6  C   UNL d   1      59.063  -8.090  35.714  0.00  0.00     0.019 A 
ATOM      7  C   UNL d   1      60.203  -6.990  36.057  0.00  0.00     0.021 A 
ATOM      8  C   UNL d   1      58.864  -7.449  36.125  0.00  0.00     0.002 A 
ATOM      9  C   UNL d   1      59.466  -6.868  36.307  0.00  0.00     0.002 A 
ENDROOT
BRANCH   1  10
ATOM     10  C   UNL d   1      59.940  -9.534  34.681  0.00  0.00     0.082 C 
BRANCH  10  11
ATOM     11  C   UNL d   1      59.806  -9.626  33.895  0.00  0.00     0.018 A 
ATOM     12  C   UNL d   1      59.064  -9.669  33.573  0.00  0.00     0.002 A 
ATOM     13  C   UNL d   1      58.923  -9.762  32.780  0.00  0.00     0.000 A 
ATOM     14  C   UNL d   1      58.155  -9.803  32.471  0.00  0.00     0.000 C 
ATOM     15  C   UNL d   1      59.572  -9.815  32.273  0.00  0.00     0.000 A 
ATOM     16  C   UNL d   1      60.339  -9.773  32.577  0.00  0.00     0.000 A 
ATOM     17  C   UNL d   1      60.455  -9.679  33.389  0.00  0.00     0.002 A 
ENDBRANCH  10  11
ENDBRANCH   1  10
TORSDOF 2
ENDMDL
MODEL 5
REMARK VINA RESULT:      -3.9      1.996      4.111
REMARK  2 active torsions:
REMARK  status: ('A' for Active; 'I' for Inactive)
REMARK    1  A    between atoms: C_6  and  N_1 
REMARK    2  A    between atoms: C_7  and  C_6 
ROOT
ATOM      1  N   UNL d   1      58.867  -0.895  29.478  0.00  0.00    -0.287 N 
ATOM      2  N   UNL d   1      60.212  -0.876  29.438  0.00  0.00    -0.224 NA
ATOM      3  C   UNL d   1      59.550  -0.438  29.598  0.00  0.00     0.183 A 
ATOM      4  C   UNL d   1      59.114  -1.651  29.233  0.00  0.00     0.083 A 
ATOM      5  C   UNL d   1      59.969  -1.639  29.208  0.00  0.00     0.099 A 
ATOM      6  C   UNL d   1      58.735  -2.338  29.031  0.00  0.00     0.019 A 
ATOM      7  C   UNL d   1      60.355  -2.315  28.983  0.00  0.00     0.021 A 
ATOM      8  C   UNL d   1      59.121  -2.989  28.815  0.00  0.00     0.002 A 
ATOM      9  C   UNL d   1      59.976  -2.977  28.789  0.00  0.00     0.002 A 
ENDROOT
BRANCH   1  10
ATOM     10  C   UNL d   1      58.144  -0.540  29.613  0.00  0.00     0.082 C 
BRANCH  10  11
ATOM     11  C   UNL d   1      57.892  -0.310  30.340  0.00  0.00     0.018 A 
ATOM     12  C   UNL d   1      57.416  -0.768  30.810  0.00  0.00     0.002 A 
ATOM     13  C   UNL d   1      57.159  -0.540  31.545  0.00  0.00     0.000 A 
ATOM     14  C   UNL d   1      56.672  -1.024  32.009  0.00  0.00     0.000 C 
ATOM     15  C   UNL d   1      57.395   0.198  31.829  0.00  0.00     0.000 A 
ATOM     16  C   UNL d   1      57.880   0.682  31.368  0.00  0.00     0.000 A 
ATOM     17  C   UNL d   1      58.128   0.427  30.624  0.00  0.00     0.002 A 
ENDBRANCH  10  11
ENDBRANCH   1  10
TORSDOF 2
ENDMDL
