MODEL 1
REMARK VINA RESULT:      26.7      0.000      0.000
REMARK  3 active torsions:
REMARK  status: ('A' for Active; 'I' for Inactive)
REMARK    1  A    between atoms: C_7  and  C_4 
REMARK    2  A    between atoms: C_8  and  C_7 
REMARK    3  A    between atoms: C_11  and  C_8 
ROOT
ATOM      1  N   UNL d   1      13.242  13.646  -4.255  0.00  0.00    -0.269 N 
ATOM      2  C   UNL d   1      13.248  13.374  -3.477  0.00  0.00     0.282 A 
ATOM      3  N   UNL d   1      13.416  12.040  -3.947  0.00  0.00    -0.239 NA
ATOM      4  C   UNL d   1      13.335  12.573  -3.323  0.00  0.00     0.138 A 
ATOM      5  C   UNL d   1      13.323  13.113  -4.879  0.00  0.00     0.085 A 
ATOM      6  C   UNL d   1      13.410  12.312  -4.725  0.00  0.00     0.098 A 
ATOM      7  O   UNL d   1      13.167  13.907  -2.853  0.00  0.00    -0.265 OA
ATOM      8  C   UNL d   1      13.127  14.533  -3.841  0.00  0.00     0.102 C 
ATOM      9  C   UNL d   1      13.317  13.384  -5.658  0.00  0.00     0.019 A 
ATOM     10  C   UNL d   1      13.491  11.779  -5.350  0.00  0.00     0.021 A 
ATOM     11  C   UNL d   1      13.395  12.862  -6.227  0.00  0.00     0.002 A 
ATOM     12  C   UNL d   1      13.482  12.061  -6.073  0.00  0.00     0.002 A 
ENDROOT
BRANCH   4  13
ATOM     13  C   UNL d   1      13.341  12.302  -2.544  0.00  0.00     0.024 C 
BRANCH  13  14
ATOM     14  C   UNL d   1      13.927  11.779  -2.294  0.00  0.00     0.002 C 
BRANCH  14  15
ATOM     15  C   UNL d   1      14.242  11.844  -1.534  0.00  0.00     0.000 A 
ATOM     16  C   UNL d   1      15.053  11.959  -1.432  0.00  0.00     0.000 A 
ATOM     17  C   UNL d   1      15.368  12.025  -0.673  0.00  0.00     0.000 A 
ATOM     18  C   UNL d   1      14.873  11.976  -0.014  0.00  0.00     0.000 A 
ATOM     19  C   UNL d   1      14.062  11.861  -0.116  0.00  0.00     0.000 A 
ATOM     20  C   UNL d   1      13.747  11.796  -0.876  0.00  0.00     0.000 A 
ENDBRANCH  14  15
ENDBRANCH  13  14
ENDBRANCH   4  13
TORSDOF 3
ENDMDL
