MODEL 1
REMARK VINA RESULT:      27.4      0.000      0.000
REMARK  7 active torsions:
REMARK  status: ('A' for Active; 'I' for Inactive)
REMARK    1  A    between atoms: C_3  and  C_1 
REMARK    2  A    between atoms: C_4  and  C_1 
REMARK    3  A    between atoms: N_2  and  C_6 
REMARK    4  A    between atoms: C_6  and  C_13 
REMARK    5  A    between atoms: O_12  and  C_14 
REMARK    6  A    between atoms: C_16  and  O_12 
REMARK    7  A    between atoms: C_13  and  C_16 
ROOT
ATOM      1  C   UNL d   1      45.422 -16.733  43.614  0.00  0.00     0.039 A 
ATOM      2  C   UNL d   1      46.169 -16.379  43.544  0.00  0.00     0.005 A 
ATOM      3  C   UNL d   1      44.831 -16.356  44.040  0.00  0.00     0.005 A 
ATOM      4  C   UNL d   1      45.719 -15.285  44.324  0.00  0.00     0.100 A 
ATOM      5  C   UNL d   1      46.309 -15.661  43.898  0.00  0.00     0.025 A 
ATOM      6  C   UNL d   1      44.984 -15.623  44.398  0.00  0.00     0.025 A 
ENDROOT
BRANCH   4   7
ATOM      7  O   UNL d   1      45.878 -14.546  44.684  0.00  0.00    -0.302 OA
BRANCH   7   8
ATOM      8  C   UNL d   1      45.563 -13.831  44.370  0.00  0.00     0.166 C 
BRANCH   8   9
ATOM      9  C   UNL d   1      45.953 -13.108  44.505  0.00  0.00     0.238 C 
ATOM     10  O   UNL d   1      46.645 -13.088  44.954  0.00  0.00    -0.283 OA
BRANCH   9  11
ATOM     11  C   UNL d   1      45.643 -12.408  44.188  0.00  0.00     0.125 C 
BRANCH  11  12
ATOM     12  N   UNL d   1      45.317 -12.405  43.424  0.00  0.00    -0.296 N 
ATOM     13  C   UNL d   1      45.794 -12.231  42.774  0.00  0.00     0.107 A 
ATOM     14  C   UNL d   1      45.458 -12.231  42.017  0.00  0.00     0.142 A 
ATOM     15  O   UNL d   1      44.650 -12.404  41.912  0.00  0.00    -0.300 OA
ATOM     16  C   UNL d   1      44.184 -12.577  42.571  0.00  0.00     0.142 A 
ATOM     17  C   UNL d   1      44.508 -12.579  43.327  0.00  0.00     0.107 A 
ENDBRANCH  11  12
ENDBRANCH   9  11
ENDBRANCH   8   9
ENDBRANCH   7   8
ENDBRANCH   4   7
BRANCH   1  18
ATOM     18  C   UNL d   1      45.274 -17.459  43.257  0.00  0.00     0.196 C 
ATOM     19  O   UNL d   1      44.786 -17.503  42.595  0.00  0.00    -0.287 OA
BRANCH  18  20
ATOM     20  C   UNL d   1      45.616 -18.142  43.564  0.00  0.00     0.039 A 
ATOM     21  C   UNL d   1      46.019 -18.663  43.063  0.00  0.00     0.004 A 
ATOM     22  C   UNL d   1      46.362 -19.345  43.365  0.00  0.00     0.011 A 
ATOM     23  C   UNL d   1      46.303 -19.512  44.175  0.00  0.00     0.058 A 
ATOM     24  C   UNL d   1      45.900 -18.992  44.675  0.00  0.00     0.011 A 
ATOM     25 CL   UNL d   1      46.645 -20.195  44.481  0.00  0.00    -0.082 Cl
ATOM     26  C   UNL d   1      45.558 -18.307  44.365  0.00  0.00     0.004 A 
ENDBRANCH  18  20
ENDBRANCH   1  18
TORSDOF 7
ENDMDL
MODEL 2
REMARK VINA RESULT:      30.0      4.217      4.978
REMARK  7 active torsions:
REMARK  status: ('A' for Active; 'I' for Inactive)
REMARK    1  A    between atoms: C_3  and  C_1 
REMARK    2  A    between atoms: C_4  and  C_1 
REMARK    3  A    between atoms: N_2  and  C_6 
REMARK    4  A    between atoms: C_6  and  C_13 
REMARK    5  A    between atoms: O_12  and  C_14 
REMARK    6  A    between atoms: C_16  and  O_12 
REMARK    7  A    between atoms: C_13  and  C_16 
ROOT
ATOM      1  C   UNL d   1      46.096 -19.006  41.223  0.00  0.00     0.039 A 
ATOM      2  C   UNL d   1      46.640 -18.566  40.776  0.00  0.00     0.005 A 
ATOM      3  C   UNL d   1      45.292 -18.879  41.126  0.00  0.00     0.005 A 
ATOM      4  C   UNL d   1      45.565 -17.886  40.149  0.00  0.00     0.100 A 
ATOM      5  C   UNL d   1      46.369 -18.012  40.245  0.00  0.00     0.025 A 
ATOM      6  C   UNL d   1      45.026 -18.312  40.583  0.00  0.00     0.025 A 
ENDROOT
BRANCH   4   7
ATOM      7  O   UNL d   1      45.301 -17.312  39.599  0.00  0.00    -0.302 OA
BRANCH   7   8
ATOM      8  C   UNL d   1      45.141 -17.517  38.799  0.00  0.00     0.166 C 
BRANCH   8   9
ATOM      9  C   UNL d   1      44.899 -16.931  38.258  0.00  0.00     0.238 C 
ATOM     10  O   UNL d   1      44.119 -16.662  38.261  0.00  0.00    -0.283 OA
BRANCH   9  11
ATOM     11  C   UNL d   1      45.444 -16.620  37.717  0.00  0.00     0.125 C 
BRANCH  11  12
ATOM     12  N   UNL d   1      45.296 -15.889  37.351  0.00  0.00    -0.296 N 
ATOM     13  C   UNL d   1      44.520 -15.643  37.222  0.00  0.00     0.107 A 
ATOM     14  C   UNL d   1      44.385 -14.913  36.856  0.00  0.00     0.142 A 
ATOM     15  O   UNL d   1      45.023 -14.431  36.622  0.00  0.00    -0.300 OA
ATOM     16  C   UNL d   1      45.795 -14.689  36.758  0.00  0.00     0.142 A 
ATOM     17  C   UNL d   1      45.940 -15.413  37.120  0.00  0.00     0.107 A 
ENDBRANCH  11  12
ENDBRANCH   9  11
ENDBRANCH   8   9
ENDBRANCH   7   8
ENDBRANCH   4   7
BRANCH   1  18
ATOM     18  C   UNL d   1      46.364 -19.568  41.761  0.00  0.00     0.196 C 
ATOM     19  O   UNL d   1      46.575 -20.321  41.502  0.00  0.00    -0.287 OA
BRANCH  18  20
ATOM     20  C   UNL d   1      46.421 -19.374  42.559  0.00  0.00     0.039 A 
ATOM     21  C   UNL d   1      46.588 -18.596  42.785  0.00  0.00     0.004 A 
ATOM     22  C   UNL d   1      46.646 -18.399  43.579  0.00  0.00     0.011 A 
ATOM     23  C   UNL d   1      46.536 -18.983  44.157  0.00  0.00     0.058 A 
ATOM     24  C   UNL d   1      46.370 -19.760  43.932  0.00  0.00     0.011 A 
ATOM     25 CL   UNL d   1      46.594 -18.789  44.955  0.00  0.00    -0.082 Cl
ATOM     26  C   UNL d   1      46.313 -19.952  43.131  0.00  0.00     0.004 A 
ENDBRANCH  18  20
ENDBRANCH   1  18
TORSDOF 7
ENDMDL
