MODEL 1
REMARK VINA RESULT:      77.9      0.000      0.000
REMARK  6 active torsions:
REMARK  status: ('A' for Active; 'I' for Inactive)
REMARK    1  A    between atoms: N_6  and  C_1 
REMARK    2  A    between atoms: C_4  and  C_2 
REMARK    3  A    between atoms: C_7  and  C_4 
REMARK    4  A    between atoms: C_8  and  C_4 
REMARK    5  A    between atoms: O_12  and  C_7 
REMARK    6  A    between atoms: C_16  and  O_12 
ROOT
ATOM      1  C   UNL d   1     -50.966  25.092  33.603  0.00  0.00     0.166 A 
ATOM      2  C   UNL d   1     -51.303  25.822  33.787  0.00  0.00     0.122 A 
ATOM      3  N   UNL d   1     -51.448  24.434  33.452  0.00  0.00    -0.225 NA
ATOM      4  N   UNL d   1     -52.126  25.894  33.822  0.00  0.00    -0.241 NA
ATOM      5  C   UNL d   1     -52.271  24.514  33.489  0.00  0.00     0.101 A 
ATOM      6  C   UNL d   1     -52.606  25.241  33.672  0.00  0.00     0.099 A 
ATOM      7  C   UNL d   1     -52.745  23.865  33.340  0.00  0.00     0.021 A 
ATOM      8  C   UNL d   1     -53.427  25.317  33.708  0.00  0.00     0.021 A 
ATOM      9  C   UNL d   1     -53.904  24.667  33.559  0.00  0.00     0.002 A 
ATOM     10  C   UNL d   1     -53.568  23.937  33.374  0.00  0.00     0.002 A 
ENDROOT
BRANCH   2  11
ATOM     11  C   UNL d   1     -50.820  26.480  33.938  0.00  0.00     0.105 C 
BRANCH  11  12
ATOM     12  C   UNL d   1     -50.610  26.670  34.713  0.00  0.00     0.303 C 
ATOM     13  O   UNL d   1     -51.160  26.584  35.319  0.00  0.00    -0.259 OA
BRANCH  12  14
ATOM     14  O   UNL d   1     -49.854  26.943  34.879  0.00  0.00    -0.273 OA
BRANCH  14  15
ATOM     15  C   UNL d   1     -49.338  27.570  35.002  0.00  0.00     0.103 A 
ATOM     16  C   UNL d   1     -49.158  27.804  35.773  0.00  0.00     0.025 A 
ATOM     17  C   UNL d   1     -48.644  28.429  35.901  0.00  0.00     0.002 A 
ATOM     18  C   UNL d   1     -48.310  28.818  35.265  0.00  0.00     0.000 A 
ATOM     19  C   UNL d   1     -48.486  28.589  34.501  0.00  0.00     0.002 A 
ATOM     20  C   UNL d   1     -49.005  27.958  34.366  0.00  0.00     0.025 A 
ENDBRANCH  14  15
ENDBRANCH  12  14
ENDBRANCH  11  12
BRANCH  11  21
ATOM     21  C   UNL d   1     -50.545  26.952  33.312  0.00  0.00     0.129 C 
ATOM     22  N   UNL d   1     -50.611  27.902  33.312  0.00  0.00    -0.146 N 
ENDBRANCH  11  21
ENDBRANCH   2  11
BRANCH   1  23
ATOM     23  N   UNL d   1     -50.143  25.013  33.567  0.00  0.00    -0.288 N 
ATOM     24  C   UNL d   1     -49.797  24.277  33.739  0.00  0.00     0.082 A 
ATOM     25  C   UNL d   1     -48.968  24.204  33.701  0.00  0.00     0.018 A 
ATOM     26  C   UNL d   1     -48.616  23.475  33.872  0.00  0.00     0.002 C 
ATOM     27  C   UNL d   1     -48.497  24.855  33.494  0.00  0.00     0.003 A 
ATOM     28  C   UNL d   1     -48.854  25.578  33.326  0.00  0.00     0.019 A 
ATOM     29  C   UNL d   1     -49.672  25.663  33.360  0.00  0.00     0.082 A 
ENDBRANCH   1  23
TORSDOF 6
ENDMDL
MODEL 2
REMARK VINA RESULT:      79.1      1.174      2.821
REMARK  6 active torsions:
REMARK  status: ('A' for Active; 'I' for Inactive)
REMARK    1  A    between atoms: N_6  and  C_1 
REMARK    2  A    between atoms: C_4  and  C_2 
REMARK    3  A    between atoms: C_7  and  C_4 
REMARK    4  A    between atoms: C_8  and  C_4 
REMARK    5  A    between atoms: O_12  and  C_7 
REMARK    6  A    between atoms: C_16  and  O_12 
ROOT
ATOM      1  C   UNL d   1     -50.876  25.888  33.412  0.00  0.00     0.166 A 
ATOM      2  C   UNL d   1     -50.103  26.158  33.512  0.00  0.00     0.122 A 
ATOM      3  N   UNL d   1     -51.031  25.076  33.345  0.00  0.00    -0.225 NA
ATOM      4  N   UNL d   1     -49.482  25.612  33.545  0.00  0.00    -0.241 NA
ATOM      5  C   UNL d   1     -50.404  24.537  33.378  0.00  0.00     0.101 A 
ATOM      6  C   UNL d   1     -49.635  24.805  33.478  0.00  0.00     0.099 A 
ATOM      7  C   UNL d   1     -50.560  23.737  33.312  0.00  0.00     0.021 A 
ATOM      8  C   UNL d   1     -49.013  24.264  33.511  0.00  0.00     0.021 A 
ATOM      9  C   UNL d   1     -49.166  23.461  33.445  0.00  0.00     0.002 A 
ATOM     10  C   UNL d   1     -49.939  23.191  33.345  0.00  0.00     0.002 A 
ENDROOT
BRANCH   2  11
ATOM     11  C   UNL d   1     -49.948  26.970  33.579  0.00  0.00     0.105 C 
BRANCH  11  12
ATOM     12  C   UNL d   1     -49.208  27.230  33.837  0.00  0.00     0.303 C 
ATOM     13  O   UNL d   1     -48.525  26.928  33.491  0.00  0.00    -0.259 OA
BRANCH  12  14
ATOM     14  O   UNL d   1     -49.154  27.787  34.437  0.00  0.00    -0.273 OA
BRANCH  14  15
ATOM     15  C   UNL d   1     -48.727  28.370  34.826  0.00  0.00     0.103 A 
ATOM     16  C   UNL d   1     -48.592  29.094  34.453  0.00  0.00     0.025 A 
ATOM     17  C   UNL d   1     -48.166  29.679  34.837  0.00  0.00     0.002 A 
ATOM     18  C   UNL d   1     -47.876  29.544  35.589  0.00  0.00     0.000 A 
ATOM     19  C   UNL d   1     -48.008  28.829  35.961  0.00  0.00     0.002 A 
ATOM     20  C   UNL d   1     -48.438  28.234  35.577  0.00  0.00     0.025 A 
ENDBRANCH  14  15
ENDBRANCH  12  14
ENDBRANCH  11  12
BRANCH  11  21
ATOM     21  C   UNL d   1     -50.534  27.528  33.388  0.00  0.00     0.129 C 
ATOM     22  N   UNL d   1     -50.962  28.073  34.040  0.00  0.00    -0.146 N 
ENDBRANCH  11  21
ENDBRANCH   2  11
BRANCH   1  23
ATOM     23  N   UNL d   1     -51.502  26.428  33.378  0.00  0.00    -0.288 N 
ATOM     24  C   UNL d   1     -52.284  26.146  33.375  0.00  0.00     0.082 A 
ATOM     25  C   UNL d   1     -52.909  26.695  33.340  0.00  0.00     0.018 A 
ATOM     26  C   UNL d   1     -53.690  26.422  33.337  0.00  0.00     0.002 C 
ATOM     27  C   UNL d   1     -52.754  27.510  33.310  0.00  0.00     0.003 A 
ATOM     28  C   UNL d   1     -51.973  27.775  33.315  0.00  0.00     0.019 A 
ATOM     29  C   UNL d   1     -51.346  27.243  33.348  0.00  0.00     0.082 A 
ENDBRANCH   1  23
TORSDOF 6
ENDMDL
MODEL 3
REMARK VINA RESULT:      80.4      1.580      3.244
REMARK  6 active torsions:
REMARK  status: ('A' for Active; 'I' for Inactive)
REMARK    1  A    between atoms: N_6  and  C_1 
REMARK    2  A    between atoms: C_4  and  C_2 
REMARK    3  A    between atoms: C_7  and  C_4 
REMARK    4  A    between atoms: C_8  and  C_4 
REMARK    5  A    between atoms: O_12  and  C_7 
REMARK    6  A    between atoms: C_16  and  O_12 
ROOT
ATOM      1  C   UNL d   1     -50.774  25.679  33.633  0.00  0.00     0.166 A 
ATOM      2  C   UNL d   1     -51.449  26.080  33.888  0.00  0.00     0.122 A 
ATOM      3  N   UNL d   1     -50.086  26.099  33.437  0.00  0.00    -0.225 NA
ATOM      4  N   UNL d   1     -51.434  26.905  33.948  0.00  0.00    -0.241 NA
ATOM      5  C   UNL d   1     -50.080  26.924  33.500  0.00  0.00     0.101 A 
ATOM      6  C   UNL d   1     -50.751  27.323  33.754  0.00  0.00     0.099 A 
ATOM      7  C   UNL d   1     -49.401  27.335  33.306  0.00  0.00     0.021 A 
ATOM      8  C   UNL d   1     -50.740  28.146  33.815  0.00  0.00     0.021 A 
ATOM      9  C   UNL d   1     -50.060  28.561  33.621  0.00  0.00     0.002 A 
ATOM     10  C   UNL d   1     -49.386  28.160  33.366  0.00  0.00     0.002 A 
ENDROOT
BRANCH   2  11
ATOM     11  C   UNL d   1     -52.137  25.660  34.084  0.00  0.00     0.105 C 
BRANCH  11  12
ATOM     12  C   UNL d   1     -52.346  25.554  34.875  0.00  0.00     0.303 C 
ATOM     13  O   UNL d   1     -53.013  25.112  35.067  0.00  0.00    -0.259 OA
BRANCH  12  14
ATOM     14  O   UNL d   1     -51.889  25.888  35.469  0.00  0.00    -0.273 OA
BRANCH  14  15
ATOM     15  C   UNL d   1     -51.796  26.101  36.257  0.00  0.00     0.103 A 
ATOM     16  C   UNL d   1     -51.130  26.531  36.487  0.00  0.00     0.025 A 
ATOM     17  C   UNL d   1     -51.032  26.745  37.272  0.00  0.00     0.002 A 
ATOM     18  C   UNL d   1     -51.594  26.532  37.825  0.00  0.00     0.000 A 
ATOM     19  C   UNL d   1     -52.255  26.106  37.601  0.00  0.00     0.002 A 
ATOM     20  C   UNL d   1     -52.358  25.887  36.808  0.00  0.00     0.025 A 
ENDBRANCH  14  15
ENDBRANCH  12  14
ENDBRANCH  11  12
BRANCH  11  21
ATOM     21  C   UNL d   1     -52.621  25.343  33.487  0.00  0.00     0.129 C 
ATOM     22  N   UNL d   1     -53.500  25.662  33.310  0.00  0.00    -0.146 N 
ENDBRANCH  11  21
ENDBRANCH   2  11
BRANCH   1  23
ATOM     23  N   UNL d   1     -50.782  24.854  33.571  0.00  0.00    -0.288 N 
ATOM     24  C   UNL d   1     -51.489  24.441  33.711  0.00  0.00     0.082 A 
ATOM     25  C   UNL d   1     -51.490  23.611  33.647  0.00  0.00     0.018 A 
ATOM     26  C   UNL d   1     -52.190  23.193  33.786  0.00  0.00     0.002 C 
ATOM     27  C   UNL d   1     -50.795  23.203  33.446  0.00  0.00     0.003 A 
ATOM     28  C   UNL d   1     -50.101  23.626  33.309  0.00  0.00     0.019 A 
ATOM     29  C   UNL d   1     -50.087  24.447  33.369  0.00  0.00     0.082 A 
ENDBRANCH   1  23
TORSDOF 6
ENDMDL
MODEL 4
REMARK VINA RESULT:      80.8      1.933      2.804
REMARK  6 active torsions:
REMARK  status: ('A' for Active; 'I' for Inactive)
REMARK    1  A    between atoms: N_6  and  C_1 
REMARK    2  A    between atoms: C_4  and  C_2 
REMARK    3  A    between atoms: C_7  and  C_4 
REMARK    4  A    between atoms: C_8  and  C_4 
REMARK    5  A    between atoms: O_12  and  C_7 
REMARK    6  A    between atoms: C_16  and  O_12 
ROOT
ATOM      1  C   UNL d   1     -51.415  25.580  34.025  0.00  0.00     0.166 A 
ATOM      2  C   UNL d   1     -51.813  25.690  34.739  0.00  0.00     0.122 A 
ATOM      3  N   UNL d   1     -51.590  24.927  33.543  0.00  0.00    -0.225 NA
ATOM      4  N   UNL d   1     -52.390  25.145  34.971  0.00  0.00    -0.241 NA
ATOM      5  C   UNL d   1     -52.168  24.386  33.784  0.00  0.00     0.101 A 
ATOM      6  C   UNL d   1     -52.565  24.496  34.494  0.00  0.00     0.099 A 
ATOM      7  C   UNL d   1     -52.339  23.744  33.308  0.00  0.00     0.021 A 
ATOM      8  C   UNL d   1     -53.141  23.954  34.730  0.00  0.00     0.021 A 
ATOM      9  C   UNL d   1     -53.314  23.309  34.255  0.00  0.00     0.002 A 
ATOM     10  C   UNL d   1     -52.915  23.198  33.541  0.00  0.00     0.002 A 
ENDROOT
BRANCH   2  11
ATOM     11  C   UNL d   1     -51.638  26.343  35.220  0.00  0.00     0.105 C 
BRANCH  11  12
ATOM     12  C   UNL d   1     -51.236  26.235  35.932  0.00  0.00     0.303 C 
ATOM     13  O   UNL d   1     -50.432  26.057  35.926  0.00  0.00    -0.259 OA
BRANCH  12  14
ATOM     14  O   UNL d   1     -51.636  26.304  36.645  0.00  0.00    -0.273 OA
BRANCH  14  15
ATOM     15  C   UNL d   1     -51.621  26.364  37.464  0.00  0.00     0.103 A 
ATOM     16  C   UNL d   1     -51.276  27.025  37.818  0.00  0.00     0.025 A 
ATOM     17  C   UNL d   1     -51.258  27.089  38.635  0.00  0.00     0.002 A 
ATOM     18  C   UNL d   1     -51.581  26.498  39.096  0.00  0.00     0.000 A 
ATOM     19  C   UNL d   1     -51.924  25.842  38.749  0.00  0.00     0.002 A 
ATOM     20  C   UNL d   1     -51.944  25.772  37.924  0.00  0.00     0.025 A 
ENDBRANCH  14  15
ENDBRANCH  12  14
ENDBRANCH  11  12
BRANCH  11  21
ATOM     21  C   UNL d   1     -51.865  27.108  34.989  0.00  0.00     0.129 C 
ATOM     22  N   UNL d   1     -52.768  27.409  35.010  0.00  0.00    -0.146 N 
ENDBRANCH  11  21
ENDBRANCH   2  11
BRANCH   1  23
ATOM     23  N   UNL d   1     -50.837  26.121  33.785  0.00  0.00    -0.288 N 
ATOM     24  C   UNL d   1     -51.047  26.917  33.668  0.00  0.00     0.082 A 
ATOM     25  C   UNL d   1     -50.460  27.456  33.427  0.00  0.00     0.018 A 
ATOM     26  C   UNL d   1     -50.662  28.250  33.309  0.00  0.00     0.002 C 
ATOM     27  C   UNL d   1     -49.679  27.204  33.306  0.00  0.00     0.003 A 
ATOM     28  C   UNL d   1     -49.485  26.412  33.425  0.00  0.00     0.019 A 
ATOM     29  C   UNL d   1     -50.056  25.868  33.664  0.00  0.00     0.082 A 
ENDBRANCH   1  23
TORSDOF 6
ENDMDL
