MODEL 1
REMARK VINA RESULT:      -6.5      0.000      0.000
REMARK  7 active torsions:
REMARK  status: ('A' for Active; 'I' for Inactive)
REMARK    1  A    between atoms: N_6  and  C_1 
REMARK    2  A    between atoms: N_8  and  C_2 
REMARK    3  A    between atoms: N_10  and  C_7 
REMARK    4  A    between atoms: C_13  and  N_8 
REMARK    5  A    between atoms: C_14  and  N_10 
REMARK    6  A    between atoms: C_15  and  C_13 
REMARK    7  A    between atoms: C_16  and  C_14 
ROOT
ATOM      1  C   UNL d   1     -47.261  14.136  22.739  0.00  0.00     0.201 A 
ATOM      2  C   UNL d   1     -47.558  13.429  23.053  0.00  0.00     0.206 A 
ATOM      3  N   UNL d   1     -47.030  12.845  23.303  0.00  0.00    -0.038 NA
ATOM      4  N   UNL d   1     -45.926  13.668  22.931  0.00  0.00    -0.036 NA
ATOM      5  C   UNL d   1     -46.447  14.256  22.678  0.00  0.00     0.227 A 
ATOM      6  C   UNL d   1     -46.216  12.965  23.243  0.00  0.00     0.753 A 
ATOM      7  N   UNL d   1     -46.160  14.976  22.359  0.00  0.00    -0.125 N 
ENDROOT
BRANCH   2   8
ATOM      8  N   UNL d   1     -48.392  13.307  23.115  0.00  0.00    -0.223 NA
BRANCH   8   9
ATOM      9  C   UNL d   1     -48.686  12.752  23.645  0.00  0.00     0.101 C 
BRANCH   9  10
ATOM     10  C   UNL d   1     -49.479  12.526  23.605  0.00  0.00     0.019 A 
ATOM     11  C   UNL d   1     -49.674  11.736  23.473  0.00  0.00     0.002 A 
ATOM     12  C   UNL d   1     -50.471  11.508  23.434  0.00  0.00     0.000 A 
ATOM     13  C   UNL d   1     -51.064  12.073  23.527  0.00  0.00     0.000 A 
ATOM     14  C   UNL d   1     -50.868  12.860  23.659  0.00  0.00     0.000 A 
ATOM     15  C   UNL d   1     -50.072  13.088  23.698  0.00  0.00     0.002 A 
ENDBRANCH   9  10
ENDBRANCH   8   9
ENDBRANCH   2   8
BRANCH   1  16
ATOM     16  N   UNL d   1     -47.808  14.735  22.482  0.00  0.00    -0.107 N 
ATOM     17  O   UNL d   1     -48.078  14.721  21.705  0.00  0.00    -0.531 OA
ATOM     18  O   UNL d   1     -48.066  15.324  23.004  0.00  0.00    -0.531 OA
ENDBRANCH   1  16
BRANCH   6  19
ATOM     19  N   UNL d   1     -45.695  12.377  23.495  0.00  0.00    -0.058 NA
BRANCH  19  20
ATOM     20  C   UNL d   1     -45.198  12.003  22.947  0.00  0.00     0.118 C 
BRANCH  20  21
ATOM     21  C   UNL d   1     -44.781  11.325  23.168  0.00  0.00     0.020 A 
ATOM     22  C   UNL d   1     -43.968  11.299  23.087  0.00  0.00     0.002 A 
ATOM     23  C   UNL d   1     -43.552  10.622  23.307  0.00  0.00     0.000 A 
ATOM     24  C   UNL d   1     -43.959   9.971  23.609  0.00  0.00     0.000 A 
ATOM     25  C   UNL d   1     -44.779  10.000  23.690  0.00  0.00     0.000 A 
ATOM     26  C   UNL d   1     -45.188  10.675  23.470  0.00  0.00     0.002 A 
ENDBRANCH  20  21
ENDBRANCH  19  20
ENDBRANCH   6  19
TORSDOF 7
ENDMDL
MODEL 2
REMARK VINA RESULT:      -5.3      7.989      9.640
REMARK  7 active torsions:
REMARK  status: ('A' for Active; 'I' for Inactive)
REMARK    1  A    between atoms: N_6  and  C_1 
REMARK    2  A    between atoms: N_8  and  C_2 
REMARK    3  A    between atoms: N_10  and  C_7 
REMARK    4  A    between atoms: C_13  and  N_8 
REMARK    5  A    between atoms: C_14  and  N_10 
REMARK    6  A    between atoms: C_15  and  C_13 
REMARK    7  A    between atoms: C_16  and  C_14 
ROOT
ATOM      1  C   UNL d   1     -40.480  14.966  18.868  0.00  0.00     0.201 A 
ATOM      2  C   UNL d   1     -39.718  14.657  18.763  0.00  0.00     0.206 A 
ATOM      3  N   UNL d   1     -39.245  14.514  19.425  0.00  0.00    -0.038 NA
ATOM      4  N   UNL d   1     -40.284  14.983  20.283  0.00  0.00    -0.036 NA
ATOM      5  C   UNL d   1     -40.763  15.128  19.626  0.00  0.00     0.227 A 
ATOM      6  C   UNL d   1     -39.528  14.676  20.183  0.00  0.00     0.753 A 
ATOM      7  N   UNL d   1     -41.535  15.441  19.719  0.00  0.00    -0.125 N 
ENDROOT
BRANCH   2   8
ATOM      8  N   UNL d   1     -39.429  14.491  17.987  0.00  0.00    -0.223 NA
BRANCH   8   9
ATOM      9  C   UNL d   1     -38.683  14.162  17.889  0.00  0.00     0.101 C 
BRANCH   9  10
ATOM     10  C   UNL d   1     -38.435  13.918  17.141  0.00  0.00     0.019 A 
ATOM     11  C   UNL d   1     -38.281  13.121  16.998  0.00  0.00     0.002 A 
ATOM     12  C   UNL d   1     -38.032  12.876  16.246  0.00  0.00     0.000 A 
ATOM     13  C   UNL d   1     -37.940  13.430  15.643  0.00  0.00     0.000 A 
ATOM     14  C   UNL d   1     -38.094  14.225  15.787  0.00  0.00     0.000 A 
ATOM     15  C   UNL d   1     -38.343  14.470  16.538  0.00  0.00     0.002 A 
ENDBRANCH   9  10
ENDBRANCH   8   9
ENDBRANCH   2   8
BRANCH   1  16
ATOM     16  N   UNL d   1     -40.964  15.112  18.185  0.00  0.00    -0.107 N 
ATOM     17  O   UNL d   1     -41.333  14.476  17.813  0.00  0.00    -0.531 OA
ATOM     18  O   UNL d   1     -41.065  15.882  17.894  0.00  0.00    -0.531 OA
ENDBRANCH   1  16
BRANCH   6  19
ATOM     19  N   UNL d   1     -39.050  14.531  20.839  0.00  0.00    -0.058 NA
BRANCH  19  20
ATOM     20  C   UNL d   1     -39.313  14.021  21.437  0.00  0.00     0.118 C 
BRANCH  20  21
ATOM     21  C   UNL d   1     -38.854  13.911  22.114  0.00  0.00     0.020 A 
ATOM     22  C   UNL d   1     -38.539  13.175  22.281  0.00  0.00     0.002 A 
ATOM     23  C   UNL d   1     -38.080  13.066  22.958  0.00  0.00     0.000 A 
ATOM     24  C   UNL d   1     -37.940  13.701  23.465  0.00  0.00     0.000 A 
ATOM     25  C   UNL d   1     -38.259  14.442  23.295  0.00  0.00     0.000 A 
ATOM     26  C   UNL d   1     -38.714  14.546  22.622  0.00  0.00     0.002 A 
ENDBRANCH  20  21
ENDBRANCH  19  20
ENDBRANCH   6  19
TORSDOF 7
ENDMDL
MODEL 3
REMARK VINA RESULT:      -4.8      1.097      4.683
REMARK  7 active torsions:
REMARK  status: ('A' for Active; 'I' for Inactive)
REMARK    1  A    between atoms: N_6  and  C_1 
REMARK    2  A    between atoms: N_8  and  C_2 
REMARK    3  A    between atoms: N_10  and  C_7 
REMARK    4  A    between atoms: C_13  and  N_8 
REMARK    5  A    between atoms: C_14  and  N_10 
REMARK    6  A    between atoms: C_15  and  C_13 
REMARK    7  A    between atoms: C_16  and  C_14 
ROOT
ATOM      1  C   UNL d   1     -45.941  13.547  22.511  0.00  0.00     0.201 A 
ATOM      2  C   UNL d   1     -46.050  12.796  22.845  0.00  0.00     0.206 A 
ATOM      3  N   UNL d   1     -46.796  12.583  23.127  0.00  0.00    -0.038 NA
ATOM      4  N   UNL d   1     -47.316  13.856  22.747  0.00  0.00    -0.036 NA
ATOM      5  C   UNL d   1     -46.573  14.075  22.462  0.00  0.00     0.227 A 
ATOM      6  C   UNL d   1     -47.427  13.112  23.079  0.00  0.00     0.753 A 
ATOM      7  N   UNL d   1     -46.450  14.832  22.122  0.00  0.00    -0.125 N 
ENDROOT
BRANCH   2   8
ATOM      8  N   UNL d   1     -45.403  12.254  22.894  0.00  0.00    -0.223 NA
BRANCH   8   9
ATOM      9  C   UNL d   1     -45.473  11.573  23.349  0.00  0.00     0.101 C 
BRANCH   9  10
ATOM     10  C   UNL d   1     -44.862  11.019  23.356  0.00  0.00     0.019 A 
ATOM     11  C   UNL d   1     -44.985  10.275  23.691  0.00  0.00     0.002 A 
ATOM     12  C   UNL d   1     -44.372   9.718  23.698  0.00  0.00     0.000 A 
ATOM     13  C   UNL d   1     -43.640   9.909  23.370  0.00  0.00     0.000 A 
ATOM     14  C   UNL d   1     -43.518  10.651  23.036  0.00  0.00     0.000 A 
ATOM     15  C   UNL d   1     -44.131  11.208  23.029  0.00  0.00     0.002 A 
ENDBRANCH   9  10
ENDBRANCH   8   9
ENDBRANCH   2   8
BRANCH   1  16
ATOM     16  N   UNL d   1     -45.172  13.762  22.220  0.00  0.00    -0.107 N 
ATOM     17  O   UNL d   1     -44.754  14.359  22.602  0.00  0.00    -0.531 OA
ATOM     18  O   UNL d   1     -44.845  13.377  21.563  0.00  0.00    -0.531 OA
ENDBRANCH   1  16
BRANCH   6  19
ATOM     19  N   UNL d   1     -48.170  12.893  23.363  0.00  0.00    -0.058 NA
BRANCH  19  20
ATOM     20  C   UNL d   1     -48.796  12.774  22.834  0.00  0.00     0.118 C 
BRANCH  20  21
ATOM     21  C   UNL d   1     -49.546  12.586  23.122  0.00  0.00     0.020 A 
ATOM     22  C   UNL d   1     -50.128  13.160  23.157  0.00  0.00     0.002 A 
ATOM     23  C   UNL d   1     -50.877  12.972  23.445  0.00  0.00     0.000 A 
ATOM     24  C   UNL d   1     -51.039  12.204  23.698  0.00  0.00     0.000 A 
ATOM     25  C   UNL d   1     -50.451  11.627  23.662  0.00  0.00     0.000 A 
ATOM     26  C   UNL d   1     -49.708  11.818  23.375  0.00  0.00     0.002 A 
ENDBRANCH  20  21
ENDBRANCH  19  20
ENDBRANCH   6  19
TORSDOF 7
ENDMDL
MODEL 4
REMARK VINA RESULT:      -4.6      9.012      9.673
REMARK  7 active torsions:
REMARK  status: ('A' for Active; 'I' for Inactive)
REMARK    1  A    between atoms: N_6  and  C_1 
REMARK    2  A    between atoms: N_8  and  C_2 
REMARK    3  A    between atoms: N_10  and  C_7 
REMARK    4  A    between atoms: C_13  and  N_8 
REMARK    5  A    between atoms: C_14  and  N_10 
REMARK    6  A    between atoms: C_15  and  C_13 
REMARK    7  A    between atoms: C_16  and  C_14 
ROOT
ATOM      1  C   UNL d   1     -38.647  13.319  18.379  0.00  0.00     0.201 A 
ATOM      2  C   UNL d   1     -38.957  14.077  18.509  0.00  0.00     0.206 A 
ATOM      3  N   UNL d   1     -38.864  14.430  19.249  0.00  0.00    -0.038 NA
ATOM      4  N   UNL d   1     -38.160  13.283  19.722  0.00  0.00    -0.036 NA
ATOM      5  C   UNL d   1     -38.249  12.924  18.984  0.00  0.00     0.227 A 
ATOM      6  C   UNL d   1     -38.467  14.035  19.854  0.00  0.00     0.753 A 
ATOM      7  N   UNL d   1     -37.940  12.158  18.840  0.00  0.00    -0.125 N 
ENDROOT
BRANCH   2   8
ATOM      8  N   UNL d   1     -39.364  14.482  17.889  0.00  0.00    -0.223 NA
BRANCH   8   9
ATOM      9  C   UNL d   1     -39.821  15.143  18.062  0.00  0.00     0.101 C 
BRANCH   9  10
ATOM     10  C   UNL d   1     -40.390  15.403  17.524  0.00  0.00     0.019 A 
ATOM     11  C   UNL d   1     -40.201  15.467  16.724  0.00  0.00     0.002 A 
ATOM     12  C   UNL d   1     -40.773  15.728  16.184  0.00  0.00     0.000 A 
ATOM     13  C   UNL d   1     -41.530  15.922  16.448  0.00  0.00     0.000 A 
ATOM     14  C   UNL d   1     -41.717  15.857  17.246  0.00  0.00     0.000 A 
ATOM     15  C   UNL d   1     -41.145  15.597  17.787  0.00  0.00     0.002 A 
ENDBRANCH   9  10
ENDBRANCH   8   9
ENDBRANCH   2   8
BRANCH   1  16
ATOM     16  N   UNL d   1     -38.744  12.959  17.615  0.00  0.00    -0.107 N 
ATOM     17  O   UNL d   1     -38.141  13.031  17.059  0.00  0.00    -0.531 OA
ATOM     18  O   UNL d   1     -39.435  12.540  17.430  0.00  0.00    -0.531 OA
ENDBRANCH   1  16
BRANCH   6  19
ATOM     19  N   UNL d   1     -38.378  14.394  20.591  0.00  0.00    -0.058 NA
BRANCH  19  20
ATOM     20  C   UNL d   1     -38.977  14.324  21.160  0.00  0.00     0.118 C 
BRANCH  20  21
ATOM     21  C   UNL d   1     -38.829  14.544  21.941  0.00  0.00     0.020 A 
ATOM     22  C   UNL d   1     -38.649  13.976  22.501  0.00  0.00     0.002 A 
ATOM     23  C   UNL d   1     -38.501  14.196  23.281  0.00  0.00     0.000 A 
ATOM     24  C   UNL d   1     -38.534  14.992  23.496  0.00  0.00     0.000 A 
ATOM     25  C   UNL d   1     -38.716  15.563  22.930  0.00  0.00     0.000 A 
ATOM     26  C   UNL d   1     -38.862  15.340  22.156  0.00  0.00     0.002 A 
ENDBRANCH  20  21
ENDBRANCH  19  20
ENDBRANCH   6  19
TORSDOF 7
ENDMDL
MODEL 5
REMARK VINA RESULT:      -4.6      2.000      2.747
REMARK  7 active torsions:
REMARK  status: ('A' for Active; 'I' for Inactive)
REMARK    1  A    between atoms: N_6  and  C_1 
REMARK    2  A    between atoms: N_8  and  C_2 
REMARK    3  A    between atoms: N_10  and  C_7 
REMARK    4  A    between atoms: C_13  and  N_8 
REMARK    5  A    between atoms: C_14  and  N_10 
REMARK    6  A    between atoms: C_15  and  C_13 
REMARK    7  A    between atoms: C_16  and  C_14 
ROOT
ATOM      1  C   UNL d   1     -48.170  11.912  22.919  0.00  0.00     0.201 A 
ATOM      2  C   UNL d   1     -48.019  12.707  22.737  0.00  0.00     0.206 A 
ATOM      3  N   UNL d   1     -47.238  12.971  22.693  0.00  0.00    -0.038 NA
ATOM      4  N   UNL d   1     -46.766  11.662  23.008  0.00  0.00    -0.036 NA
ATOM      5  C   UNL d   1     -47.545  11.391  23.054  0.00  0.00     0.227 A 
ATOM      6  C   UNL d   1     -46.613  12.450  22.829  0.00  0.00     0.753 A 
ATOM      7  N   UNL d   1     -47.710  10.590  23.237  0.00  0.00    -0.125 N 
ENDROOT
BRANCH   2   8
ATOM      8  N   UNL d   1     -48.659  13.241  22.599  0.00  0.00    -0.223 NA
BRANCH   8   9
ATOM      9  C   UNL d   1     -48.519  14.050  22.568  0.00  0.00     0.101 C 
BRANCH   9  10
ATOM     10  C   UNL d   1     -49.143  14.580  22.671  0.00  0.00     0.019 A 
ATOM     11  C   UNL d   1     -49.719  14.656  22.085  0.00  0.00     0.002 A 
ATOM     12  C   UNL d   1     -50.346  15.188  22.189  0.00  0.00     0.000 A 
ATOM     13  C   UNL d   1     -50.391  15.641  22.876  0.00  0.00     0.000 A 
ATOM     14  C   UNL d   1     -49.816  15.565  23.459  0.00  0.00     0.000 A 
ATOM     15  C   UNL d   1     -49.189  15.033  23.356  0.00  0.00     0.002 A 
ENDBRANCH   9  10
ENDBRANCH   8   9
ENDBRANCH   2   8
BRANCH   1  16
ATOM     16  N   UNL d   1     -48.975  11.645  22.963  0.00  0.00    -0.107 N 
ATOM     17  O   UNL d   1     -49.376  11.466  22.266  0.00  0.00    -0.531 OA
ATOM     18  O   UNL d   1     -49.355  11.564  23.695  0.00  0.00    -0.531 OA
ENDBRANCH   1  16
BRANCH   6  19
ATOM     19  N   UNL d   1     -45.835  12.720  22.783  0.00  0.00    -0.058 NA
BRANCH  19  20
ATOM     20  C   UNL d   1     -45.490  12.862  22.043  0.00  0.00     0.118 C 
BRANCH  20  21
ATOM     21  C   UNL d   1     -44.675  12.773  21.948  0.00  0.00     0.020 A 
ATOM     22  C   UNL d   1     -44.290  12.133  22.280  0.00  0.00     0.002 A 
ATOM     23  C   UNL d   1     -43.476  12.045  22.184  0.00  0.00     0.000 A 
ATOM     24  C   UNL d   1     -43.051  12.604  21.752  0.00  0.00     0.000 A 
ATOM     25  C   UNL d   1     -43.441  13.249  21.417  0.00  0.00     0.000 A 
ATOM     26  C   UNL d   1     -44.250  13.332  21.515  0.00  0.00     0.002 A 
ENDBRANCH  20  21
ENDBRANCH  19  20
ENDBRANCH   6  19
TORSDOF 7
ENDMDL
MODEL 6
REMARK VINA RESULT:      -3.7      3.216      4.452
REMARK  7 active torsions:
REMARK  status: ('A' for Active; 'I' for Inactive)
REMARK    1  A    between atoms: N_6  and  C_1 
REMARK    2  A    between atoms: N_8  and  C_2 
REMARK    3  A    between atoms: N_10  and  C_7 
REMARK    4  A    between atoms: C_13  and  N_8 
REMARK    5  A    between atoms: C_14  and  N_10 
REMARK    6  A    between atoms: C_15  and  C_13 
REMARK    7  A    between atoms: C_16  and  C_14 
ROOT
ATOM      1  C   UNL d   1     -44.291  11.853  22.534  0.00  0.00     0.201 A 
ATOM      2  C   UNL d   1     -44.620  12.532  22.190  0.00  0.00     0.206 A 
ATOM      3  N   UNL d   1     -44.143  13.021  21.727  0.00  0.00    -0.038 NA
ATOM      4  N   UNL d   1     -43.026  12.163  21.949  0.00  0.00    -0.036 NA
ATOM      5  C   UNL d   1     -43.496  11.669  22.414  0.00  0.00     0.227 A 
ATOM      6  C   UNL d   1     -43.348  12.837  21.606  0.00  0.00     0.753 A 
ATOM      7  N   UNL d   1     -43.176  10.979  22.767  0.00  0.00    -0.125 N 
ENDROOT
BRANCH   2   8
ATOM      8  N   UNL d   1     -45.434  12.721  22.314  0.00  0.00    -0.223 NA
BRANCH   8   9
ATOM      9  C   UNL d   1     -45.723  13.456  22.089  0.00  0.00     0.101 C 
BRANCH   9  10
ATOM     10  C   UNL d   1     -46.511  13.651  22.236  0.00  0.00     0.019 A 
ATOM     11  C   UNL d   1     -46.693  14.260  22.762  0.00  0.00     0.002 A 
ATOM     12  C   UNL d   1     -47.484  14.456  22.910  0.00  0.00     0.000 A 
ATOM     13  C   UNL d   1     -48.088  14.041  22.531  0.00  0.00     0.000 A 
ATOM     14  C   UNL d   1     -47.906  13.434  22.007  0.00  0.00     0.000 A 
ATOM     15  C   UNL d   1     -47.114  13.238  21.859  0.00  0.00     0.002 A 
ENDBRANCH   9  10
ENDBRANCH   8   9
ENDBRANCH   2   8
BRANCH   1  16
ATOM     16  N   UNL d   1     -44.785  11.352  23.011  0.00  0.00    -0.107 N 
ATOM     17  O   UNL d   1     -44.901  10.570  22.781  0.00  0.00    -0.531 OA
ATOM     18  O   UNL d   1     -45.146  11.643  23.698  0.00  0.00    -0.531 OA
ENDBRANCH   1  16
BRANCH   6  19
ATOM     19  N   UNL d   1     -42.878  13.331  21.142  0.00  0.00    -0.058 NA
BRANCH  19  20
ATOM     20  C   UNL d   1     -42.078  13.439  21.333  0.00  0.00     0.118 C 
BRANCH  20  21
ATOM     21  C   UNL d   1     -41.625  13.982  20.907  0.00  0.00     0.020 A 
ATOM     22  C   UNL d   1     -41.449  14.713  21.231  0.00  0.00     0.002 A 
ATOM     23  C   UNL d   1     -40.996  15.255  20.805  0.00  0.00     0.000 A 
ATOM     24  C   UNL d   1     -40.721  15.058  20.053  0.00  0.00     0.000 A 
ATOM     25  C   UNL d   1     -40.900  14.321  19.729  0.00  0.00     0.000 A 
ATOM     26  C   UNL d   1     -41.350  13.786  20.155  0.00  0.00     0.002 A 
ENDBRANCH  20  21
ENDBRANCH  19  20
ENDBRANCH   6  19
TORSDOF 7
ENDMDL
MODEL 7
REMARK VINA RESULT:      -3.5      2.103      5.387
REMARK  7 active torsions:
REMARK  status: ('A' for Active; 'I' for Inactive)
REMARK    1  A    between atoms: N_6  and  C_1 
REMARK    2  A    between atoms: N_8  and  C_2 
REMARK    3  A    between atoms: N_10  and  C_7 
REMARK    4  A    between atoms: C_13  and  N_8 
REMARK    5  A    between atoms: C_14  and  N_10 
REMARK    6  A    between atoms: C_15  and  C_13 
REMARK    7  A    between atoms: C_16  and  C_14 
ROOT
ATOM      1  C   UNL d   1     -47.118  11.781  23.277  0.00  0.00     0.201 A 
ATOM      2  C   UNL d   1     -46.667  12.442  23.060  0.00  0.00     0.206 A 
ATOM      3  N   UNL d   1     -47.026  13.186  23.034  0.00  0.00    -0.038 NA
ATOM      4  N   UNL d   1     -48.269  12.613  23.438  0.00  0.00    -0.036 NA
ATOM      5  C   UNL d   1     -47.917  11.866  23.465  0.00  0.00     0.227 A 
ATOM      6  C   UNL d   1     -47.825  13.271  23.223  0.00  0.00     0.753 A 
ATOM      7  N   UNL d   1     -48.362  11.190  23.684  0.00  0.00    -0.125 N 
ENDROOT
BRANCH   2   8
ATOM      8  N   UNL d   1     -45.849  12.355  22.866  0.00  0.00    -0.223 NA
BRANCH   8   9
ATOM      9  C   UNL d   1     -45.436  12.986  22.540  0.00  0.00     0.101 C 
BRANCH   9  10
ATOM     10  C   UNL d   1     -44.707  12.856  22.177  0.00  0.00     0.019 A 
ATOM     11  C   UNL d   1     -44.505  13.277  21.497  0.00  0.00     0.002 A 
ATOM     12  C   UNL d   1     -43.772  13.147  21.132  0.00  0.00     0.000 A 
ATOM     13  C   UNL d   1     -43.247  12.596  21.450  0.00  0.00     0.000 A 
ATOM     14  C   UNL d   1     -43.449  12.177  22.128  0.00  0.00     0.000 A 
ATOM     15  C   UNL d   1     -44.182  12.308  22.493  0.00  0.00     0.002 A 
ENDBRANCH   9  10
ENDBRANCH   8   9
ENDBRANCH   2   8
BRANCH   1  16
ATOM     16  N   UNL d   1     -46.745  11.018  23.302  0.00  0.00    -0.107 N 
ATOM     17  O   UNL d   1     -47.110  10.382  22.927  0.00  0.00    -0.531 OA
ATOM     18  O   UNL d   1     -46.024  10.912  23.698  0.00  0.00    -0.531 OA
ENDBRANCH   1  16
BRANCH   6  19
ATOM     19  N   UNL d   1     -48.177  14.016  23.195  0.00  0.00    -0.058 NA
BRANCH  19  20
ATOM     20  C   UNL d   1     -48.792  14.163  22.659  0.00  0.00     0.118 C 
BRANCH  20  21
ATOM     21  C   UNL d   1     -49.391  14.695  22.858  0.00  0.00     0.020 A 
ATOM     22  C   UNL d   1     -50.166  14.534  22.653  0.00  0.00     0.002 A 
ATOM     23  C   UNL d   1     -50.764  15.066  22.852  0.00  0.00     0.000 A 
ATOM     24  C   UNL d   1     -50.578  15.760  23.258  0.00  0.00     0.000 A 
ATOM     25  C   UNL d   1     -49.795  15.919  23.463  0.00  0.00     0.000 A 
ATOM     26  C   UNL d   1     -49.205  15.388  23.263  0.00  0.00     0.002 A 
ENDBRANCH  20  21
ENDBRANCH  19  20
ENDBRANCH   6  19
TORSDOF 7
ENDMDL
