MODEL 1
REMARK VINA RESULT:      54.4      0.000      0.000
REMARK  5 active torsions:
REMARK  status: ('A' for Active; 'I' for Inactive)
REMARK    1  A    between atoms: S_10  and  C_6 
REMARK    2  A    between atoms: C_15  and  S_10 
REMARK    3  A    between atoms: C_11  and  C_15 
REMARK       I    between atoms: N_13  and  C_11 
REMARK    4  A    between atoms: C_17  and  N_13 
REMARK    5  A    between atoms: O_25  and  C_18 
ROOT
ATOM      1  C   UNL d   1     -50.969  24.236  33.316  0.00  0.00     0.155 A 
ATOM      2  C   UNL d   1     -51.502  24.869  33.328  0.00  0.00     0.107 A 
ATOM      3  N   UNL d   1     -49.877  25.158  33.328  0.00  0.00    -0.250 N 
ATOM      4  C   UNL d   1     -50.161  24.378  33.317  0.00  0.00     0.285 A 
ATOM      5  N   UNL d   1     -51.219  25.649  33.339  0.00  0.00    -0.220 NA
ATOM      6  C   UNL d   1     -50.407  25.783  33.339  0.00  0.00     0.182 A 
ATOM      7  N   UNL d   1     -51.403  23.535  33.307  0.00  0.00    -0.239 NA
ATOM      8  C   UNL d   1     -52.266  24.566  33.325  0.00  0.00     0.037 A 
ATOM      9  C   UNL d   1     -52.208  23.734  33.312  0.00  0.00     0.083 A 
ATOM     10  O   UNL d   1     -49.620  23.749  33.306  0.00  0.00    -0.265 OA
ATOM     11  C   UNL d   1     -49.061  25.304  33.328  0.00  0.00     0.104 C 
ATOM     12  C   UNL d   1     -53.006  24.924  33.332  0.00  0.00     0.003 A 
ATOM     13  C   UNL d   1     -52.893  23.270  33.306  0.00  0.00     0.019 A 
ATOM     14  C   UNL d   1     -53.691  24.460  33.327  0.00  0.00     0.000 A 
ATOM     15  C   UNL d   1     -53.632  23.638  33.314  0.00  0.00     0.002 A 
ENDROOT
BRANCH   6  16
ATOM     16  S   UNL d   1     -50.122  26.558  33.350  0.00  0.00    -0.044 SA
BRANCH  16  17
ATOM     17  C   UNL d   1     -50.201  27.021  34.028  0.00  0.00     0.101 C 
BRANCH  17  18
ATOM     18  C   UNL d   1     -49.678  27.640  34.169  0.00  0.00     0.286 C 
ATOM     19  N   UNL d   1     -49.187  27.610  34.824  0.00  0.00    -0.208 NA
ATOM     20  O   UNL d   1     -49.639  28.284  33.665  0.00  0.00    -0.265 OA
BRANCH  19  21
ATOM     21  C   UNL d   1     -48.657  28.231  34.971  0.00  0.00     0.085 A 
ATOM     22  C   UNL d   1     -48.718  28.663  35.656  0.00  0.00     0.021 A 
ATOM     23  C   UNL d   1     -48.188  29.284  35.803  0.00  0.00     0.026 A 
ATOM     24  C   UNL d   1     -47.600  29.463  35.254  0.00  0.00     0.094 A 
ATOM     25  C   UNL d   1     -47.546  29.011  34.551  0.00  0.00     0.026 A 
ATOM     26  C   UNL d   1     -48.074  28.399  34.414  0.00  0.00     0.021 A 
BRANCH  24  27
ATOM     27  O   UNL d   1     -47.075  30.087  35.412  0.00  0.00    -0.328 OA
ATOM     28  C   UNL d   1     -47.244  30.632  36.002  0.00  0.00     0.181 C 
ENDBRANCH  24  27
ENDBRANCH  19  21
ENDBRANCH  17  18
ENDBRANCH  16  17
ENDBRANCH   6  16
TORSDOF 5
ENDMDL
