MODEL 1
REMARK VINA RESULT:       4.2      0.000      0.000
REMARK  6 active torsions:
REMARK  status: ('A' for Active; 'I' for Inactive)
REMARK    1  A    between atoms: N_3  and  C_1 
REMARK    2  A    between atoms: S_2  and  C_10 
REMARK    3  A    between atoms: N_8  and  S_2 
REMARK       I    between atoms: C_9  and  N_3 
REMARK    4  A    between atoms: C_23  and  N_4 
REMARK    5  A    between atoms: C_13  and  C_9 
REMARK    6  A    between atoms: O_25  and  C_14 
ROOT
ATOM      1  N   UNL d   1     -41.823-122.571 -52.861  0.00  0.00    -0.184 NA
ATOM      2  C   UNL d   1     -41.527-123.192 -52.392  0.00  0.00     0.281 C 
ATOM      3  O   UNL d   1     -41.123-123.818 -52.748  0.00  0.00    -0.265 OA
ENDROOT
BRANCH   2   4
ATOM      4  C   UNL d   1     -41.640-123.181 -51.571  0.00  0.00     0.058 A 
ATOM      5  C   UNL d   1     -42.247-123.625 -51.239  0.00  0.00     0.005 A 
ATOM      6  C   UNL d   1     -42.360-123.615 -50.421  0.00  0.00     0.013 A 
ATOM      7  C   UNL d   1     -41.865-123.160 -49.937  0.00  0.00     0.104 A 
ATOM      8  C   UNL d   1     -41.252-122.713 -50.283  0.00  0.00     0.013 A 
ATOM      9  C   UNL d   1     -41.136-122.721 -51.101  0.00  0.00     0.005 A 
BRANCH   7  10
ATOM     10  S   UNL d   1     -41.977-123.149 -49.119  0.00  0.00     0.272 S 
ATOM     11  O   UNL d   1     -42.798-123.145 -49.269  0.00  0.00    -0.200 OA
ATOM     12  O   UNL d   1     -41.169-123.153 -48.977  0.00  0.00    -0.200 OA
BRANCH  10  13
ATOM     13  N   UNL d   1     -42.091-123.138 -48.304  0.00  0.00    -0.225 N 
ATOM     14  C   UNL d   1     -42.846-123.036 -48.005  0.00  0.00     0.118 A 
ATOM     15  C   UNL d   1     -42.964-123.025 -47.188  0.00  0.00     0.142 A 
ATOM     16  O   UNL d   1     -42.323-123.116 -46.676  0.00  0.00    -0.300 OA
ATOM     17  C   UNL d   1     -41.565-123.218 -46.983  0.00  0.00     0.142 A 
ATOM     18  C   UNL d   1     -41.447-123.230 -47.800  0.00  0.00     0.118 A 
ENDBRANCH  10  13
ENDBRANCH   7  10
ENDBRANCH   2   4
BRANCH   1  19
ATOM     19  C   UNL d   1     -41.706-122.587 -53.689  0.00  0.00     0.182 A 
ATOM     20  N   UNL d   1     -41.883-121.979 -54.206  0.00  0.00    -0.283 N 
ATOM     21  C   UNL d   1     -41.686-122.216 -54.971  0.00  0.00     0.094 A 
ATOM     22  C   UNL d   1     -41.744-121.830 -55.713  0.00  0.00     0.111 A 
ATOM     23  C   UNL d   1     -41.384-122.977 -54.931  0.00  0.00     0.050 A 
ATOM     24  C   UNL d   1     -41.496-122.222 -56.390  0.00  0.00     0.026 A 
ATOM     25  C   UNL d   1     -41.192-122.986 -56.357  0.00  0.00     0.003 A 
ATOM     26  C   UNL d   1     -41.136-123.365 -55.623  0.00  0.00     0.008 A 
ATOM     27  S   UNL d   1     -41.393-123.216 -54.141  0.00  0.00    -0.048 SA
BRANCH  20  28
ATOM     28  C   UNL d   1     -42.206-121.246 -54.004  0.00  0.00     0.082 C 
ATOM     29  C   UNL d   1     -42.998-121.112 -53.816  0.00  0.00     0.021 C 
ENDBRANCH  20  28
BRANCH  22  30
ATOM     30  O   UNL d   1     -42.043-121.074 -55.755  0.00  0.00    -0.327 OA
ATOM     31  C   UNL d   1     -42.042-120.670 -56.467  0.00  0.00     0.181 C 
ENDBRANCH  22  30
ENDBRANCH   1  19
TORSDOF 6
ENDMDL
