MODEL 1
REMARK VINA RESULT:       2.9      0.000      0.000
REMARK  5 active torsions:
REMARK  status: ('A' for Active; 'I' for Inactive)
REMARK    1  A    between atoms: C_3  and  C_1 
REMARK    2  A    between atoms: S_2  and  C_3 
REMARK    3  A    between atoms: C_7  and  S_2 
REMARK    4  A    between atoms: C_9  and  C_3 
REMARK    5  A    between atoms: N_8  and  C_4 
ROOT
ATOM      1  C   UNL d   1     -41.753-122.167 -52.349  0.00  0.00     0.128 A 
ATOM      2  C   UNL d   1     -41.438-121.497 -52.713  0.00  0.00     0.166 A 
ATOM      3  N   UNL d   1     -41.878-122.852 -52.785  0.00  0.00    -0.240 NA
ATOM      4  N   UNL d   1     -41.247-121.517 -53.520  0.00  0.00    -0.225 NA
ATOM      5  C   UNL d   1     -41.689-122.868 -53.581  0.00  0.00     0.099 A 
ATOM      6  C   UNL d   1     -41.375-122.203 -53.947  0.00  0.00     0.101 A 
ATOM      7  C   UNL d   1     -41.186-122.226 -54.754  0.00  0.00     0.021 A 
ATOM      8  C   UNL d   1     -41.815-123.557 -54.016  0.00  0.00     0.021 A 
ATOM      9  C   UNL d   1     -41.627-123.576 -54.814  0.00  0.00     0.002 A 
ATOM     10  C   UNL d   1     -41.313-122.913 -55.181  0.00  0.00     0.002 A 
ENDROOT
BRANCH   1  11
ATOM     11  C   UNL d   1     -41.943-122.151 -51.549  0.00  0.00     0.129 C 
BRANCH  11  12
ATOM     12  S   UNL d   1     -41.663-122.830 -51.043  0.00  0.00     0.213 S 
ATOM     13  O   UNL d   1     -41.378-122.982 -51.807  0.00  0.00    -0.217 OA
ATOM     14  O   UNL d   1     -41.181-123.465 -51.441  0.00  0.00    -0.217 OA
BRANCH  12  15
ATOM     15  C   UNL d   1     -41.755-123.017 -50.237  0.00  0.00     0.088 A 
ATOM     16  C   UNL d   1     -42.470-123.322 -49.963  0.00  0.00     0.011 A 
ATOM     17  C   UNL d   1     -42.565-123.510 -49.161  0.00  0.00     0.001 A 
ATOM     18  C   UNL d   1     -43.279-123.814 -48.886  0.00  0.00     0.000 C 
ATOM     19  C   UNL d   1     -41.933-123.388 -48.638  0.00  0.00     0.000 A 
ATOM     20  C   UNL d   1     -41.213-123.081 -48.917  0.00  0.00     0.001 A 
ATOM     21  C   UNL d   1     -42.019-123.572 -47.843  0.00  0.00     0.000 C 
ATOM     22  C   UNL d   1     -41.126-122.896 -49.717  0.00  0.00     0.011 A 
ENDBRANCH  12  15
ENDBRANCH  11  12
BRANCH  11  23
ATOM     23  C   UNL d   1     -42.384-121.566 -51.095  0.00  0.00     0.135 C 
ATOM     24  N   UNL d   1     -43.222-121.297 -51.219  0.00  0.00    -0.146 N 
ENDBRANCH  11  23
ENDBRANCH   1  11
BRANCH   2  25
ATOM     25  N   UNL d   1     -41.314-120.807 -52.264  0.00  0.00    -0.288 N 
ATOM     26  C   UNL d   1     -41.242-120.768 -51.441  0.00  0.00     0.082 A 
ATOM     27  C   UNL d   1     -41.124-119.964 -51.233  0.00  0.00     0.021 A 
ATOM     28  C   UNL d   1     -41.124-119.512 -51.935  0.00  0.00     0.021 A 
ATOM     29  C   UNL d   1     -41.242-120.036 -52.578  0.00  0.00     0.082 A 
ENDBRANCH   2  25
TORSDOF 5
ENDMDL
