MODEL 1
REMARK VINA RESULT:       0.9      0.000      0.000
REMARK  5 active torsions:
REMARK  status: ('A' for Active; 'I' for Inactive)
REMARK    1  A    between atoms: C_7  and  C_1 
REMARK    2  A    between atoms: C_12  and  N_2 
REMARK    3  A    between atoms: C_8  and  C_7 
REMARK    4  A    between atoms: O_25  and  C_20 
REMARK    5  A    between atoms: C_26  and  O_25 
ROOT
ATOM      1  N   UNL d   1     -42.011-122.648 -52.383  0.00  0.00    -0.242 N 
ATOM      2  C   UNL d   1     -41.640-123.242 -51.927  0.00  0.00     0.267 A 
ATOM      3  C   UNL d   1     -42.480-122.196 -51.874  0.00  0.00     0.267 A 
ATOM      4  C   UNL d   1     -42.401-122.503 -51.114  0.00  0.00     0.062 A 
ATOM      5  C   UNL d   1     -41.884-123.150 -51.144  0.00  0.00     0.066 A 
ATOM      6  O   UNL d   1     -41.123-123.817 -52.216  0.00  0.00    -0.267 OA
ATOM      7  O   UNL d   1     -42.943-121.550 -52.092  0.00  0.00    -0.267 OA
ENDROOT
BRANCH   4   8
ATOM      8  C   UNL d   1     -42.770-122.221 -50.444  0.00  0.00     0.018 C 
BRANCH   8   9
ATOM      9  C   UNL d   1     -42.489-122.544 -49.735  0.00  0.00     0.045 A 
ATOM     10  N   UNL d   1     -41.748-122.432 -49.396  0.00  0.00    -0.308 N 
ATOM     11  C   UNL d   1     -41.716-122.859 -48.694  0.00  0.00     0.060 A 
ATOM     12  C   UNL d   1     -41.149-121.972 -49.710  0.00  0.00     0.099 C 
ATOM     13  C   UNL d   1     -41.124-122.951 -48.135  0.00  0.00     0.017 A 
ATOM     14  C   UNL d   1     -42.442-123.239 -48.596  0.00  0.00    -0.002 A 
ATOM     15  C   UNL d   1     -41.250-123.422 -47.474  0.00  0.00     0.002 A 
ATOM     16  C   UNL d   1     -41.984-123.803 -47.379  0.00  0.00    -0.000 A 
ATOM     17  C   UNL d   1     -42.576-123.711 -47.938  0.00  0.00    -0.003 A 
ATOM     18  C   UNL d   1     -42.919-123.044 -49.240  0.00  0.00     0.054 A 
ATOM     19  C   UNL d   1     -43.238-123.549 -48.658  0.00  0.00     0.010 C 
ATOM     20  C   UNL d   1     -43.697-123.334 -49.321  0.00  0.00     0.010 C 
ENDBRANCH   8   9
ENDBRANCH   4   8
BRANCH   1  21
ATOM     21  C   UNL d   1     -41.922-122.539 -53.190  0.00  0.00     0.070 A 
ATOM     22  C   UNL d   1     -42.337-123.010 -53.722  0.00  0.00     0.020 A 
ATOM     23  C   UNL d   1     -42.245-122.896 -54.542  0.00  0.00     0.026 A 
ATOM     24  C   UNL d   1     -41.737-122.311 -54.823  0.00  0.00     0.100 A 
ATOM     25  C   UNL d   1     -41.317-121.835 -54.288  0.00  0.00     0.026 A 
ATOM     26  C   UNL d   1     -41.408-121.947 -53.475  0.00  0.00     0.020 A 
BRANCH  24  27
ATOM     27  O   UNL d   1     -41.641-122.194 -55.633  0.00  0.00    -0.305 OA
BRANCH  27  28
ATOM     28  C   UNL d   1     -41.670-121.438 -55.952  0.00  0.00     0.123 C 
ATOM     29  C   UNL d   1     -41.826-121.328 -56.753  0.00  0.00     0.029 C 
ENDBRANCH  27  28
ENDBRANCH  24  27
ENDBRANCH   1  21
TORSDOF 5
ENDMDL
