MODEL 1
REMARK VINA RESULT:      25.4      0.000      0.000
REMARK  4 active torsions:
REMARK  status: ('A' for Active; 'I' for Inactive)
REMARK    1  A    between atoms: C_9  and  C_3 
REMARK    2  A    between atoms: C_11  and  C_8 
REMARK    3  A    between atoms: N_10  and  C_11 
REMARK    4  A    between atoms: C_18  and  N_10 
ROOT
ATOM      1  N   UNL d   1     -57.450 -98.758 -44.563  0.00  0.00    -0.267 N 
ATOM      2  C   UNL d   1     -57.262 -98.757 -45.367  0.00  0.00     0.201 A 
ATOM      3  C   UNL d   1     -58.275 -98.758 -44.495  0.00  0.00     0.171 A 
ATOM      4  N   UNL d   1     -58.587 -98.758 -45.253  0.00  0.00    -0.128 NA
ATOM      5  N   UNL d   1     -57.962 -98.757 -45.791  0.00  0.00    -0.121 NA
ATOM      6  S   UNL d   1     -56.437 -98.757 -45.434  0.00  0.00    -0.045 SA
ATOM      7  C   UNL d   1     -56.744 -98.759 -44.133  0.00  0.00     0.091 A 
ATOM      8  C   UNL d   1     -56.120 -98.758 -44.670  0.00  0.00     0.069 A 
ENDROOT
BRANCH   3   9
ATOM      9  C   UNL d   1     -58.701 -98.759 -43.783  0.00  0.00     0.036 A 
ATOM     10  C   UNL d   1     -58.293 -98.758 -43.067  0.00  0.00     0.004 A 
ATOM     11  C   UNL d   1     -58.710 -98.758 -42.354  0.00  0.00     0.007 A 
ATOM     12  C   UNL d   1     -59.535 -98.761 -42.365  0.00  0.00     0.035 A 
ATOM     13  C   UNL d   1     -59.944 -98.762 -43.074  0.00  0.00     0.007 A 
ATOM     14 BR   UNL d   1     -59.958 -98.762 -41.662  0.00  0.00    -0.049 Br
ATOM     15  C   UNL d   1     -59.519 -98.762 -43.785  0.00  0.00     0.004 A 
ENDBRANCH   3   9
BRANCH   8  16
ATOM     16  C   UNL d   1     -55.319 -98.758 -44.486  0.00  0.00     0.107 C 
BRANCH  16  17
ATOM     17  N   UNL d   1     -54.818 -99.320 -44.833  0.00  0.00    -0.243 NA
BRANCH  17  18
ATOM     18  C   UNL d   1     -54.814-100.101 -44.556  0.00  0.00     0.081 A 
ATOM     19  C   UNL d   1     -54.730-100.656 -45.158  0.00  0.00     0.019 A 
ATOM     20  C   UNL d   1     -54.735-101.405 -44.799  0.00  0.00     0.002 A 
ATOM     21  C   UNL d   1     -54.821-101.299 -43.982  0.00  0.00     0.002 A 
ATOM     22  C   UNL d   1     -54.870-100.493 -43.831  0.00  0.00     0.019 A 
ENDBRANCH  17  18
ENDBRANCH  16  17
ENDBRANCH   8  16
TORSDOF 4
ENDMDL
