MODEL 1
REMARK VINA RESULT:      -5.2      0.000      0.000
REMARK  4 active torsions:
REMARK  status: ('A' for Active; 'I' for Inactive)
REMARK    1  A    between atoms: C_2  and  S_1 
REMARK    2  A    between atoms: N_3  and  S_1 
REMARK    3  A    between atoms: C_4  and  C_9 
REMARK       I    between atoms: N_5  and  C_4 
REMARK    4  A    between atoms: C_6  and  N_5 
ROOT
ATOM      1  C   UNL d   1      58.549  -0.674  29.638  0.00  0.00     0.104 A 
ATOM      2  C   UNL d   1      58.169  -0.706  30.364  0.00  0.00     0.018 A 
ATOM      3  C   UNL d   1      57.768  -0.047  30.648  0.00  0.00     0.059 A 
ATOM      4  C   UNL d   1      58.529   0.026  29.191  0.00  0.00     0.012 A 
ATOM      5  C   UNL d   1      57.747   0.649  30.205  0.00  0.00     0.005 A 
ATOM      6  C   UNL d   1      58.129   0.682  29.475  0.00  0.00     0.001 A 
ATOM      7  C   UNL d   1      58.912   0.062  28.456  0.00  0.00     0.001 C 
ENDROOT
BRANCH   1   8
ATOM      8  S   UNL d   1      58.949  -1.329  29.353  0.00  0.00     0.271 S 
ATOM      9  O   UNL d   1      59.590  -1.137  29.833  0.00  0.00    -0.200 OA
ATOM     10  O   UNL d   1      58.308  -1.514  28.878  0.00  0.00    -0.200 OA
BRANCH   8  11
ATOM     11  N   UNL d   1      59.359  -1.985  29.074  0.00  0.00    -0.229 N 
ATOM     12  C   UNL d   1      58.869  -2.683  29.017  0.00  0.00     0.092 A 
ATOM     13  C   UNL d   1      58.979  -3.359  28.810  0.00  0.00     0.020 A 
ATOM     14  C   UNL d   1      59.697  -3.680  28.539  0.00  0.00     0.002 A 
ATOM     15  C   UNL d   1      60.452  -3.255  28.455  0.00  0.00     0.002 A 
ATOM     16  C   UNL d   1      60.618  -2.407  28.636  0.00  0.00     0.020 A 
ATOM     17  C   UNL d   1      60.067  -1.845  28.927  0.00  0.00     0.092 A 
ENDBRANCH   8  11
ENDBRANCH   1   8
BRANCH   3  18
ATOM     18  C   UNL d   1      57.390  -0.079  31.371  0.00  0.00     0.281 C 
ATOM     19  N   UNL d   1      56.693  -0.502  31.452  0.00  0.00    -0.187 NA
ATOM     20  O   UNL d   1      57.749   0.283  31.826  0.00  0.00    -0.265 OA
BRANCH  19  21
ATOM     21  C   UNL d   1      56.306  -0.535  32.189  0.00  0.00     0.194 A 
ATOM     22  N   UNL d   1      55.956   0.104  32.573  0.00  0.00    -0.106 NA
ATOM     23  O   UNL d   1      55.636  -0.179  33.292  0.00  0.00    -0.207 OA
ATOM     24  C   UNL d   1      55.793  -0.987  33.339  0.00  0.00     0.153 A 
ATOM     25  C   UNL d   1      56.208  -1.212  32.658  0.00  0.00     0.070 A 
ENDBRANCH  19  21
ENDBRANCH   3  18
TORSDOF 4
ENDMDL
