MODEL 1
REMARK VINA RESULT:      42.4      0.000      0.000
REMARK  4 active torsions:
REMARK  status: ('A' for Active; 'I' for Inactive)
REMARK    1  A    between atoms: N_6  and  C_1 
REMARK    2  A    between atoms: C_8  and  N_4 
REMARK    3  A    between atoms: C_9  and  N_6 
REMARK    4  A    between atoms: C_13  and  C_9 
ROOT
ATOM      1  C   UNL d   1      14.029  13.551  -3.315  0.00  0.00     0.157 A 
ATOM      2  C   UNL d   1      14.369  13.400  -2.579  0.00  0.00     0.298 A 
ATOM      3  N   UNL d   1      13.441  12.474  -2.781  0.00  0.00    -0.238 N 
ATOM      4  N   UNL d   1      14.002  12.732  -2.252  0.00  0.00    -0.209 N 
ATOM      5  C   UNL d   1      13.448  12.982  -3.457  0.00  0.00     0.104 A 
ATOM      6  O   UNL d   1      14.991  13.853  -2.217  0.00  0.00    -0.263 OA
ATOM      7  C   UNL d   1      12.900  11.780  -2.691  0.00  0.00     0.120 C 
ATOM      8  C   UNL d   1      12.945  12.912  -4.150  0.00  0.00     0.022 C 
ENDROOT
BRANCH   1   9
ATOM      9  N   UNL d   1      14.236  14.182  -3.843  0.00  0.00    -0.238 NA
BRANCH   9  10
ATOM     10  C   UNL d   1      13.866  14.919  -3.790  0.00  0.00     0.099 C 
BRANCH  10  11
ATOM     11  C   UNL d   1      14.297  15.612  -3.969  0.00  0.00     0.022 A 
ATOM     12  C   UNL d   1      14.559  16.081  -3.371  0.00  0.00     0.022 A 
ATOM     13  C   UNL d   1      14.989  16.773  -3.545  0.00  0.00     0.099 A 
ATOM     14  N   UNL d   1      15.150  16.987  -4.299  0.00  0.00    -0.242 NA
ATOM     15  C   UNL d   1      14.892  16.523  -4.925  0.00  0.00     0.099 A 
ATOM     16  C   UNL d   1      14.451  15.813  -4.754  0.00  0.00     0.022 A 
ENDBRANCH  10  11
ENDBRANCH   9  10
ENDBRANCH   1   9
BRANCH   4  17
ATOM     17  C   UNL d   1      14.205  12.409  -1.497  0.00  0.00     0.085 A 
ATOM     18  C   UNL d   1      14.975  12.174  -1.358  0.00  0.00     0.019 A 
ATOM     19  C   UNL d   1      15.179  11.849  -0.599  0.00  0.00     0.002 A 
ATOM     20  C   UNL d   1      14.601  11.779  -0.027  0.00  0.00     0.000 A 
ATOM     21  C   UNL d   1      13.826  12.014  -0.164  0.00  0.00     0.002 A 
ATOM     22  C   UNL d   1      13.622  12.340  -0.923  0.00  0.00     0.019 A 
ENDBRANCH   4  17
TORSDOF 4
ENDMDL
MODEL 2
REMARK VINA RESULT:      43.0      1.682      4.006
REMARK  4 active torsions:
REMARK  status: ('A' for Active; 'I' for Inactive)
REMARK    1  A    between atoms: N_6  and  C_1 
REMARK    2  A    between atoms: C_8  and  N_4 
REMARK    3  A    between atoms: C_9  and  N_6 
REMARK    4  A    between atoms: C_13  and  C_9 
ROOT
ATOM      1  C   UNL d   1      13.345  13.205  -2.797  0.00  0.00     0.157 A 
ATOM      2  C   UNL d   1      13.403  12.669  -3.421  0.00  0.00     0.298 A 
ATOM      3  N   UNL d   1      13.210  13.871  -3.950  0.00  0.00    -0.238 N 
ATOM      4  N   UNL d   1      13.319  13.086  -4.134  0.00  0.00    -0.209 N 
ATOM      5  C   UNL d   1      13.224  13.959  -3.109  0.00  0.00     0.104 A 
ATOM      6  O   UNL d   1      13.528  11.831  -3.347  0.00  0.00    -0.263 OA
ATOM      7  C   UNL d   1      13.093  14.540  -4.515  0.00  0.00     0.120 C 
ATOM      8  C   UNL d   1      13.131  14.695  -2.674  0.00  0.00     0.022 C 
ENDROOT
BRANCH   1   9
ATOM      9  N   UNL d   1      13.399  13.020  -1.971  0.00  0.00    -0.238 NA
BRANCH   9  10
ATOM     10  C   UNL d   1      13.975  12.498  -1.689  0.00  0.00     0.099 C 
BRANCH  10  11
ATOM     11  C   UNL d   1      14.545  12.767  -1.140  0.00  0.00     0.022 A 
ATOM     12  C   UNL d   1      14.332  13.298  -0.575  0.00  0.00     0.022 A 
ATOM     13  C   UNL d   1      14.897  13.567  -0.027  0.00  0.00     0.099 A 
ATOM     14  N   UNL d   1      15.655  13.312  -0.046  0.00  0.00    -0.242 NA
ATOM     15  C   UNL d   1      15.894  12.770  -0.614  0.00  0.00     0.099 A 
ATOM     16  C   UNL d   1      15.321  12.489  -1.179  0.00  0.00     0.022 A 
ENDBRANCH  10  11
ENDBRANCH   9  10
ENDBRANCH   1   9
BRANCH   4  17
ATOM     17  C   UNL d   1      13.347  12.720  -4.896  0.00  0.00     0.085 A 
ATOM     18  C   UNL d   1      13.933  12.940  -5.421  0.00  0.00     0.019 A 
ATOM     19  C   UNL d   1      13.961  12.572  -6.188  0.00  0.00     0.002 A 
ATOM     20  C   UNL d   1      13.402  12.008  -6.380  0.00  0.00     0.000 A 
ATOM     21  C   UNL d   1      12.813  11.786  -5.854  0.00  0.00     0.002 A 
ATOM     22  C   UNL d   1      12.784  12.154  -5.087  0.00  0.00     0.019 A 
ENDBRANCH   4  17
TORSDOF 4
ENDMDL
