MODEL 1
REMARK VINA RESULT:      22.2      0.000      0.000
REMARK  2 active torsions:
REMARK  status: ('A' for Active; 'I' for Inactive)
REMARK    1  A    between atoms: S_2  and  N_1 
REMARK    2  A    between atoms: C_8  and  S_2 
ROOT
ATOM      1  S   UNL d   1     -51.519  25.467  33.457  0.00  0.00     0.273 S 
ATOM      2  O   UNL d   1     -52.074  26.053  33.313  0.00  0.00    -0.200 OA
ATOM      3  O   UNL d   1     -50.954  24.883  33.601  0.00  0.00    -0.200 OA
ENDROOT
BRANCH   1   4
ATOM      4  N   UNL d   1     -50.928  26.041  33.415  0.00  0.00    -0.207 N 
ATOM      5  C   UNL d   1     -50.157  25.738  33.368  0.00  0.00     0.148 A 
ATOM      6  N   UNL d   1     -49.444  26.163  33.319  0.00  0.00    -0.198 NA
ATOM      7  C   UNL d   1     -49.326  26.964  33.306  0.00  0.00     0.066 A 
ATOM      8  C   UNL d   1     -50.366  26.519  33.376  0.00  0.00     0.169 A 
ATOM      9  C   UNL d   1     -49.883  27.565  33.337  0.00  0.00     0.066 A 
ATOM     10  N   UNL d   1     -50.706  27.503  33.390  0.00  0.00    -0.198 NA
ATOM     11  C   UNL d   1     -51.167  26.825  33.424  0.00  0.00     0.148 A 
ENDBRANCH   1   4
BRANCH   1  12
ATOM     12  C   UNL d   1     -52.115  24.900  33.497  0.00  0.00     0.104 A 
ATOM     13  C   UNL d   1     -51.934  24.125  33.715  0.00  0.00     0.014 A 
ATOM     14  C   UNL d   1     -52.530  23.558  33.756  0.00  0.00     0.012 A 
ATOM     15  C   UNL d   1     -53.309  23.764  33.578  0.00  0.00     0.058 A 
ATOM     16  C   UNL d   1     -53.491  24.539  33.360  0.00  0.00     0.012 A 
ATOM     17 CL   UNL d   1     -53.900  23.190  33.621  0.00  0.00    -0.082 Cl
ATOM     18  C   UNL d   1     -52.895  25.106  33.320  0.00  0.00     0.014 A 
ENDBRANCH   1  12
TORSDOF 2
ENDMDL
