MODEL 1
REMARK VINA RESULT:      75.6      0.000      0.000
REMARK  4 active torsions:
REMARK  status: ('A' for Active; 'I' for Inactive)
REMARK    1  A    between atoms: C_11  and  N_3 
REMARK    2  A    between atoms: C_10  and  C_5 
REMARK    3  A    between atoms: C_21  and  C_11 
REMARK    4  A    between atoms: N_12  and  C_21 
ROOT
ATOM      1  C   UNL d   1      41.853 -16.084  36.635  0.00  0.00     0.085 A 
ATOM      2  C   UNL d   1      42.313 -16.774  36.530  0.00  0.00     0.161 A 
ATOM      3  N   UNL d   1      43.141 -15.729  36.672  0.00  0.00    -0.268 N 
ATOM      4  C   UNL d   1      43.105 -16.550  36.553  0.00  0.00     0.288 A 
ATOM      5  C   UNL d   1      42.368 -15.445  36.722  0.00  0.00     0.095 A 
ATOM      6  C   UNL d   1      41.023 -16.140  36.637  0.00  0.00     0.201 A 
ATOM      7  O   UNL d   1      41.942 -17.503  36.429  0.00  0.00    -0.302 OA
ATOM      8  C   UNL d   1      40.663 -16.878  36.535  0.00  0.00     0.063 A 
ATOM      9  C   UNL d   1      41.120 -17.564  36.430  0.00  0.00     0.103 A 
ATOM     10  O   UNL d   1      43.757 -17.056  36.473  0.00  0.00    -0.264 OA
ATOM     11  O   UNL d   1      40.565 -15.462  36.740  0.00  0.00    -0.286 OA
ATOM     12  C   UNL d   1      39.839 -16.928  36.537  0.00  0.00     0.017 A 
ATOM     13  C   UNL d   1      40.745 -18.287  36.330  0.00  0.00     0.026 A 
ATOM     14  C   UNL d   1      39.472 -17.657  36.436  0.00  0.00     0.058 A 
ATOM     15  C   UNL d   1      39.926 -18.336  36.333  0.00  0.00     0.013 A 
ATOM     16 CL   UNL d   1      38.652 -17.705  36.439  0.00  0.00    -0.082 Cl
ENDROOT
BRANCH   3  17
ATOM     17  C   UNL d   1      43.828 -15.279  36.728  0.00  0.00     0.102 C 
BRANCH  17  18
ATOM     18  C   UNL d   1      44.559 -15.601  36.519  0.00  0.00     0.100 C 
BRANCH  18  19
ATOM     19  N   UNL d   1      45.257 -15.194  36.677  0.00  0.00    -0.298 N 
ATOM     20  C   UNL d   1      45.321 -14.407  36.466  0.00  0.00     0.107 A 
ATOM     21  C   UNL d   1      46.018 -14.000  36.624  0.00  0.00     0.142 A 
ATOM     22  O   UNL d   1      46.645 -14.383  36.992  0.00  0.00    -0.300 OA
ATOM     23  C   UNL d   1      46.573 -15.174  37.201  0.00  0.00     0.142 A 
ATOM     24  C   UNL d   1      45.876 -15.582  37.043  0.00  0.00     0.107 A 
ENDBRANCH  18  19
ENDBRANCH  17  18
ENDBRANCH   3  17
BRANCH   5  25
ATOM     25  C   UNL d   1      42.106 -14.670  36.836  0.00  0.00     0.116 A 
ATOM     26  O   UNL d   1      41.475 -14.297  36.444  0.00  0.00    -0.304 OA
ATOM     27  C   UNL d   1      41.413 -13.527  36.733  0.00  0.00     0.123 A 
ATOM     28  C   UNL d   1      41.999 -13.414  37.303  0.00  0.00     0.029 A 
ATOM     29  C   UNL d   1      42.430 -14.121  37.369  0.00  0.00     0.028 A 
ENDBRANCH   5  25
TORSDOF 4
ENDMDL
