MODEL 1
REMARK VINA RESULT:      10.5      0.000      0.000
REMARK  3 active torsions:
REMARK  status: ('A' for Active; 'I' for Inactive)
REMARK    1  A    between atoms: C_13  and  C_2 
REMARK    2  A    between atoms: C_10  and  C_4 
REMARK    3  A    between atoms: N_7  and  C_10 
ROOT
ATOM      1  N   UNL d   1      46.478 -17.281  43.345  0.00  0.00    -0.121 NA
ATOM      2  C   UNL d   1      46.255 -17.897  43.841  0.00  0.00     0.204 A 
ATOM      3  O   UNL d   1      45.893 -17.572  44.505  0.00  0.00    -0.267 OA
ATOM      4  C   UNL d   1      45.890 -16.748  44.420  0.00  0.00     0.222 A 
ATOM      5  N   UNL d   1      46.254 -16.569  43.699  0.00  0.00    -0.119 NA
ENDROOT
BRANCH   4   6
ATOM      6  C   UNL d   1      45.582 -16.200  44.955  0.00  0.00     0.127 C 
BRANCH   6   7
ATOM      7  N   UNL d   1      45.551 -15.401  44.755  0.00  0.00    -0.300 N 
ATOM      8  C   UNL d   1      46.186 -14.913  44.946  0.00  0.00     0.081 A 
ATOM      9  C   UNL d   1      46.162 -14.119  44.751  0.00  0.00     0.053 A 
ATOM     10  C   UNL d   1      45.503 -13.807  44.364  0.00  0.00     0.239 A 
ATOM     11  C   UNL d   1      44.864 -14.302  44.173  0.00  0.00     0.053 A 
ATOM     12  O   UNL d   1      44.818 -13.544  43.976  0.00  0.00    -0.298 OA
ATOM     13  O   UNL d   1      46.112 -13.278  44.532  0.00  0.00    -0.298 OA
ATOM     14  C   UNL d   1      44.894 -15.102  44.372  0.00  0.00     0.081 A 
ATOM     15  C   UNL d   1      44.940 -12.738  43.847  0.00  0.00     0.146 A 
ATOM     16  C   UNL d   1      45.845 -12.557  44.238  0.00  0.00     0.146 A 
ENDBRANCH   6   7
ENDBRANCH   4   6
BRANCH   2  17
ATOM     17  C   UNL d   1      46.375 -18.702  43.698  0.00  0.00     0.043 A 
ATOM     18  C   UNL d   1      46.525 -19.215  44.330  0.00  0.00     0.004 A 
ATOM     19  C   UNL d   1      46.644 -20.011  44.196  0.00  0.00     0.000 A 
ATOM     20  C   UNL d   1      46.615 -20.310  43.423  0.00  0.00     0.000 A 
ATOM     21  C   UNL d   1      46.466 -19.797  42.790  0.00  0.00     0.000 A 
ATOM     22  C   UNL d   1      46.347 -18.999  42.930  0.00  0.00     0.004 A 
ENDBRANCH   2  17
TORSDOF 3
ENDMDL
