MODEL 1
REMARK VINA RESULT:      76.4      0.000      0.000
REMARK  7 active torsions:
REMARK  status: ('A' for Active; 'I' for Inactive)
REMARK    1  A    between atoms: N_8  and  C_3 
REMARK    2  A    between atoms: C_10  and  C_5 
REMARK    3  A    between atoms: C_15  and  N_8 
REMARK    4  A    between atoms: N_12  and  C_10 
REMARK    5  A    between atoms: C_21  and  N_12 
REMARK    6  A    between atoms: O_22  and  C_16 
REMARK    7  A    between atoms: C_23  and  C_21 
ROOT
ATOM      1  N   UNL d   1     -58.339 -98.961 -43.952  0.00  0.00    -0.209 NA
ATOM      2  N   UNL d   1     -57.952 -98.882 -45.329  0.00  0.00    -0.258 N 
ATOM      3  C   UNL d   1     -57.554 -98.974 -43.721  0.00  0.00     0.170 A 
ATOM      4  C   UNL d   1     -58.549 -98.915 -44.760  0.00  0.00     0.152 A 
ATOM      5  C   UNL d   1     -56.958 -98.941 -44.290  0.00  0.00     0.111 A 
ATOM      6  C   UNL d   1     -57.148 -98.896 -45.092  0.00  0.00     0.270 A 
ATOM      7  C   UNL d   1     -59.333 -98.902 -44.992  0.00  0.00     0.035 A 
ATOM      8  C   UNL d   1     -58.142 -98.836 -46.132  0.00  0.00     0.084 A 
ATOM      9  O   UNL d   1     -56.535 -98.863 -45.657  0.00  0.00    -0.266 OA
ATOM     10  C   UNL d   1     -58.927 -98.823 -46.364  0.00  0.00     0.019 A 
ATOM     11  C   UNL d   1     -59.523 -98.856 -45.793  0.00  0.00     0.005 A 
ATOM     12  C   UNL d   1     -59.946 -98.934 -44.427  0.00  0.00     0.003 C 
ENDROOT
BRANCH   3  13
ATOM     13  N   UNL d   1     -57.370 -99.021 -42.898  0.00  0.00    -0.227 NA
BRANCH  13  14
ATOM     14  C   UNL d   1     -57.962 -98.995 -42.334  0.00  0.00     0.083 A 
ATOM     15  C   UNL d   1     -58.725 -99.181 -42.564  0.00  0.00     0.021 A 
ATOM     16  C   UNL d   1     -59.339 -99.159 -41.997  0.00  0.00     0.026 A 
ATOM     17  C   UNL d   1     -59.176 -98.955 -41.227  0.00  0.00     0.094 A 
ATOM     18  C   UNL d   1     -58.413 -98.769 -40.993  0.00  0.00     0.026 A 
ATOM     19  C   UNL d   1     -57.810 -98.788 -41.541  0.00  0.00     0.021 A 
BRANCH  17  20
ATOM     20  O   UNL d   1     -59.814 -98.938 -40.666  0.00  0.00    -0.328 OA
ATOM     21  C   UNL d   1     -59.947 -99.601 -40.163  0.00  0.00     0.181 C 
ENDBRANCH  17  20
ENDBRANCH  13  14
ENDBRANCH   3  13
BRANCH   5  22
ATOM     22  C   UNL d   1     -56.161 -98.955 -44.055  0.00  0.00     0.107 C 
BRANCH  22  23
ATOM     23  N   UNL d   1     -55.680 -99.588 -44.274  0.00  0.00    -0.242 NA
BRANCH  23  24
ATOM     24  C   UNL d   1     -55.446-100.134 -43.711  0.00  0.00     0.099 C 
BRANCH  24  25
ATOM     25  C   UNL d   1     -55.253-100.903 -43.942  0.00  0.00     0.019 A 
ATOM     26  C   UNL d   1     -55.366-101.524 -43.421  0.00  0.00     0.002 A 
ATOM     27  C   UNL d   1     -55.174-102.292 -43.651  0.00  0.00     0.000 A 
ATOM     28  C   UNL d   1     -54.870-102.440 -44.403  0.00  0.00     0.000 A 
ATOM     29  C   UNL d   1     -54.756-101.819 -44.925  0.00  0.00     0.000 A 
ATOM     30  C   UNL d   1     -54.948-101.051 -44.694  0.00  0.00     0.002 A 
ENDBRANCH  24  25
ENDBRANCH  23  24
ENDBRANCH  22  23
ENDBRANCH   5  22
TORSDOF 7
ENDMDL
