MODEL 1
REMARK VINA RESULT:      76.7      0.000      0.000
REMARK  5 active torsions:
REMARK  status: ('A' for Active; 'I' for Inactive)
REMARK    1  A    between atoms: C_11  and  N_1 
REMARK    2  A    between atoms: S_8  and  C_4 
REMARK    3  A    between atoms: C_6  and  S_8 
REMARK    4  A    between atoms: C_9  and  C_7 
REMARK    5  A    between atoms: N_10  and  C_13 
ROOT
ATOM      1  N   UNL d   1     -49.868  27.768  34.181  0.00  0.00    -0.241 N 
ATOM      2  C   UNL d   1     -50.060  28.495  33.846  0.00  0.00     0.268 A 
ATOM      3  C   UNL d   1     -49.220  27.869  34.660  0.00  0.00     0.273 A 
ATOM      4  C   UNL d   1     -49.001  28.673  34.625  0.00  0.00     0.092 A 
ATOM      5  C   UNL d   1     -49.527  29.047  34.120  0.00  0.00     0.072 A 
ATOM      6  O   UNL d   1     -50.676  28.669  33.322  0.00  0.00    -0.267 OA
ATOM      7  O   UNL d   1     -48.846  27.290  35.099  0.00  0.00    -0.266 OA
ENDROOT
BRANCH   1   8
ATOM      8  C   UNL d   1     -50.289  27.071  34.032  0.00  0.00     0.070 A 
ATOM      9  C   UNL d   1     -50.973  26.916  34.446  0.00  0.00     0.019 A 
ATOM     10  C   UNL d   1     -51.401  26.206  34.294  0.00  0.00     0.019 A 
ATOM     11  C   UNL d   1     -51.127  25.682  33.734  0.00  0.00     0.064 A 
ATOM     12  C   UNL d   1     -50.420  25.844  33.307  0.00  0.00     0.019 A 
ATOM     13  C   UNL d   1     -50.011  26.546  33.469  0.00  0.00     0.019 A 
BRANCH  11  14
ATOM     14  N   UNL d   1     -51.550  24.996  33.594  0.00  0.00    -0.300 N 
ATOM     15  C   UNL d   1     -52.384  25.023  33.494  0.00  0.00     0.107 A 
ATOM     16  C   UNL d   1     -52.798  24.319  33.353  0.00  0.00     0.142 A 
ATOM     17  O   UNL d   1     -52.416  23.592  33.307  0.00  0.00    -0.300 OA
ATOM     18  C   UNL d   1     -51.581  23.566  33.406  0.00  0.00     0.142 A 
ATOM     19  C   UNL d   1     -51.162  24.274  33.549  0.00  0.00     0.107 A 
ENDBRANCH  11  14
ENDBRANCH   1   8
BRANCH   4  20
ATOM     20  S   UNL d   1     -48.377  29.045  35.016  0.00  0.00    -0.063 SA
BRANCH  20  21
ATOM     21  C   UNL d   1     -48.199  29.841  34.879  0.00  0.00     0.117 A 
ATOM     22  C   UNL d   1     -47.679  30.246  35.381  0.00  0.00     0.088 A 
ATOM     23  C   UNL d   1     -47.509  31.031  35.238  0.00  0.00     0.010 A 
ATOM     24  C   UNL d   1     -47.844  31.420  34.610  0.00  0.00     0.021 A 
ATOM     25  C   UNL d   1     -48.358  31.033  34.106  0.00  0.00     0.100 A 
ATOM     26  N   UNL d   1     -48.535  30.231  34.248  0.00  0.00    -0.237 NA
BRANCH  22  27
ATOM     27  C   UNL d   1     -47.337  29.850  36.024  0.00  0.00     0.213 C 
ATOM     28  O   UNL d   1     -47.816  29.599  36.645  0.00  0.00    -0.644 OA
ATOM     29  O   UNL d   1     -46.520  29.712  36.036  0.00  0.00    -0.644 OA
ENDBRANCH  22  27
ENDBRANCH  20  21
ENDBRANCH   4  20
TORSDOF 5
ENDMDL
