MODEL 1
REMARK VINA RESULT:      69.1      0.000      0.000
REMARK  3 active torsions:
REMARK  status: ('A' for Active; 'I' for Inactive)
REMARK    1  A    between atoms: N_11  and  C_4 
REMARK       I    between atoms: C_5  and  N_9 
REMARK       I    between atoms: N_12  and  C_5 
REMARK    2  A    between atoms: C_6  and  C_7 
REMARK    3  A    between atoms: C_14  and  N_12 
ROOT
ATOM      1  C   UNL d   1      14.185  13.601  -2.613  0.00  0.00     0.354 C 
ATOM      2  N   UNL d   1      14.130  14.215  -3.174  0.00  0.00    -0.253 N 
ATOM      3  N   UNL d   1      14.025  15.433  -4.271  0.00  0.00    -0.285 N 
ATOM      4  N   UNL d   1      14.495  13.749  -1.862  0.00  0.00    -0.192 NA
ATOM      5  O   UNL d   1      13.927  12.838  -2.812  0.00  0.00    -0.244 OA
ATOM      6  C   UNL d   1      14.386  14.974  -2.976  0.00  0.00     0.104 A 
ATOM      7  C   UNL d   1      13.820  14.066  -3.925  0.00  0.00     0.104 A 
ATOM      8  C   UNL d   1      14.332  15.584  -3.529  0.00  0.00     0.101 A 
ATOM      9  C   UNL d   1      13.769  14.674  -4.469  0.00  0.00     0.101 A 
ENDROOT
BRANCH   4  10
ATOM     10  C   UNL d   1      14.548  13.138  -1.309  0.00  0.00     0.090 A 
ATOM     11  C   UNL d   1      14.875  13.282  -0.565  0.00  0.00     0.089 A 
ATOM     12  C   UNL d   1      14.927  12.673  -0.016  0.00  0.00     0.005 A 
ATOM     13  C   UNL d   1      14.655  11.923  -0.206  0.00  0.00     0.000 A 
ATOM     14  C   UNL d   1      14.326  11.780  -0.955  0.00  0.00     0.002 A 
ATOM     15  C   UNL d   1      14.275  12.389  -1.499  0.00  0.00     0.019 A 
BRANCH  11  16
ATOM     16  C   UNL d   1      15.149  14.037  -0.374  0.00  0.00     0.420 C 
ATOM     17  F   UNL d   1      15.423  14.791  -0.182  0.00  0.00    -0.166 F 
ATOM     18  F   UNL d   1      15.879  13.855  -0.703  0.00  0.00    -0.166 F 
ATOM     19  F   UNL d   1      14.416  14.219  -0.043  0.00  0.00    -0.166 F 
ENDBRANCH  11  16
ENDBRANCH   4  10
BRANCH   3  20
ATOM     20  C   UNL d   1      13.972  16.043  -4.824  0.00  0.00     0.168 A 
ATOM     21  N   UNL d   1      14.320  16.775  -4.668  0.00  0.00    -0.144 NA
ATOM     22  N   UNL d   1      14.266  17.381  -5.219  0.00  0.00    -0.187 N 
ATOM     23  C   UNL d   1      13.864  17.259  -5.930  0.00  0.00     0.187 A 
ATOM     24  C   UNL d   1      14.548  18.153  -5.224  0.00  0.00     0.224 A 
ATOM     25  N   UNL d   1      13.900  17.957  -6.368  0.00  0.00    -0.127 NA
ATOM     26  C   UNL d   1      13.516  16.532  -6.088  0.00  0.00     0.044 A 
ATOM     27  N   UNL d   1      14.328  18.508  -5.922  0.00  0.00    -0.124 NA
ATOM     28  C   UNL d   1      13.570  15.922  -5.534  0.00  0.00     0.042 A 
ENDBRANCH   3  20
TORSDOF 3
ENDMDL
MODEL 2
REMARK VINA RESULT:      70.5      1.285      1.714
REMARK  3 active torsions:
REMARK  status: ('A' for Active; 'I' for Inactive)
REMARK    1  A    between atoms: N_11  and  C_4 
REMARK       I    between atoms: C_5  and  N_9 
REMARK       I    between atoms: N_12  and  C_5 
REMARK    2  A    between atoms: C_6  and  C_7 
REMARK    3  A    between atoms: C_14  and  N_12 
ROOT
ATOM      1  C   UNL d   1      14.639  14.379  -1.887  0.00  0.00     0.354 C 
ATOM      2  N   UNL d   1      14.568  14.901  -2.533  0.00  0.00    -0.253 N 
ATOM      3  N   UNL d   1      14.424  15.921  -3.813  0.00  0.00    -0.285 N 
ATOM      4  N   UNL d   1      14.491  13.573  -1.985  0.00  0.00    -0.192 NA
ATOM      5  O   UNL d   1      14.860  14.673  -1.144  0.00  0.00    -0.244 OA
ATOM      6  C   UNL d   1      14.348  14.609  -3.272  0.00  0.00     0.104 A 
ATOM      7  C   UNL d   1      14.716  15.708  -2.434  0.00  0.00     0.104 A 
ATOM      8  C   UNL d   1      14.276  15.123  -3.913  0.00  0.00     0.101 A 
ATOM      9  C   UNL d   1      14.644  16.213  -3.073  0.00  0.00     0.101 A 
ENDROOT
BRANCH   4  10
ATOM     10  C   UNL d   1      14.563  13.059  -1.343  0.00  0.00     0.090 A 
ATOM     11  C   UNL d   1      14.268  12.289  -1.395  0.00  0.00     0.089 A 
ATOM     12  C   UNL d   1      14.341  11.779  -0.754  0.00  0.00     0.005 A 
ATOM     13  C   UNL d   1      14.705  12.033  -0.065  0.00  0.00     0.000 A 
ATOM     14  C   UNL d   1      15.001  12.807  -0.015  0.00  0.00     0.002 A 
ATOM     15  C   UNL d   1      14.928  13.313  -0.653  0.00  0.00     0.019 A 
BRANCH  11  16
ATOM     16  C   UNL d   1      13.902  12.034  -2.088  0.00  0.00     0.420 C 
ATOM     17  F   UNL d   1      13.535  11.779  -2.782  0.00  0.00    -0.166 F 
ATOM     18  F   UNL d   1      13.176  12.285  -1.797  0.00  0.00    -0.166 F 
ATOM     19  F   UNL d   1      14.631  11.782  -2.381  0.00  0.00    -0.166 F 
ENDBRANCH  11  16
ENDBRANCH   4  10
BRANCH   3  20
ATOM     20  C   UNL d   1      14.352  16.435  -4.454  0.00  0.00     0.168 A 
ATOM     21  N   UNL d   1      14.569  17.228  -4.376  0.00  0.00    -0.144 NA
ATOM     22  N   UNL d   1      14.497  17.737  -5.015  0.00  0.00    -0.187 N 
ATOM     23  C   UNL d   1      14.208  17.459  -5.736  0.00  0.00     0.187 A 
ATOM     24  C   UNL d   1      14.663  18.537  -5.108  0.00  0.00     0.224 A 
ATOM     25  N   UNL d   1      14.197  18.089  -6.269  0.00  0.00    -0.127 NA
ATOM     26  C   UNL d   1      13.991  16.671  -5.817  0.00  0.00     0.044 A 
ATOM     27  N   UNL d   1      14.483  18.755  -5.869  0.00  0.00    -0.124 NA
ATOM     28  C   UNL d   1      14.063  16.157  -5.175  0.00  0.00     0.042 A 
ENDBRANCH   3  20
TORSDOF 3
ENDMDL
