MODEL 1
REMARK VINA RESULT:      -5.5      0.000      0.000
REMARK  3 active torsions:
REMARK  status: ('A' for Active; 'I' for Inactive)
REMARK    1  A    between atoms: C_13  and  C_5 
REMARK       I    between atoms: C_7  and  N_12 
REMARK    2  A    between atoms: C_10  and  C_7 
REMARK    3  A    between atoms: N_12  and  C_15 
ROOT
ATOM      1  C   UNL d   1      58.673  -0.708  29.647  0.00  0.00     0.021 A 
ATOM      2  C   UNL d   1      57.612  -0.258  30.503  0.00  0.00     0.085 A 
ATOM      3  C   UNL d   1      58.070  -0.870  30.196  0.00  0.00     0.021 A 
ATOM      4  C   UNL d   1      58.808   0.068  29.412  0.00  0.00     0.002 A 
ATOM      5  C   UNL d   1      58.358   0.682  29.712  0.00  0.00     0.002 A 
ATOM      6  C   UNL d   1      57.756   0.520  30.261  0.00  0.00     0.019 A 
ENDROOT
BRANCH   1   7
ATOM      7  C   UNL d   1      59.124  -1.330  29.347  0.00  0.00     0.102 A 
ATOM      8  N   UNL d   1      58.755  -2.066  29.225  0.00  0.00    -0.162 NA
ATOM      9  N   UNL d   1      59.206  -2.700  28.922  0.00  0.00    -0.189 N 
ATOM     10  C   UNL d   1      60.012  -2.598  28.745  0.00  0.00     0.187 A 
ATOM     11  C   UNL d   1      59.002  -3.470  28.748  0.00  0.00     0.224 A 
ATOM     12  N   UNL d   1      60.279  -3.306  28.467  0.00  0.00    -0.127 NA
ATOM     13  C   UNL d   1      60.362  -1.849  28.875  0.00  0.00     0.042 A 
ATOM     14  N   UNL d   1      59.664  -3.849  28.465  0.00  0.00    -0.124 NA
ATOM     15  C   UNL d   1      59.913  -1.220  29.176  0.00  0.00     0.024 A 
ENDBRANCH   1   7
BRANCH   2  16
ATOM     16  N   UNL d   1      57.017  -0.418  31.044  0.00  0.00    -0.206 NA
ATOM     17  C   UNL d   1      57.085  -0.147  31.816  0.00  0.00     0.302 C 
ATOM     18  O   UNL d   1      57.747   0.286  32.054  0.00  0.00    -0.263 OA
BRANCH  17  19
ATOM     19  C   UNL d   1      56.488  -0.307  32.360  0.00  0.00     0.158 A 
ATOM     20  O   UNL d   1      56.032   0.246  32.760  0.00  0.00    -0.300 OA
ATOM     21  C   UNL d   1      55.505  -0.156  33.246  0.00  0.00     0.123 A 
ATOM     22  C   UNL d   1      55.634  -0.971  33.148  0.00  0.00     0.029 A 
ATOM     23  C   UNL d   1      56.239  -1.063  32.601  0.00  0.00     0.032 A 
ENDBRANCH  17  19
ENDBRANCH   2  16
TORSDOF 3
ENDMDL
MODEL 2
REMARK VINA RESULT:      -5.5      1.729      4.659
REMARK  3 active torsions:
REMARK  status: ('A' for Active; 'I' for Inactive)
REMARK    1  A    between atoms: C_13  and  C_5 
REMARK       I    between atoms: C_7  and  N_12 
REMARK    2  A    between atoms: C_10  and  C_7 
REMARK    3  A    between atoms: N_12  and  C_15 
ROOT
ATOM      1  C   UNL d   1      57.770   0.076  30.543  0.00  0.00     0.021 A 
ATOM      2  C   UNL d   1      58.732  -0.497  29.644  0.00  0.00     0.085 A 
ATOM      3  C   UNL d   1      58.335  -0.507  30.367  0.00  0.00     0.021 A 
ATOM      4  C   UNL d   1      57.609   0.663  29.990  0.00  0.00     0.002 A 
ATOM      5  C   UNL d   1      57.997   0.681  29.271  0.00  0.00     0.002 A 
ATOM      6  C   UNL d   1      58.563   0.098  29.095  0.00  0.00     0.019 A 
ENDROOT
BRANCH   1   7
ATOM      7  C   UNL d   1      57.380   0.055  31.269  0.00  0.00     0.102 A 
ATOM      8  N   UNL d   1      56.914  -0.610  31.450  0.00  0.00    -0.162 NA
ATOM      9  N   UNL d   1      56.516  -0.639  32.184  0.00  0.00    -0.189 N 
ATOM     10  C   UNL d   1      56.585  -0.012  32.726  0.00  0.00     0.187 A 
ATOM     11  C   UNL d   1      56.029  -1.206  32.511  0.00  0.00     0.224 A 
ATOM     12  N   UNL d   1      56.140  -0.212  33.368  0.00  0.00    -0.127 NA
ATOM     13  C   UNL d   1      57.059   0.646  32.523  0.00  0.00     0.042 A 
ATOM     14  N   UNL d   1      55.794  -0.946  33.244  0.00  0.00    -0.124 NA
ATOM     15  C   UNL d   1      57.454   0.674  31.794  0.00  0.00     0.024 A 
ENDBRANCH   1   7
BRANCH   2  16
ATOM     16  N   UNL d   1      59.290  -1.072  29.470  0.00  0.00    -0.206 NA
ATOM     17  C   UNL d   1      59.088  -1.704  28.988  0.00  0.00     0.302 C 
ATOM     18  O   UNL d   1      58.325  -1.767  28.674  0.00  0.00    -0.263 OA
BRANCH  17  19
ATOM     19  C   UNL d   1      59.648  -2.281  28.813  0.00  0.00     0.158 A 
ATOM     20  O   UNL d   1      60.421  -2.152  28.569  0.00  0.00    -0.300 OA
ATOM     21  C   UNL d   1      60.783  -2.881  28.457  0.00  0.00     0.123 A 
ATOM     22  C   UNL d   1      60.227  -3.474  28.635  0.00  0.00     0.029 A 
ATOM     23  C   UNL d   1      59.529  -3.103  28.854  0.00  0.00     0.032 A 
ENDBRANCH  17  19
ENDBRANCH   2  16
TORSDOF 3
ENDMDL
MODEL 3
REMARK VINA RESULT:      -4.6      1.780      5.035
REMARK  3 active torsions:
REMARK  status: ('A' for Active; 'I' for Inactive)
REMARK    1  A    between atoms: C_13  and  C_5 
REMARK       I    between atoms: C_7  and  N_12 
REMARK    2  A    between atoms: C_10  and  C_7 
REMARK    3  A    between atoms: N_12  and  C_15 
ROOT
ATOM      1  C   UNL d   1      57.012  -0.257  31.510  0.00  0.00     0.021 A 
ATOM      2  C   UNL d   1      57.792  -0.849  30.460  0.00  0.00     0.085 A 
ATOM      3  C   UNL d   1      57.323  -0.929  31.133  0.00  0.00     0.021 A 
ATOM      4  C   UNL d   1      57.177   0.489  31.207  0.00  0.00     0.002 A 
ATOM      5  C   UNL d   1      57.641   0.578  30.539  0.00  0.00     0.002 A 
ATOM      6  C   UNL d   1      57.952  -0.094  30.162  0.00  0.00     0.019 A 
ENDROOT
BRANCH   1   7
ATOM      7  C   UNL d   1      56.544  -0.351  32.183  0.00  0.00     0.102 A 
ATOM      8  N   UNL d   1      56.035   0.269  32.402  0.00  0.00    -0.162 NA
ATOM      9  N   UNL d   1      55.558   0.181  33.082  0.00  0.00    -0.189 N 
ATOM     10  C   UNL d   1      55.592  -0.517  33.534  0.00  0.00     0.187 A 
ATOM     11  C   UNL d   1      55.015   0.682  33.428  0.00  0.00     0.224 A 
ATOM     12  N   UNL d   1      55.071  -0.424  34.142  0.00  0.00    -0.127 NA
ATOM     13  C   UNL d   1      56.112  -1.127  33.295  0.00  0.00     0.042 A 
ATOM     14  N   UNL d   1      54.712   0.312  34.084  0.00  0.00    -0.124 NA
ATOM     15  C   UNL d   1      56.585  -1.038  32.619  0.00  0.00     0.024 A 
ENDBRANCH   1   7
BRANCH   2  16
ATOM     16  N   UNL d   1      58.098  -1.512  30.088  0.00  0.00    -0.206 NA
ATOM     17  C   UNL d   1      58.792  -1.452  29.653  0.00  0.00     0.302 C 
ATOM     18  O   UNL d   1      59.186  -0.728  29.586  0.00  0.00    -0.263 OA
BRANCH  17  19
ATOM     19  C   UNL d   1      59.099  -2.118  29.279  0.00  0.00     0.158 A 
ATOM     20  O   UNL d   1      58.910  -2.900  29.443  0.00  0.00    -0.300 OA
ATOM     21  C   UNL d   1      59.345  -3.383  28.940  0.00  0.00     0.123 A 
ATOM     22  C   UNL d   1      59.813  -2.895  28.456  0.00  0.00     0.029 A 
ATOM     23  C   UNL d   1      59.660  -2.116  28.666  0.00  0.00     0.032 A 
ENDBRANCH  17  19
ENDBRANCH   2  16
TORSDOF 3
ENDMDL
