MODEL 1
REMARK VINA RESULT:      -2.5      0.000      0.000
REMARK  6 active torsions:
REMARK  status: ('A' for Active; 'I' for Inactive)
REMARK    1  A    between atoms: N_8  and  C_2 
REMARK    2  A    between atoms: N_7  and  C_3 
REMARK    3  A    between atoms: N_10  and  C_6 
REMARK    4  A    between atoms: C_9  and  N_11 
REMARK    5  A    between atoms: N_13  and  C_9 
REMARK    6  A    between atoms: N_11  and  N_10 
ROOT
ATOM      1  N   UNL d   1      59.309  -1.722  29.125  0.00  0.00     0.133 NA
ATOM      2  C   UNL d   1      59.262  -0.981  29.397  0.00  0.00     0.766 A 
ATOM      3  C   UNL d   1      58.735  -2.276  29.289  0.00  0.00     0.766 A 
ATOM      4  N   UNL d   1      58.089  -2.052  29.751  0.00  0.00     0.135 NA
ATOM      5  N   UNL d   1      58.588  -0.746  29.880  0.00  0.00     0.135 NA
ATOM      6  C   UNL d   1      58.009  -1.285  30.052  0.00  0.00     0.798 A 
ENDROOT
BRANCH   2   7
ATOM      7  N   UNL d   1      59.836  -0.426  29.233  0.00  0.00    -0.132 N 
ATOM      8  C   UNL d   1      60.524  -0.423  29.689  0.00  0.00     0.125 A 
ATOM      9  C   UNL d   1      61.116   0.131  29.537  0.00  0.00     0.142 A 
ATOM     10  O   UNL d   1      61.022   0.682  28.930  0.00  0.00    -0.300 OA
ATOM     11  C   UNL d   1      60.334   0.679  28.474  0.00  0.00     0.142 A 
ATOM     12  C   UNL d   1      59.741   0.125  28.625  0.00  0.00     0.125 A 
ENDBRANCH   2   7
BRANCH   3  13
ATOM     13  N   UNL d   1      58.771  -3.042  29.015  0.00  0.00    -0.132 N 
ATOM     14  C   UNL d   1      58.112  -3.454  28.769  0.00  0.00     0.125 A 
ATOM     15  C   UNL d   1      58.148  -4.220  28.496  0.00  0.00     0.142 A 
ATOM     16  O   UNL d   1      58.883  -4.595  28.466  0.00  0.00    -0.300 OA
ATOM     17  C   UNL d   1      59.581  -4.204  28.710  0.00  0.00     0.142 A 
ATOM     18  C   UNL d   1      59.505  -3.417  28.985  0.00  0.00     0.125 A 
ENDBRANCH   3  13
BRANCH   6  19
ATOM     19  N   UNL d   1      57.378  -1.065  30.505  0.00  0.00     0.050 NA
BRANCH  19  20
ATOM     20  N   UNL d   1      57.472  -0.880  31.290  0.00  0.00    -0.101 NA
BRANCH  20  21
ATOM     21  C   UNL d   1      56.829  -0.645  31.750  0.00  0.00     0.241 C 
ATOM     22  S   UNL d   1      56.549   0.115  31.727  0.00  0.00    -0.035 SA
BRANCH  21  23
ATOM     23  N   UNL d   1      56.460  -1.191  32.244  0.00  0.00    -0.213 NA
ATOM     24  C   UNL d   1      56.274  -0.995  33.023  0.00  0.00     0.122 C 
ENDBRANCH  21  23
ENDBRANCH  20  21
ENDBRANCH  19  20
ENDBRANCH   6  19
TORSDOF 6
ENDMDL
