MODEL 1
REMARK VINA RESULT:      93.3      0.000      0.000
REMARK  6 active torsions:
REMARK  status: ('A' for Active; 'I' for Inactive)
REMARK       I    between atoms: C_2  and  N_1 
REMARK    1  A    between atoms: C_4  and  N_1 
REMARK    2  A    between atoms: C_11  and  N_1 
REMARK    3  A    between atoms: C_3  and  C_2 
REMARK    4  A    between atoms: C_5  and  C_4 
REMARK       I    between atoms: N_10  and  C_5 
REMARK    5  A    between atoms: C_21  and  N_10 
REMARK    6  A    between atoms: C_13  and  C_11 
ROOT
ATOM      1  N   UNL d   1     -50.369  25.578  33.783  0.00  0.00    -0.281 N 
ATOM      2  C   UNL d   1     -51.144  25.311  33.884  0.00  0.00     0.263 C 
ATOM      3  O   UNL d   1     -51.677  25.740  34.321  0.00  0.00    -0.267 OA
ENDROOT
BRANCH   1   4
ATOM      4  C   UNL d   1     -49.770  26.756  34.289  0.00  0.00     0.181 A 
ATOM      5  C   UNL d   1     -49.609  27.433  34.395  0.00  0.00     0.007 A 
ATOM      6  C   UNL d   1     -49.998  27.993  33.958  0.00  0.00    -0.002 A 
ATOM      7  C   UNL d   1     -50.561  27.771  33.411  0.00  0.00    -0.001 A 
ATOM      8  C   UNL d   1     -50.730  26.974  33.306  0.00  0.00    -0.002 A 
ATOM      9  C   UNL d   1     -50.340  26.414  33.743  0.00  0.00     0.007 A 
BRANCH   4  10
ATOM     10  C   UNL d   1     -49.062  27.821  34.913  0.00  0.00     0.282 C 
ATOM     11  N   UNL d   1     -48.700  27.946  35.644  0.00  0.00    -0.210 NA
ATOM     12  O   UNL d   1     -49.062  28.407  34.337  0.00  0.00    -0.268 OA
BRANCH  11  13
ATOM     13  C   UNL d   1     -48.333  28.668  35.801  0.00  0.00     0.084 A 
ATOM     14  C   UNL d   1     -48.527  29.180  36.409  0.00  0.00     0.019 A 
ATOM     15  C   UNL d   1     -48.033  29.820  36.364  0.00  0.00     0.002 A 
ATOM     16  C   UNL d   1     -47.527  29.707  35.725  0.00  0.00     0.002 A 
ATOM     17  C   UNL d   1     -47.718  28.999  35.386  0.00  0.00     0.019 A 
ENDBRANCH  11  13
ENDBRANCH   4  10
ENDBRANCH   1   4
BRANCH   1  18
ATOM     18  C   UNL d   1     -49.853  25.074  33.306  0.00  0.00     0.104 C 
BRANCH  18  19
ATOM     19  C   UNL d   1     -49.386  24.442  33.693  0.00  0.00     0.117 A 
ATOM     20  O   UNL d   1     -48.710  24.530  34.046  0.00  0.00    -0.304 OA
ATOM     21  C   UNL d   1     -48.451  23.750  34.350  0.00  0.00     0.123 A 
ATOM     22  C   UNL d   1     -48.974  23.189  34.180  0.00  0.00     0.029 A 
ATOM     23  C   UNL d   1     -49.610  23.602  33.745  0.00  0.00     0.028 A 
ENDBRANCH  18  19
ENDBRANCH   1  18
BRANCH   2  24
ATOM     24  C   UNL d   1     -51.870  24.667  33.741  0.00  0.00     0.076 A 
ATOM     25  C   UNL d   1     -52.265  24.992  34.474  0.00  0.00     0.107 A 
ATOM     26  N   UNL d   1     -53.020  24.674  34.748  0.00  0.00    -0.206 NA
ATOM     27  C   UNL d   1     -53.385  24.048  34.314  0.00  0.00     0.279 A 
ATOM     28  C   UNL d   1     -53.019  23.712  33.594  0.00  0.00     0.063 A 
ATOM     29  O   UNL d   1     -54.147  23.733  34.597  0.00  0.00    -0.265 OA
ATOM     30  C   UNL d   1     -52.260  24.028  33.314  0.00  0.00     0.011 A 
ENDBRANCH   2  24
TORSDOF 6
ENDMDL
