MODEL 1
REMARK VINA RESULT:      -6.6      0.000      0.000
REMARK  5 active torsions:
REMARK  status: ('A' for Active; 'I' for Inactive)
REMARK    1  A    between atoms: S_10  and  C_6 
REMARK    2  A    between atoms: C_15  and  S_10 
REMARK    3  A    between atoms: C_11  and  C_15 
REMARK       I    between atoms: N_13  and  C_11 
REMARK    4  A    between atoms: C_17  and  N_13 
REMARK    5  A    between atoms: O_25  and  C_18 
ROOT
ATOM      1  C   UNL d   1     -50.258  13.115  23.546  0.00  0.00     0.155 A 
ATOM      2  C   UNL d   1     -49.596  13.596  23.417  0.00  0.00     0.107 A 
ATOM      3  N   UNL d   1     -49.432  11.954  23.435  0.00  0.00    -0.250 N 
ATOM      4  C   UNL d   1     -50.178  12.299  23.555  0.00  0.00     0.285 A 
ATOM      5  N   UNL d   1     -48.851  13.251  23.296  0.00  0.00    -0.220 NA
ATOM      6  C   UNL d   1     -48.780  12.431  23.307  0.00  0.00     0.182 A 
ATOM      7  N   UNL d   1     -50.914  13.604  23.646  0.00  0.00    -0.239 NA
ATOM      8  C   UNL d   1     -49.837  14.382  23.436  0.00  0.00     0.037 A 
ATOM      9  C   UNL d   1     -50.659  14.390  23.579  0.00  0.00     0.083 A 
ATOM     10  O   UNL d   1     -50.836  11.810  23.684  0.00  0.00    -0.265 OA
ATOM     11  C   UNL d   1     -49.349  11.129  23.444  0.00  0.00     0.104 C 
ATOM     12  C   UNL d   1     -49.430  15.090  23.345  0.00  0.00     0.003 A 
ATOM     13  C   UNL d   1     -51.064  15.110  23.629  0.00  0.00     0.019 A 
ATOM     14  C   UNL d   1     -49.836  15.810  23.395  0.00  0.00     0.000 A 
ATOM     15  C   UNL d   1     -50.648  15.817  23.537  0.00  0.00     0.002 A 
ENDROOT
BRANCH   6  16
ATOM     16  S   UNL d   1     -48.039  12.085  23.188  0.00  0.00    -0.044 SA
BRANCH  16  17
ATOM     17  C   UNL d   1     -47.356  12.455  23.468  0.00  0.00     0.101 C 
BRANCH  17  18
ATOM     18  C   UNL d   1     -46.630  12.304  23.112  0.00  0.00     0.286 C 
ATOM     19  N   UNL d   1     -46.097  12.917  23.011  0.00  0.00    -0.208 NA
ATOM     20  O   UNL d   1     -46.432  11.551  22.859  0.00  0.00    -0.265 OA
BRANCH  19  21
ATOM     21  C   UNL d   1     -45.363  12.771  22.653  0.00  0.00     0.085 A 
ATOM     22  C   UNL d   1     -44.869  12.203  22.959  0.00  0.00     0.021 A 
ATOM     23  C   UNL d   1     -44.135  12.057  22.602  0.00  0.00     0.026 A 
ATOM     24  C   UNL d   1     -43.907  12.486  21.935  0.00  0.00     0.094 A 
ATOM     25  C   UNL d   1     -44.425  13.069  21.628  0.00  0.00     0.026 A 
ATOM     26  C   UNL d   1     -45.148  13.207  21.988  0.00  0.00     0.021 A 
BRANCH  24  27
ATOM     27  O   UNL d   1     -43.170  12.330  21.586  0.00  0.00    -0.328 OA
ATOM     28  C   UNL d   1     -42.783  12.913  21.158  0.00  0.00     0.181 C 
ENDBRANCH  24  27
ENDBRANCH  19  21
ENDBRANCH  17  18
ENDBRANCH  16  17
ENDBRANCH   6  16
TORSDOF 5
ENDMDL
MODEL 2
REMARK VINA RESULT:      -5.8      1.287      1.658
REMARK  5 active torsions:
REMARK  status: ('A' for Active; 'I' for Inactive)
REMARK    1  A    between atoms: S_10  and  C_6 
REMARK    2  A    between atoms: C_15  and  S_10 
REMARK    3  A    between atoms: C_11  and  C_15 
REMARK       I    between atoms: N_13  and  C_11 
REMARK    4  A    between atoms: C_17  and  N_13 
REMARK    5  A    between atoms: O_25  and  C_18 
ROOT
ATOM      1  C   UNL d   1     -49.244  12.285  23.074  0.00  0.00     0.155 A 
ATOM      2  C   UNL d   1     -48.947  12.993  22.762  0.00  0.00     0.107 A 
ATOM      3  N   UNL d   1     -47.912  11.869  23.384  0.00  0.00    -0.250 N 
ATOM      4  C   UNL d   1     -48.730  11.726  23.383  0.00  0.00     0.285 A 
ATOM      5  N   UNL d   1     -48.130  13.136  22.762  0.00  0.00    -0.220 NA
ATOM      6  C   UNL d   1     -47.622  12.569  23.075  0.00  0.00     0.182 A 
ATOM      7  N   UNL d   1     -50.064  12.296  23.000  0.00  0.00    -0.239 NA
ATOM      8  C   UNL d   1     -49.580  13.444  22.494  0.00  0.00     0.037 A 
ATOM      9  C   UNL d   1     -50.279  13.013  22.641  0.00  0.00     0.083 A 
ATOM     10  O   UNL d   1     -49.019  11.014  23.698  0.00  0.00    -0.265 OA
ATOM     11  C   UNL d   1     -47.391  11.305  23.696  0.00  0.00     0.104 C 
ATOM     12  C   UNL d   1     -49.625  14.185  22.138  0.00  0.00     0.003 A 
ATOM     13  C   UNL d   1     -51.014  13.327  22.430  0.00  0.00     0.019 A 
ATOM     14  C   UNL d   1     -50.360  14.499  21.927  0.00  0.00     0.000 A 
ATOM     15  C   UNL d   1     -51.049  14.071  22.073  0.00  0.00     0.002 A 
ENDROOT
BRANCH   6  16
ATOM     16  S   UNL d   1     -46.808  12.709  23.076  0.00  0.00    -0.044 SA
BRANCH  16  17
ATOM     17  C   UNL d   1     -46.461  13.160  22.478  0.00  0.00     0.101 C 
BRANCH  17  18
ATOM     18  C   UNL d   1     -45.642  13.181  22.400  0.00  0.00     0.286 C 
ATOM     19  N   UNL d   1     -45.286  12.763  21.793  0.00  0.00    -0.208 NA
ATOM     20  O   UNL d   1     -45.180  13.614  22.919  0.00  0.00    -0.265 OA
BRANCH  19  21
ATOM     21  C   UNL d   1     -44.461  12.782  21.709  0.00  0.00     0.085 A 
ATOM     22  C   UNL d   1     -44.119  13.280  21.166  0.00  0.00     0.021 A 
ATOM     23  C   UNL d   1     -43.294  13.298  21.082  0.00  0.00     0.026 A 
ATOM     24  C   UNL d   1     -42.821  12.811  21.549  0.00  0.00     0.094 A 
ATOM     25  C   UNL d   1     -43.184  12.302  22.106  0.00  0.00     0.026 A 
ATOM     26  C   UNL d   1     -44.000  12.290  22.182  0.00  0.00     0.021 A 
BRANCH  24  27
ATOM     27  O   UNL d   1     -41.996  12.839  21.456  0.00  0.00    -0.328 OA
ATOM     28  C   UNL d   1     -41.641  13.484  21.096  0.00  0.00     0.181 C 
ENDBRANCH  24  27
ENDBRANCH  19  21
ENDBRANCH  17  18
ENDBRANCH  16  17
ENDBRANCH   6  16
TORSDOF 5
ENDMDL
MODEL 3
REMARK VINA RESULT:      -4.9      2.707      4.770
REMARK  5 active torsions:
REMARK  status: ('A' for Active; 'I' for Inactive)
REMARK    1  A    between atoms: S_10  and  C_6 
REMARK    2  A    between atoms: C_15  and  S_10 
REMARK    3  A    between atoms: C_11  and  C_15 
REMARK       I    between atoms: N_13  and  C_11 
REMARK    4  A    between atoms: C_17  and  N_13 
REMARK    5  A    between atoms: O_25  and  C_18 
ROOT
ATOM      1  C   UNL d   1     -45.433  12.252  23.014  0.00  0.00     0.155 A 
ATOM      2  C   UNL d   1     -45.368  12.918  22.526  0.00  0.00     0.107 A 
ATOM      3  N   UNL d   1     -44.144  11.813  22.582  0.00  0.00    -0.250 N 
ATOM      4  C   UNL d   1     -44.826  11.702  23.042  0.00  0.00     0.285 A 
ATOM      5  N   UNL d   1     -44.687  13.029  22.066  0.00  0.00    -0.220 NA
ATOM      6  C   UNL d   1     -44.082  12.473  22.100  0.00  0.00     0.182 A 
ATOM      7  N   UNL d   1     -46.160  12.287  23.401  0.00  0.00    -0.239 NA
ATOM      8  C   UNL d   1     -46.051  13.368  22.608  0.00  0.00     0.037 A 
ATOM      9  C   UNL d   1     -46.547  12.978  23.153  0.00  0.00     0.083 A 
ATOM     10  O   UNL d   1     -44.883  11.031  23.528  0.00  0.00    -0.265 OA
ATOM     11  C   UNL d   1     -43.528  11.258  22.608  0.00  0.00     0.104 C 
ATOM     12  C   UNL d   1     -46.295  14.076  22.268  0.00  0.00     0.003 A 
ATOM     13  C   UNL d   1     -47.283  13.301  23.351  0.00  0.00     0.019 A 
ATOM     14  C   UNL d   1     -47.030  14.399  22.465  0.00  0.00     0.000 A 
ATOM     15  C   UNL d   1     -47.520  14.012  23.004  0.00  0.00     0.002 A 
ENDROOT
BRANCH   6  16
ATOM     16  S   UNL d   1     -43.402  12.581  21.643  0.00  0.00    -0.044 SA
BRANCH  16  17
ATOM     17  C   UNL d   1     -43.161  13.340  21.428  0.00  0.00     0.101 C 
BRANCH  17  18
ATOM     18  C   UNL d   1     -42.436  13.453  21.056  0.00  0.00     0.286 C 
ATOM     19  N   UNL d   1     -42.001  14.127  21.220  0.00  0.00    -0.208 NA
ATOM     20  O   UNL d   1     -42.144  12.903  20.524  0.00  0.00    -0.265 OA
BRANCH  19  21
ATOM     21  C   UNL d   1     -41.270  14.246  20.848  0.00  0.00     0.085 A 
ATOM     22  C   UNL d   1     -41.244  14.507  20.078  0.00  0.00     0.021 A 
ATOM     23  C   UNL d   1     -40.513  14.626  19.706  0.00  0.00     0.026 A 
ATOM     24  C   UNL d   1     -39.812  14.480  20.115  0.00  0.00     0.094 A 
ATOM     25  C   UNL d   1     -39.851  14.210  20.908  0.00  0.00     0.026 A 
ATOM     26  C   UNL d   1     -40.577  14.095  21.268  0.00  0.00     0.021 A 
BRANCH  24  27
ATOM     27  O   UNL d   1     -39.086  14.602  19.731  0.00  0.00    -0.328 OA
ATOM     28  C   UNL d   1     -38.706  13.980  19.355  0.00  0.00     0.181 C 
ENDBRANCH  24  27
ENDBRANCH  19  21
ENDBRANCH  17  18
ENDBRANCH  16  17
ENDBRANCH   6  16
TORSDOF 5
ENDMDL
MODEL 4
REMARK VINA RESULT:      -4.8      4.204      8.713
REMARK  5 active torsions:
REMARK  status: ('A' for Active; 'I' for Inactive)
REMARK    1  A    between atoms: S_10  and  C_6 
REMARK    2  A    between atoms: C_15  and  S_10 
REMARK    3  A    between atoms: C_11  and  C_15 
REMARK       I    between atoms: N_13  and  C_11 
REMARK    4  A    between atoms: C_17  and  N_13 
REMARK    5  A    between atoms: O_25  and  C_18 
ROOT
ATOM      1  C   UNL d   1     -39.446  14.790  19.317  0.00  0.00     0.155 A 
ATOM      2  C   UNL d   1     -40.231  14.715  19.061  0.00  0.00     0.107 A 
ATOM      3  N   UNL d   1     -39.841  14.398  20.633  0.00  0.00    -0.250 N 
ATOM      4  C   UNL d   1     -39.252  14.633  20.097  0.00  0.00     0.285 A 
ATOM      5  N   UNL d   1     -40.820  14.480  19.596  0.00  0.00    -0.220 NA
ATOM      6  C   UNL d   1     -40.616  14.324  20.377  0.00  0.00     0.182 A 
ATOM      7  N   UNL d   1     -38.989  15.029  18.674  0.00  0.00    -0.239 NA
ATOM      8  C   UNL d   1     -40.263  14.906  18.262  0.00  0.00     0.037 A 
ATOM      9  C   UNL d   1     -39.490  15.102  18.017  0.00  0.00     0.083 A 
ATOM     10  O   UNL d   1     -38.469  14.706  20.362  0.00  0.00    -0.265 OA
ATOM     11  C   UNL d   1     -39.647  14.238  21.423  0.00  0.00     0.104 C 
ATOM     12  C   UNL d   1     -40.882  14.930  17.721  0.00  0.00     0.003 A 
ATOM     13  C   UNL d   1     -39.346  15.320  17.232  0.00  0.00     0.019 A 
ATOM     14  C   UNL d   1     -40.737  15.148  16.936  0.00  0.00     0.000 A 
ATOM     15  C   UNL d   1     -39.973  15.341  16.696  0.00  0.00     0.002 A 
ENDROOT
BRANCH   6  16
ATOM     16  S   UNL d   1     -41.201  14.090  20.912  0.00  0.00    -0.044 SA
BRANCH  16  17
ATOM     17  C   UNL d   1     -41.789  13.560  20.680  0.00  0.00     0.101 C 
BRANCH  17  18
ATOM     18  C   UNL d   1     -42.435  13.421  21.170  0.00  0.00     0.286 C 
ATOM     19  N   UNL d   1     -42.897  12.756  21.046  0.00  0.00    -0.208 NA
ATOM     20  O   UNL d   1     -42.624  13.936  21.778  0.00  0.00    -0.265 OA
BRANCH  19  21
ATOM     21  C   UNL d   1     -43.550  12.611  21.537  0.00  0.00     0.085 A 
ATOM     22  C   UNL d   1     -43.497  12.057  22.129  0.00  0.00     0.021 A 
ATOM     23  C   UNL d   1     -44.150  11.912  22.620  0.00  0.00     0.026 A 
ATOM     24  C   UNL d   1     -44.853  12.329  22.507  0.00  0.00     0.094 A 
ATOM     25  C   UNL d   1     -44.895  12.897  21.893  0.00  0.00     0.026 A 
ATOM     26  C   UNL d   1     -44.246  13.034  21.413  0.00  0.00     0.021 A 
BRANCH  24  27
ATOM     27  O   UNL d   1     -45.499  12.175  23.004  0.00  0.00    -0.328 OA
ATOM     28  C   UNL d   1     -46.140  12.687  23.021  0.00  0.00     0.181 C 
ENDBRANCH  24  27
ENDBRANCH  19  21
ENDBRANCH  17  18
ENDBRANCH  16  17
ENDBRANCH   6  16
TORSDOF 5
ENDMDL
