MODEL 1
REMARK VINA RESULT:     104.6      0.000      0.000
REMARK  7 active torsions:
REMARK  status: ('A' for Active; 'I' for Inactive)
REMARK    1  A    between atoms: N_7  and  C_2 
REMARK    2  A    between atoms: N_9  and  C_3 
REMARK    3  A    between atoms: C_14  and  N_7 
REMARK    4  A    between atoms: C_8  and  C_12 
REMARK    5  A    between atoms: O_19  and  C_8 
REMARK    6  A    between atoms: C_17  and  N_9 
REMARK    7  A    between atoms: C_29  and  O_19 
ROOT
ATOM      1  N   UNL d   1     -56.020-102.878 -39.145  0.00  0.00    -0.038 NA
ATOM      2  C   UNL d   1     -56.454-102.809 -39.851  0.00  0.00     0.202 A 
ATOM      3  C   UNL d   1     -55.193-102.811 -39.156  0.00  0.00     0.753 A 
ATOM      4  N   UNL d   1     -54.802-102.675 -39.881  0.00  0.00    -0.038 NA
ATOM      5  C   UNL d   1     -56.064-102.674 -40.564  0.00  0.00     0.154 A 
ATOM      6  C   UNL d   1     -55.237-102.607 -40.578  0.00  0.00     0.202 A 
ATOM      7  N   UNL d   1     -56.510-102.608 -41.256  0.00  0.00    -0.236 NA
ATOM      8  N   UNL d   1     -54.854-102.472 -41.294  0.00  0.00    -0.222 NA
ATOM      9  C   UNL d   1     -56.115-102.471 -41.977  0.00  0.00     0.120 A 
ATOM     10  C   UNL d   1     -55.293-102.403 -42.000  0.00  0.00     0.121 A 
ENDROOT
BRANCH   3  11
ATOM     11  N   UNL d   1     -54.767-102.879 -38.463  0.00  0.00    -0.059 NA
BRANCH  11  12
ATOM     12  C   UNL d   1     -54.769-102.265 -37.912  0.00  0.00     0.100 A 
ATOM     13  C   UNL d   1     -54.827-102.415 -37.117  0.00  0.00     0.020 A 
ATOM     14  C   UNL d   1     -54.829-101.798 -36.564  0.00  0.00     0.007 A 
ATOM     15  C   UNL d   1     -54.772-101.014 -36.824  0.00  0.00     0.064 A 
ATOM     16  C   UNL d   1     -54.713-100.850 -37.633  0.00  0.00     0.007 A 
ATOM     17  C   UNL d   1     -54.711-101.470 -38.178  0.00  0.00     0.020 A 
BRANCH  15  18
ATOM     18  C   UNL d   1     -54.775-100.406 -36.278  0.00  0.00     0.300 C 
ATOM     19  O   UNL d   1     -54.727-100.578 -35.467  0.00  0.00    -0.259 OA
BRANCH  18  20
ATOM     20  O   UNL d   1     -54.824 -99.619 -36.521  0.00  0.00    -0.271 OA
BRANCH  20  21
ATOM     21  C   UNL d   1     -54.822 -99.008 -35.967  0.00  0.00     0.126 C 
ATOM     22  C   UNL d   1     -55.507 -98.836 -35.548  0.00  0.00     0.029 C 
ENDBRANCH  20  21
ENDBRANCH  18  20
ENDBRANCH  15  18
ENDBRANCH  11  12
ENDBRANCH   3  11
BRANCH   2  23
ATOM     23  N   UNL d   1     -57.281-102.876 -39.837  0.00  0.00    -0.225 NA
BRANCH  23  24
ATOM     24  C   UNL d   1     -57.737-102.291 -39.478  0.00  0.00     0.083 A 
ATOM     25  C   UNL d   1     -57.388-101.771 -38.930  0.00  0.00     0.020 A 
ATOM     26  C   UNL d   1     -57.847-101.189 -38.573  0.00  0.00     0.013 A 
ATOM     27  C   UNL d   1     -58.649-101.115 -38.754  0.00  0.00     0.058 A 
ATOM     28  C   UNL d   1     -58.998-101.635 -39.302  0.00  0.00     0.013 A 
ATOM     29 CL   UNL d   1     -59.116-100.536 -38.403  0.00  0.00    -0.082 Cl
ATOM     30  C   UNL d   1     -58.538-102.220 -39.660  0.00  0.00     0.020 A 
ENDBRANCH  23  24
ENDBRANCH   2  23
TORSDOF 7
ENDMDL
