MODEL 1
REMARK VINA RESULT:      -1.1      0.000      0.000
REMARK  7 active torsions:
REMARK  status: ('A' for Active; 'I' for Inactive)
REMARK    1  A    between atoms: C_12  and  C_3 
REMARK    2  A    between atoms: N_9  and  C_5 
REMARK    3  A    between atoms: C_17  and  N_9 
REMARK    4  A    between atoms: N_14  and  C_12 
REMARK    5  A    between atoms: C_18  and  N_14 
REMARK    6  A    between atoms: C_16  and  C_18 
REMARK    7  A    between atoms: C_19  and  C_17 
ROOT
ATOM      1  N   UNL d   1      32.744  22.293 -20.164  0.00  0.00    -0.258 N 
ATOM      2  C   UNL d   1      32.928  21.605 -20.596  0.00  0.00     0.270 A 
ATOM      3  C   UNL d   1      33.058  21.638 -21.409  0.00  0.00     0.111 A 
ATOM      4  N   UNL d   1      32.819  23.066 -21.372  0.00  0.00    -0.209 NA
ATOM      5  C   UNL d   1      33.003  22.371 -21.799  0.00  0.00     0.170 A 
ATOM      6  C   UNL d   1      32.690  23.012 -20.547  0.00  0.00     0.152 A 
ATOM      7  C   UNL d   1      32.619  22.239 -19.360  0.00  0.00     0.084 A 
ATOM      8  C   UNL d   1      32.509  23.700 -20.136  0.00  0.00     0.038 A 
ATOM      9  C   UNL d   1      32.439  22.908 -18.934  0.00  0.00     0.018 A 
ATOM     10  C   UNL d   1      32.384  23.640 -19.323  0.00  0.00     0.005 A 
ATOM     11  O   UNL d   1      32.982  20.884 -20.212  0.00  0.00    -0.266 OA
ATOM     12  C   UNL d   1      32.311  22.850 -18.106  0.00  0.00     0.002 C 
ENDROOT
BRANCH   3  13
ATOM     13  C   UNL d   1      33.238  20.949 -21.814  0.00  0.00     0.107 C 
BRANCH  13  14
ATOM     14  N   UNL d   1      32.641  20.457 -22.091  0.00  0.00    -0.242 NA
BRANCH  14  15
ATOM     15  C   UNL d   1      32.747  19.639 -22.094  0.00  0.00     0.101 C 
BRANCH  15  16
ATOM     16  C   UNL d   1      32.691  19.209 -22.788  0.00  0.00     0.038 A 
ATOM     17  C   UNL d   1      32.510  18.397 -22.760  0.00  0.00     0.101 A 
ATOM     18  N   UNL d   1      32.454  17.968 -23.453  0.00  0.00    -0.242 NA
ATOM     19  C   UNL d   1      32.579  18.343 -24.186  0.00  0.00     0.099 A 
ATOM     20  C   UNL d   1      32.756  19.133 -24.222  0.00  0.00     0.021 A 
ATOM     21  C   UNL d   1      32.813  19.570 -23.516  0.00  0.00     0.005 A 
ENDBRANCH  15  16
ENDBRANCH  14  15
ENDBRANCH  13  14
ENDBRANCH   3  13
BRANCH   5  22
ATOM     22  N   UNL d   1      33.125  22.451 -22.613  0.00  0.00    -0.225 NA
BRANCH  22  23
ATOM     23  C   UNL d   1      33.212  23.198 -22.968  0.00  0.00     0.101 C 
BRANCH  23  24
ATOM     24  C   UNL d   1      32.826  23.365 -23.677  0.00  0.00     0.019 A 
ATOM     25  C   UNL d   1      33.240  23.411 -24.370  0.00  0.00     0.002 A 
ATOM     26  C   UNL d   1      32.838  23.580 -25.079  0.00  0.00     0.000 A 
ATOM     27  C   UNL d   1      32.026  23.702 -25.093  0.00  0.00     0.000 A 
ATOM     28  C   UNL d   1      31.605  23.653 -24.377  0.00  0.00     0.000 A 
ATOM     29  C   UNL d   1      31.998  23.485 -23.664  0.00  0.00     0.002 A 
ENDBRANCH  23  24
ENDBRANCH  22  23
ENDBRANCH   5  22
TORSDOF 7
ENDMDL
