MODEL 1
REMARK VINA RESULT:      -2.2      0.000      0.000
REMARK  5 active torsions:
REMARK  status: ('A' for Active; 'I' for Inactive)
REMARK    1  A    between atoms: N_9  and  C_1 
REMARK    2  A    between atoms: C_12  and  C_2 
REMARK       I    between atoms: C_13  and  N_9 
REMARK    3  A    between atoms: C_11  and  C_14 
REMARK    4  A    between atoms: O_19  and  C_12 
REMARK    5  A    between atoms: C_14  and  C_13 
ROOT
ATOM      1  C   UNL d   1      33.005  21.423 -22.192  0.00  0.00     0.119 A 
ATOM      2  C   UNL d   1      32.790  21.996 -21.616  0.00  0.00     0.087 A 
ATOM      3  S   UNL d   1      33.173  21.798 -22.908  0.00  0.00    -0.068 SA
ATOM      4  C   UNL d   1      32.830  22.719 -21.987  0.00  0.00     0.013 A 
ATOM      5  C   UNL d   1      33.065  22.611 -22.784  0.00  0.00     0.031 A 
ATOM      6  C   UNL d   1      32.662  23.430 -21.617  0.00  0.00     0.001 C 
ATOM      7  C   UNL d   1      33.172  23.202 -23.349  0.00  0.00     0.007 C 
ENDROOT
BRANCH   1   8
ATOM      8  N   UNL d   1      33.063  20.596 -22.138  0.00  0.00    -0.201 NA
ATOM      9  C   UNL d   1      33.179  20.143 -22.816  0.00  0.00     0.280 C 
ATOM     10  O   UNL d   1      33.239  20.507 -23.571  0.00  0.00    -0.265 OA
BRANCH   9  11
ATOM     11  C   UNL d   1      33.239  19.301 -22.761  0.00  0.00     0.074 C 
BRANCH  11  12
ATOM     12  C   UNL d   1      32.808  18.802 -23.273  0.00  0.00     0.095 A 
ATOM     13  C   UNL d   1      32.630  18.029 -23.137  0.00  0.00     0.287 A 
ATOM     14  N   UNL d   1      32.198  17.749 -23.784  0.00  0.00    -0.181 NA
ATOM     15  O   UNL d   1      32.839  17.576 -22.467  0.00  0.00    -0.265 OA
ATOM     16  C   UNL d   1      32.123  18.385 -24.314  0.00  0.00     0.217 A 
ATOM     17  S   UNL d   1      32.508  19.041 -23.985  0.00  0.00    -0.042 SA
ATOM     18  N   UNL d   1      31.722  18.352 -25.052  0.00  0.00    -0.119 N 
ENDBRANCH  11  12
ENDBRANCH   9  11
ENDBRANCH   1   8
BRANCH   2  19
ATOM     19  C   UNL d   1      32.582  21.879 -20.843  0.00  0.00     0.298 C 
ATOM     20  O   UNL d   1      31.801  21.780 -20.657  0.00  0.00    -0.259 OA
BRANCH  19  21
ATOM     21  O   UNL d   1      33.156  21.864 -20.267  0.00  0.00    -0.296 OA
ATOM     22  C   UNL d   1      32.988  21.570 -19.526  0.00  0.00     0.185 C 
ENDBRANCH  19  21
ENDBRANCH   2  19
TORSDOF 5
ENDMDL
MODEL 2
REMARK VINA RESULT:      -2.0      1.883      5.082
REMARK  5 active torsions:
REMARK  status: ('A' for Active; 'I' for Inactive)
REMARK    1  A    between atoms: N_9  and  C_1 
REMARK    2  A    between atoms: C_12  and  C_2 
REMARK       I    between atoms: C_13  and  N_9 
REMARK    3  A    between atoms: C_11  and  C_14 
REMARK    4  A    between atoms: O_19  and  C_12 
REMARK    5  A    between atoms: C_14  and  C_13 
ROOT
ATOM      1  C   UNL d   1      32.026  17.466 -23.876  0.00  0.00     0.119 A 
ATOM      2  C   UNL d   1      31.305  17.097 -24.103  0.00  0.00     0.087 A 
ATOM      3  S   UNL d   1      32.534  16.904 -23.548  0.00  0.00    -0.068 SA
ATOM      4  C   UNL d   1      31.381  16.310 -23.911  0.00  0.00     0.013 A 
ATOM      5  C   UNL d   1      32.135  16.178 -23.568  0.00  0.00     0.031 A 
ATOM      6  C   UNL d   1      30.797  15.751 -24.042  0.00  0.00     0.001 C 
ATOM      7  C   UNL d   1      32.431  15.457 -23.297  0.00  0.00     0.007 C 
ENDROOT
BRANCH   1   8
ATOM      8  N   UNL d   1      32.271  18.258 -23.934  0.00  0.00    -0.201 NA
ATOM      9  C   UNL d   1      32.861  18.547 -23.437  0.00  0.00     0.280 C 
ATOM     10  O   UNL d   1      33.222  18.049 -22.865  0.00  0.00    -0.265 OA
BRANCH   9  11
ATOM     11  C   UNL d   1      33.110  19.353 -23.496  0.00  0.00     0.074 C 
BRANCH  11  12
ATOM     12  C   UNL d   1      33.156  19.842 -22.823  0.00  0.00     0.095 A 
ATOM     13  C   UNL d   1      33.209  20.645 -22.826  0.00  0.00     0.287 A 
ATOM     14  N   UNL d   1      33.241  20.903 -22.042  0.00  0.00    -0.181 NA
ATOM     15  O   UNL d   1      33.228  21.144 -23.496  0.00  0.00    -0.265 OA
ATOM     16  C   UNL d   1      33.206  20.223 -21.565  0.00  0.00     0.217 A 
ATOM     17  S   UNL d   1      33.152  19.563 -22.063  0.00  0.00    -0.042 SA
ATOM     18  N   UNL d   1      33.222  20.222 -20.726  0.00  0.00    -0.119 N 
ENDBRANCH  11  12
ENDBRANCH   9  11
ENDBRANCH   1   8
BRANCH   2  19
ATOM     19  C   UNL d   1      30.654  17.433 -24.445  0.00  0.00     0.298 C 
ATOM     20  O   UNL d   1      30.756  17.985 -25.027  0.00  0.00    -0.259 OA
BRANCH  19  21
ATOM     21  O   UNL d   1      29.910  17.213 -24.201  0.00  0.00    -0.296 OA
ATOM     22  C   UNL d   1      29.255  17.422 -24.637  0.00  0.00     0.185 C 
ENDBRANCH  19  21
ENDBRANCH   2  19
TORSDOF 5
ENDMDL
MODEL 3
REMARK VINA RESULT:      -1.6      1.181      1.995
REMARK  5 active torsions:
REMARK  status: ('A' for Active; 'I' for Inactive)
REMARK    1  A    between atoms: N_9  and  C_1 
REMARK    2  A    between atoms: C_12  and  C_2 
REMARK       I    between atoms: C_13  and  N_9 
REMARK    3  A    between atoms: C_11  and  C_14 
REMARK    4  A    between atoms: O_19  and  C_12 
REMARK    5  A    between atoms: C_14  and  C_13 
ROOT
ATOM      1  C   UNL d   1      32.979  21.433 -22.098  0.00  0.00     0.119 A 
ATOM      2  C   UNL d   1      32.815  22.247 -21.964  0.00  0.00     0.087 A 
ATOM      3  S   UNL d   1      33.070  21.046 -21.374  0.00  0.00    -0.068 SA
ATOM      4  C   UNL d   1      32.807  22.350 -21.157  0.00  0.00     0.013 A 
ATOM      5  C   UNL d   1      32.963  21.616 -20.782  0.00  0.00     0.031 A 
ATOM      6  C   UNL d   1      32.665  23.068 -20.791  0.00  0.00     0.001 C 
ATOM      7  C   UNL d   1      33.003  21.480 -19.969  0.00  0.00     0.007 C 
ENDROOT
BRANCH   1   8
ATOM      8  N   UNL d   1      33.056  21.005 -22.806  0.00  0.00    -0.201 NA
ATOM      9  C   UNL d   1      33.162  20.188 -22.787  0.00  0.00     0.280 C 
ATOM     10  O   UNL d   1      33.194  19.776 -22.055  0.00  0.00    -0.265 OA
BRANCH   9  11
ATOM     11  C   UNL d   1      33.240  19.752 -23.507  0.00  0.00     0.074 C 
BRANCH  11  12
ATOM     12  C   UNL d   1      32.806  19.052 -23.638  0.00  0.00     0.095 A 
ATOM     13  C   UNL d   1      32.399  18.868 -24.307  0.00  0.00     0.287 A 
ATOM     14  N   UNL d   1      32.052  18.125 -24.200  0.00  0.00    -0.181 NA
ATOM     15  O   UNL d   1      32.330  19.334 -24.997  0.00  0.00    -0.265 OA
ATOM     16  C   UNL d   1      32.267  17.869 -23.439  0.00  0.00     0.217 A 
ATOM     17  S   UNL d   1      32.739  18.456 -23.094  0.00  0.00    -0.042 SA
ATOM     18  N   UNL d   1      32.037  17.139 -23.094  0.00  0.00    -0.119 N 
ENDBRANCH  11  12
ENDBRANCH   9  11
ENDBRANCH   1   8
BRANCH   2  19
ATOM     19  C   UNL d   1      32.687  22.831 -22.510  0.00  0.00     0.298 C 
ATOM     20  O   UNL d   1      32.006  23.265 -22.469  0.00  0.00    -0.259 OA
BRANCH  19  21
ATOM     21  O   UNL d   1      33.240  22.972 -23.088  0.00  0.00    -0.296 OA
ATOM     22  C   UNL d   1      33.157  23.608 -23.591  0.00  0.00     0.185 C 
ENDBRANCH  19  21
ENDBRANCH   2  19
TORSDOF 5
ENDMDL
MODEL 4
REMARK VINA RESULT:      -1.5      3.793      5.810
REMARK  5 active torsions:
REMARK  status: ('A' for Active; 'I' for Inactive)
REMARK    1  A    between atoms: N_9  and  C_1 
REMARK    2  A    between atoms: C_12  and  C_2 
REMARK       I    between atoms: C_13  and  N_9 
REMARK    3  A    between atoms: C_11  and  C_14 
REMARK    4  A    between atoms: O_19  and  C_12 
REMARK    5  A    between atoms: C_14  and  C_13 
ROOT
ATOM      1  C   UNL d   1      29.682  16.451 -23.694  0.00  0.00     0.119 A 
ATOM      2  C   UNL d   1      28.906  16.722 -23.874  0.00  0.00     0.087 A 
ATOM      3  S   UNL d   1      29.654  15.946 -23.041  0.00  0.00    -0.068 SA
ATOM      4  C   UNL d   1      28.411  16.378 -23.328  0.00  0.00     0.013 A 
ATOM      5  C   UNL d   1      28.861  15.897 -22.808  0.00  0.00     0.031 A 
ATOM      6  C   UNL d   1      27.601  16.498 -23.308  0.00  0.00     0.001 C 
ATOM      7  C   UNL d   1      28.570  15.453 -22.177  0.00  0.00     0.007 C 
ENDROOT
BRANCH   1   8
ATOM      8  N   UNL d   1      30.411  16.614 -24.058  0.00  0.00    -0.201 NA
ATOM      9  C   UNL d   1      31.111  16.335 -23.726  0.00  0.00     0.280 C 
ATOM     10  O   UNL d   1      31.101  15.884 -23.017  0.00  0.00    -0.265 OA
BRANCH   9  11
ATOM     11  C   UNL d   1      31.853  16.501 -24.096  0.00  0.00     0.074 C 
BRANCH  11  12
ATOM     12  C   UNL d   1      32.335  17.131 -23.838  0.00  0.00     0.095 A 
ATOM     13  C   UNL d   1      32.864  17.535 -24.289  0.00  0.00     0.287 A 
ATOM     14  N   UNL d   1      33.219  18.111 -23.814  0.00  0.00    -0.181 NA
ATOM     15  O   UNL d   1      33.035  17.408 -25.097  0.00  0.00    -0.265 OA
ATOM     16  C   UNL d   1      32.882  18.037 -23.058  0.00  0.00     0.217 A 
ATOM     17  S   UNL d   1      32.329  17.420 -23.082  0.00  0.00    -0.042 SA
ATOM     18  N   UNL d   1      33.079  18.512 -22.394  0.00  0.00    -0.119 N 
ENDBRANCH  11  12
ENDBRANCH   9  11
ENDBRANCH   1   8
BRANCH   2  19
ATOM     19  C   UNL d   1      28.672  17.222 -24.465  0.00  0.00     0.298 C 
ATOM     20  O   UNL d   1      28.221  16.932 -25.070  0.00  0.00    -0.259 OA
BRANCH  19  21
ATOM     21  O   UNL d   1      28.893  18.004 -24.444  0.00  0.00    -0.296 OA
ATOM     22  C   UNL d   1      28.581  18.535 -24.977  0.00  0.00     0.185 C 
ENDBRANCH  19  21
ENDBRANCH   2  19
TORSDOF 5
ENDMDL
MODEL 5
REMARK VINA RESULT:      -0.3      3.444      5.397
REMARK  5 active torsions:
REMARK  status: ('A' for Active; 'I' for Inactive)
REMARK    1  A    between atoms: N_9  and  C_1 
REMARK    2  A    between atoms: C_12  and  C_2 
REMARK       I    between atoms: C_13  and  N_9 
REMARK    3  A    between atoms: C_11  and  C_14 
REMARK    4  A    between atoms: O_19  and  C_12 
REMARK    5  A    between atoms: C_14  and  C_13 
ROOT
ATOM      1  C   UNL d   1      29.731  17.194 -24.302  0.00  0.00     0.119 A 
ATOM      2  C   UNL d   1      29.090  16.791 -23.937  0.00  0.00     0.087 A 
ATOM      3  S   UNL d   1      29.448  17.850 -24.716  0.00  0.00    -0.068 SA
ATOM      4  C   UNL d   1      28.418  17.206 -24.133  0.00  0.00     0.013 A 
ATOM      5  C   UNL d   1      28.626  17.862 -24.613  0.00  0.00     0.031 A 
ATOM      6  C   UNL d   1      27.666  16.996 -23.887  0.00  0.00     0.001 C 
ATOM      7  C   UNL d   1      28.108  18.421 -24.928  0.00  0.00     0.007 C 
ENDROOT
BRANCH   1   8
ATOM      8  N   UNL d   1      30.546  17.031 -24.299  0.00  0.00    -0.201 NA
ATOM      9  C   UNL d   1      31.087  17.614 -24.513  0.00  0.00     0.280 C 
ATOM     10  O   UNL d   1      30.826  18.381 -24.737  0.00  0.00    -0.265 OA
BRANCH   9  11
ATOM     11  C   UNL d   1      31.916  17.447 -24.511  0.00  0.00     0.074 C 
BRANCH  11  12
ATOM     12  C   UNL d   1      32.396  17.650 -23.859  0.00  0.00     0.095 A 
ATOM     13  C   UNL d   1      32.865  17.144 -23.445  0.00  0.00     0.287 A 
ATOM     14  N   UNL d   1      33.241  17.575 -22.848  0.00  0.00    -0.181 NA
ATOM     15  O   UNL d   1      32.966  16.327 -23.582  0.00  0.00    -0.265 OA
ATOM     16  C   UNL d   1      32.979  18.361 -22.919  0.00  0.00     0.217 A 
ATOM     17  S   UNL d   1      32.449  18.398 -23.556  0.00  0.00    -0.042 SA
ATOM     18  N   UNL d   1      33.218  18.995 -22.424  0.00  0.00    -0.119 N 
ENDBRANCH  11  12
ENDBRANCH   9  11
ENDBRANCH   1   8
BRANCH   2  19
ATOM     19  C   UNL d   1      29.109  16.124 -23.480  0.00  0.00     0.298 C 
ATOM     20  O   UNL d   1      29.532  15.483 -23.737  0.00  0.00    -0.259 OA
BRANCH  19  21
ATOM     21  O   UNL d   1      28.707  16.105 -22.774  0.00  0.00    -0.296 OA
ATOM     22  C   UNL d   1      28.762  15.455 -22.286  0.00  0.00     0.185 C 
ENDBRANCH  19  21
ENDBRANCH   2  19
TORSDOF 5
ENDMDL
MODEL 6
REMARK VINA RESULT:      -0.3      1.534      4.695
REMARK  5 active torsions:
REMARK  status: ('A' for Active; 'I' for Inactive)
REMARK    1  A    between atoms: N_9  and  C_1 
REMARK    2  A    between atoms: C_12  and  C_2 
REMARK       I    between atoms: C_13  and  N_9 
REMARK    3  A    between atoms: C_11  and  C_14 
REMARK    4  A    between atoms: O_19  and  C_12 
REMARK    5  A    between atoms: C_14  and  C_13 
ROOT
ATOM      1  C   UNL d   1      32.862  18.559 -23.410  0.00  0.00     0.119 A 
ATOM      2  C   UNL d   1      32.326  18.103 -23.871  0.00  0.00     0.087 A 
ATOM      3  S   UNL d   1      33.168  18.094 -22.801  0.00  0.00    -0.068 SA
ATOM      4  C   UNL d   1      32.310  17.361 -23.536  0.00  0.00     0.013 A 
ATOM      5  C   UNL d   1      32.826  17.343 -22.875  0.00  0.00     0.031 A 
ATOM      6  C   UNL d   1      31.853  16.744 -23.819  0.00  0.00     0.001 C 
ATOM      7  C   UNL d   1      32.970  16.697 -22.384  0.00  0.00     0.007 C 
ENDROOT
BRANCH   1   8
ATOM      8  N   UNL d   1      33.102  19.351 -23.484  0.00  0.00    -0.201 NA
ATOM      9  C   UNL d   1      32.996  19.877 -22.860  0.00  0.00     0.280 C 
ATOM     10  O   UNL d   1      32.644  19.623 -22.140  0.00  0.00    -0.265 OA
BRANCH   9  11
ATOM     11  C   UNL d   1      33.241  20.683 -22.935  0.00  0.00     0.074 C 
BRANCH  11  12
ATOM     12  C   UNL d   1      33.111  21.233 -22.322  0.00  0.00     0.095 A 
ATOM     13  C   UNL d   1      32.911  22.007 -22.418  0.00  0.00     0.287 A 
ATOM     14  N   UNL d   1      32.838  22.347 -21.668  0.00  0.00    -0.181 NA
ATOM     15  O   UNL d   1      32.795  22.409 -23.141  0.00  0.00    -0.265 OA
ATOM     16  C   UNL d   1      33.002  21.747 -21.117  0.00  0.00     0.217 A 
ATOM     17  S   UNL d   1      33.172  21.053 -21.536  0.00  0.00    -0.042 SA
ATOM     18  N   UNL d   1      32.992  21.845 -20.283  0.00  0.00    -0.119 N 
ENDBRANCH  11  12
ENDBRANCH   9  11
ENDBRANCH   1   8
BRANCH   2  19
ATOM     19  C   UNL d   1      31.899  18.331 -24.519  0.00  0.00     0.298 C 
ATOM     20  O   UNL d   1      32.263  18.764 -25.097  0.00  0.00    -0.259 OA
BRANCH  19  21
ATOM     21  O   UNL d   1      31.116  18.124 -24.582  0.00  0.00    -0.296 OA
ATOM     22  C   UNL d   1      30.605  18.574 -25.028  0.00  0.00     0.185 C 
ENDBRANCH  19  21
ENDBRANCH   2  19
TORSDOF 5
ENDMDL
