MODEL 1
REMARK VINA RESULT:      14.6      0.000      0.000
REMARK  1 active torsions:
REMARK  status: ('A' for Active; 'I' for Inactive)
REMARK    1  A    between atoms: C_7  and  N_2 
ROOT
ATOM      1  C   UNL d   1     -50.430  25.171  33.341  0.00  0.00     0.304 A 
ATOM      2  N   UNL d   1     -51.272  25.198  33.357  0.00  0.00    -0.272 N 
ATOM      3  C   UNL d   1     -50.140  25.962  33.351  0.00  0.00     0.253 A 
ATOM      4  C   UNL d   1     -51.502  25.973  33.376  0.00  0.00     0.070 A 
ATOM      5  C   UNL d   1     -50.818  26.435  33.373  0.00  0.00     0.060 A 
ATOM      6  O   UNL d   1     -49.951  24.461  33.318  0.00  0.00    -0.263 OA
ATOM      7  O   UNL d   1     -49.378  26.241  33.343  0.00  0.00    -0.281 OA
ATOM      8  C   UNL d   1     -52.182  26.315  33.395  0.00  0.00     0.018 A 
ATOM      9  C   UNL d   1     -50.861  27.207  33.389  0.00  0.00     0.005 A 
ATOM     10  C   UNL d   1     -52.291  27.142  33.414  0.00  0.00     0.002 A 
ATOM     11  C   UNL d   1     -51.607  27.604  33.410  0.00  0.00     0.000 A 
ENDROOT
BRANCH   2  12
ATOM     12  C   UNL d   1     -51.804  24.584  33.354  0.00  0.00     0.067 A 
ATOM     13  C   UNL d   1     -51.554  23.807  33.385  0.00  0.00     0.018 A 
ATOM     14  C   UNL d   1     -52.104  23.190  33.382  0.00  0.00     0.002 A 
ATOM     15  C   UNL d   1     -52.898  23.360  33.348  0.00  0.00     0.000 A 
ATOM     16  C   UNL d   1     -53.159  24.148  33.316  0.00  0.00     0.002 A 
ATOM     17  C   UNL d   1     -52.611  24.761  33.319  0.00  0.00     0.018 A 
ENDBRANCH   2  12
TORSDOF 1
ENDMDL
