MODEL 1
REMARK VINA RESULT:       3.8      0.000      0.000
REMARK  5 active torsions:
REMARK  status: ('A' for Active; 'I' for Inactive)
REMARK    1  A    between atoms: N_12  and  C_4 
REMARK    2  A    between atoms: C_19  and  N_5 
REMARK    3  A    between atoms: C_11  and  S_18 
REMARK    4  A    between atoms: S_18  and  C_21 
REMARK    5  A    between atoms: C_21  and  C_19 
ROOT
ATOM      1  C   UNL d   1     -41.895-121.890 -54.226  0.00  0.00     0.191 A 
ATOM      2  C   UNL d   1     -41.629-122.455 -53.687  0.00  0.00     0.174 A 
ATOM      3  N   UNL d   1     -41.848-121.154 -53.862  0.00  0.00    -0.042 NA
ATOM      4  C   UNL d   1     -41.558-121.259 -53.107  0.00  0.00     0.722 A 
ATOM      5  N   UNL d   1     -41.419-122.068 -52.991  0.00  0.00    -0.132 N 
ATOM      6  N   UNL d   1     -42.143-122.123 -54.977  0.00  0.00    -0.239 N 
ATOM      7  C   UNL d   1     -42.127-122.920 -55.191  0.00  0.00     0.358 A 
ATOM      8  N   UNL d   1     -41.862-123.484 -54.652  0.00  0.00    -0.152 NA
ATOM      9  C   UNL d   1     -41.613-123.253 -53.900  0.00  0.00     0.303 A 
ATOM     10  O   UNL d   1     -42.377-123.148 -55.945  0.00  0.00    -0.244 OA
ATOM     11  O   UNL d   1     -41.348-123.817 -53.361  0.00  0.00    -0.263 OA
ATOM     12  C   UNL d   1     -42.406-121.564 -55.510  0.00  0.00     0.105 C 
ENDROOT
BRANCH   5  13
ATOM     13  C   UNL d   1     -41.124-122.423 -52.303  0.00  0.00     0.105 C 
BRANCH  13  14
ATOM     14  C   UNL d   1     -41.527-123.061 -51.959  0.00  0.00     0.058 C 
BRANCH  14  15
ATOM     15  S   UNL d   1     -41.163-123.498 -51.346  0.00  0.00    -0.041 SA
BRANCH  15  16
ATOM     16  C   UNL d   1     -41.547-123.561 -50.615  0.00  0.00     0.215 A 
ATOM     17  N   UNL d   1     -42.362-123.611 -50.573  0.00  0.00    -0.214 NA
ATOM     18  C   UNL d   1     -42.574-123.667 -49.791  0.00  0.00     0.107 A 
ATOM     19  C   UNL d   1     -43.320-123.731 -49.434  0.00  0.00     0.021 A 
ATOM     20  C   UNL d   1     -41.906-123.653 -49.335  0.00  0.00     0.120 A 
ATOM     21  C   UNL d   1     -43.378-123.780 -48.609  0.00  0.00     0.002 A 
ATOM     22  C   UNL d   1     -42.708-123.766 -48.155  0.00  0.00     0.002 A 
ATOM     23  C   UNL d   1     -41.968-123.702 -48.519  0.00  0.00     0.026 A 
ATOM     24  O   UNL d   1     -41.254-123.586 -49.851  0.00  0.00    -0.283 OA
ENDBRANCH  15  16
ENDBRANCH  14  15
ENDBRANCH  13  14
ENDBRANCH   5  13
BRANCH   4  25
ATOM     25  N   UNL d   1     -41.414-120.689 -52.529  0.00  0.00    -0.139 N 
ATOM     26  C   UNL d   1     -41.272-119.901 -52.752  0.00  0.00     0.098 A 
ATOM     27  C   UNL d   1     -41.127-119.330 -52.173  0.00  0.00     0.020 A 
ATOM     28  C   UNL d   1     -41.123-119.538 -51.380  0.00  0.00     0.003 A 
ATOM     29  C   UNL d   1     -41.264-120.321 -51.163  0.00  0.00     0.020 A 
ATOM     30  C   UNL d   1     -41.409-120.898 -51.736  0.00  0.00     0.098 A 
ENDBRANCH   4  25
TORSDOF 5
ENDMDL
