MODEL 1
REMARK VINA RESULT:      -3.4      0.000      0.000
REMARK  7 active torsions:
REMARK  status: ('A' for Active; 'I' for Inactive)
REMARK    1  A    between atoms: C_19  and  N_1 
REMARK    2  A    between atoms: C_6  and  C_3 
REMARK    3  A    between atoms: C_9  and  C_6 
REMARK    4  A    between atoms: C_7  and  N_8 
REMARK       I    between atoms: N_8  and  C_11 
REMARK    5  A    between atoms: C_11  and  C_23 
REMARK    6  A    between atoms: C_22  and  C_19 
REMARK    7  A    between atoms: C_23  and  C_22 
ROOT
ATOM      1  C   UNL d   1      32.444  18.691 -23.769  0.00  0.00     0.024 C 
ENDROOT
BRANCH   1   2
ATOM      2  C   UNL d   1      32.613  17.899 -23.754  0.00  0.00     0.084 C 
BRANCH   2   3
ATOM      3  N   UNL d   1      32.048  17.319 -23.916  0.00  0.00    -0.259 N 
ATOM      4  C   UNL d   1      32.095  16.529 -23.658  0.00  0.00     0.153 A 
ATOM      5  S   UNL d   1      31.422  16.148 -23.942  0.00  0.00    -0.053 SA
ATOM      6  S   UNL d   1      32.708  16.197 -23.201  0.00  0.00    -0.052 SA
ATOM      7  C   UNL d   1      30.950  16.658 -24.368  0.00  0.00     0.090 A 
ATOM      8  C   UNL d   1      31.339  17.379 -24.350  0.00  0.00     0.272 A 
ATOM      9  O   UNL d   1      31.047  18.082 -24.726  0.00  0.00    -0.266 OA
BRANCH   7  10
ATOM     10  C   UNL d   1      30.221  16.478 -24.743  0.00  0.00     0.036 C 
BRANCH  10  11
ATOM     11  C   UNL d   1      29.566  16.244 -24.310  0.00  0.00     0.101 A 
ATOM     12  O   UNL d   1      29.196  16.518 -23.609  0.00  0.00    -0.305 OA
ATOM     13  C   UNL d   1      28.538  16.023 -23.466  0.00  0.00     0.123 A 
ATOM     14  C   UNL d   1      28.494  15.474 -24.037  0.00  0.00     0.029 A 
ATOM     15  C   UNL d   1      29.116  15.599 -24.558  0.00  0.00     0.027 A 
ENDBRANCH  10  11
ENDBRANCH   7  10
ENDBRANCH   2   3
ENDBRANCH   1   2
BRANCH   1  16
ATOM     16  C   UNL d   1      32.909  19.260 -23.354  0.00  0.00     0.064 C 
BRANCH  16  17
ATOM     17  C   UNL d   1      33.122  19.968 -23.684  0.00  0.00     0.279 C 
ATOM     18  N   UNL d   1      33.241  20.636 -23.214  0.00  0.00    -0.208 NA
ATOM     19  O   UNL d   1      33.225  20.025 -24.507  0.00  0.00    -0.265 OA
BRANCH  18  20
ATOM     20  C   UNL d   1      33.138  20.582 -22.380  0.00  0.00     0.085 A 
ATOM     21  C   UNL d   1      32.939  21.258 -21.961  0.00  0.00     0.018 A 
ATOM     22  C   UNL d   1      32.834  21.217 -21.138  0.00  0.00     0.002 A 
ATOM     23  C   UNL d   1      32.843  21.974 -22.358  0.00  0.00     0.002 A 
ATOM     24  C   UNL d   1      32.636  21.887 -20.716  0.00  0.00     0.000 A 
ATOM     25  C   UNL d   1      32.933  20.487 -20.741  0.00  0.00     0.000 A 
ATOM     26  C   UNL d   1      32.536  22.616 -21.100  0.00  0.00     0.000 A 
ATOM     27  C   UNL d   1      32.641  22.658 -21.932  0.00  0.00     0.000 A 
ATOM     28  C   UNL d   1      33.130  19.820 -21.158  0.00  0.00     0.002 A 
ATOM     29  C   UNL d   1      33.234  19.865 -21.981  0.00  0.00     0.019 A 
ENDBRANCH  18  20
ENDBRANCH  16  17
ENDBRANCH   1  16
TORSDOF 7
ENDMDL
MODEL 2
REMARK VINA RESULT:      -2.1      1.723      5.520
REMARK  7 active torsions:
REMARK  status: ('A' for Active; 'I' for Inactive)
REMARK    1  A    between atoms: C_19  and  N_1 
REMARK    2  A    between atoms: C_6  and  C_3 
REMARK    3  A    between atoms: C_9  and  C_6 
REMARK    4  A    between atoms: C_7  and  N_8 
REMARK       I    between atoms: N_8  and  C_11 
REMARK    5  A    between atoms: C_11  and  C_23 
REMARK    6  A    between atoms: C_22  and  C_19 
REMARK    7  A    between atoms: C_23  and  C_22 
ROOT
ATOM      1  C   UNL d   1      32.350  18.736 -24.365  0.00  0.00     0.024 C 
ENDROOT
BRANCH   1   2
ATOM      2  C   UNL d   1      32.943  18.768 -23.813  0.00  0.00     0.084 C 
BRANCH   2   3
ATOM      3  N   UNL d   1      33.044  19.410 -23.303  0.00  0.00    -0.259 N 
ATOM      4  C   UNL d   1      33.170  20.194 -23.552  0.00  0.00     0.153 A 
ATOM      5  S   UNL d   1      33.241  20.648 -22.869  0.00  0.00    -0.053 SA
ATOM      6  S   UNL d   1      33.213  20.459 -24.341  0.00  0.00    -0.052 SA
ATOM      7  C   UNL d   1      33.167  20.191 -22.199  0.00  0.00     0.090 A 
ATOM      8  C   UNL d   1      33.046  19.427 -22.470  0.00  0.00     0.272 A 
ATOM      9  O   UNL d   1      32.938  18.757 -21.961  0.00  0.00    -0.266 OA
BRANCH   7  10
ATOM     10  C   UNL d   1      33.207  20.451 -21.402  0.00  0.00     0.036 C 
BRANCH  10  11
ATOM     11  C   UNL d   1      32.754  21.080 -21.136  0.00  0.00     0.101 A 
ATOM     12  O   UNL d   1      31.931  21.226 -21.072  0.00  0.00    -0.305 OA
ATOM     13  C   UNL d   1      31.839  21.992 -20.751  0.00  0.00     0.123 A 
ATOM     14  C   UNL d   1      32.554  22.309 -20.621  0.00  0.00     0.029 A 
ATOM     15  C   UNL d   1      33.121  21.761 -20.852  0.00  0.00     0.027 A 
ENDBRANCH  10  11
ENDBRANCH   7  10
ENDBRANCH   2   3
ENDBRANCH   1   2
BRANCH   1  16
ATOM     16  C   UNL d   1      31.771  18.124 -24.370  0.00  0.00     0.064 C 
BRANCH  16  17
ATOM     17  C   UNL d   1      31.874  17.432 -24.777  0.00  0.00     0.279 C 
ATOM     18  N   UNL d   1      31.229  16.966 -24.995  0.00  0.00    -0.208 NA
ATOM     19  O   UNL d   1      32.642  17.184 -24.980  0.00  0.00    -0.265 OA
BRANCH  18  20
ATOM     20  C   UNL d   1      30.449  17.214 -24.791  0.00  0.00     0.085 A 
ATOM     21  C   UNL d   1      29.973  16.706 -24.359  0.00  0.00     0.018 A 
ATOM     22  C   UNL d   1      29.203  16.939 -24.152  0.00  0.00     0.002 A 
ATOM     23  C   UNL d   1      30.260  15.966 -24.133  0.00  0.00     0.002 A 
ATOM     24  C   UNL d   1      28.724  16.436 -23.722  0.00  0.00     0.000 A 
ATOM     25  C   UNL d   1      28.918  17.690 -24.385  0.00  0.00     0.000 A 
ATOM     26  C   UNL d   1      28.997  15.689 -23.486  0.00  0.00     0.000 A 
ATOM     27  C   UNL d   1      29.775  15.453 -23.695  0.00  0.00     0.000 A 
ATOM     28  C   UNL d   1      29.392  18.191 -24.812  0.00  0.00     0.002 A 
ATOM     29  C   UNL d   1      30.162  17.954 -25.017  0.00  0.00     0.019 A 
ENDBRANCH  18  20
ENDBRANCH  16  17
ENDBRANCH   1  16
TORSDOF 7
ENDMDL
MODEL 3
REMARK VINA RESULT:      -1.4      2.817      6.228
REMARK  7 active torsions:
REMARK  status: ('A' for Active; 'I' for Inactive)
REMARK    1  A    between atoms: C_19  and  N_1 
REMARK    2  A    between atoms: C_6  and  C_3 
REMARK    3  A    between atoms: C_9  and  C_6 
REMARK    4  A    between atoms: C_7  and  N_8 
REMARK       I    between atoms: N_8  and  C_11 
REMARK    5  A    between atoms: C_11  and  C_23 
REMARK    6  A    between atoms: C_22  and  C_19 
REMARK    7  A    between atoms: C_23  and  C_22 
ROOT
ATOM      1  C   UNL d   1      32.942  20.403 -21.595  0.00  0.00     0.024 C 
ENDROOT
BRANCH   1   2
ATOM      2  C   UNL d   1      32.394  20.996 -21.525  0.00  0.00     0.084 C 
BRANCH   2   3
ATOM      3  N   UNL d   1      32.566  21.724 -21.176  0.00  0.00    -0.259 N 
ATOM      4  C   UNL d   1      32.457  22.462 -21.546  0.00  0.00     0.153 A 
ATOM      5  S   UNL d   1      32.697  23.034 -21.005  0.00  0.00    -0.053 SA
ATOM      6  S   UNL d   1      32.161  22.587 -22.315  0.00  0.00    -0.052 SA
ATOM      7  C   UNL d   1      32.954  22.696 -20.309  0.00  0.00     0.090 A 
ATOM      8  C   UNL d   1      32.872  21.888 -20.418  0.00  0.00     0.272 A 
ATOM      9  O   UNL d   1      33.074  21.310 -19.831  0.00  0.00    -0.266 OA
BRANCH   7  10
ATOM     10  C   UNL d   1      33.240  23.094 -19.628  0.00  0.00     0.036 C 
BRANCH  10  11
ATOM     11  C   UNL d   1      32.773  23.188 -18.962  0.00  0.00     0.101 A 
ATOM     12  O   UNL d   1      31.947  23.236 -18.825  0.00  0.00    -0.305 OA
ATOM     13  C   UNL d   1      31.837  23.333 -18.002  0.00  0.00     0.123 A 
ATOM     14  C   UNL d   1      32.544  23.346 -17.643  0.00  0.00     0.029 A 
ATOM     15  C   UNL d   1      33.123  23.258 -18.219  0.00  0.00     0.027 A 
ENDBRANCH  10  11
ENDBRANCH   7  10
ENDBRANCH   2   3
ENDBRANCH   1   2
BRANCH   1  16
ATOM     16  C   UNL d   1      32.870  19.786 -22.164  0.00  0.00     0.064 C 
BRANCH  16  17
ATOM     17  C   UNL d   1      33.063  19.018 -21.998  0.00  0.00     0.279 C 
ATOM     18  N   UNL d   1      33.086  18.446 -22.593  0.00  0.00    -0.208 NA
ATOM     19  O   UNL d   1      33.241  18.797 -21.215  0.00  0.00    -0.265 OA
BRANCH  18  20
ATOM     20  C   UNL d   1      32.905  18.666 -23.387  0.00  0.00     0.085 A 
ATOM     21  C   UNL d   1      32.390  18.197 -23.818  0.00  0.00     0.018 A 
ATOM     22  C   UNL d   1      32.204  18.403 -24.602  0.00  0.00     0.002 A 
ATOM     23  C   UNL d   1      32.058  17.525 -23.474  0.00  0.00     0.002 A 
ATOM     24  C   UNL d   1      31.691  17.940 -25.037  0.00  0.00     0.000 A 
ATOM     25  C   UNL d   1      32.544  19.085 -24.945  0.00  0.00     0.000 A 
ATOM     26  C   UNL d   1      31.349  17.261 -24.705  0.00  0.00     0.000 A 
ATOM     27  C   UNL d   1      31.535  17.052 -23.914  0.00  0.00     0.000 A 
ATOM     28  C   UNL d   1      33.054  19.547 -24.515  0.00  0.00     0.002 A 
ATOM     29  C   UNL d   1      33.237  19.338 -23.732  0.00  0.00     0.019 A 
ENDBRANCH  18  20
ENDBRANCH  16  17
ENDBRANCH   1  16
TORSDOF 7
ENDMDL
