MODEL 1
REMARK VINA RESULT:      -2.9      0.000      0.000
REMARK  3 active torsions:
REMARK  status: ('A' for Active; 'I' for Inactive)
REMARK    1  A    between atoms: C_2  and  C_1 
REMARK    2  A    between atoms: C_3  and  C_1 
REMARK    3  A    between atoms: C_5  and  C_2 
ROOT
ATOM      1  C   UNL d   1      33.218  21.020 -21.692  0.00  0.00     0.000 C 
ENDROOT
BRANCH   1   2
ATOM      2  C   UNL d   1      32.508  21.326 -21.408  0.00  0.00     0.000 C 
BRANCH   2   3
ATOM      3  C   UNL d   1      32.503  22.065 -21.037  0.00  0.00     0.000 A 
ATOM      4  C   UNL d   1      32.377  22.746 -21.488  0.00  0.00     0.000 A 
ATOM      5  C   UNL d   1      32.371  23.486 -21.126  0.00  0.00     0.000 A 
ATOM      6  C   UNL d   1      32.492  23.548 -20.307  0.00  0.00     0.000 A 
ATOM      7  C   UNL d   1      32.617  22.871 -19.857  0.00  0.00     0.000 A 
ATOM      8  C   UNL d   1      32.624  22.127 -20.219  0.00  0.00     0.000 A 
ENDBRANCH   2   3
ENDBRANCH   1   2
BRANCH   1   9
ATOM      9  C   UNL d   1      33.221  20.310 -22.108  0.00  0.00     0.000 A 
ATOM     10  C   UNL d   1      33.237  20.319 -22.933  0.00  0.00     0.002 A 
ATOM     11  C   UNL d   1      33.241  19.610 -23.350  0.00  0.00     0.021 A 
ATOM     12  C   UNL d   1      33.229  18.890 -22.947  0.00  0.00     0.103 A 
ATOM     13  C   UNL d   1      33.213  18.885 -22.121  0.00  0.00     0.021 A 
ATOM     14  N   UNL d   1      33.233  18.180 -23.371  0.00  0.00    -0.148 N 
ATOM     15  C   UNL d   1      33.210  19.595 -21.701  0.00  0.00     0.002 A 
ENDBRANCH   1   9
TORSDOF 3
ENDMDL
MODEL 2
REMARK VINA RESULT:      -2.9      0.882      1.720
REMARK  3 active torsions:
REMARK  status: ('A' for Active; 'I' for Inactive)
REMARK    1  A    between atoms: C_2  and  C_1 
REMARK    2  A    between atoms: C_3  and  C_1 
REMARK    3  A    between atoms: C_5  and  C_2 
ROOT
ATOM      1  C   UNL d   1      33.040  19.891 -22.606  0.00  0.00     0.000 C 
ENDROOT
BRANCH   1   2
ATOM      2  C   UNL d   1      32.884  20.076 -21.819  0.00  0.00     0.000 C 
BRANCH   2   3
ATOM      3  C   UNL d   1      32.804  20.868 -21.595  0.00  0.00     0.000 A 
ATOM      4  C   UNL d   1      32.284  21.070 -20.984  0.00  0.00     0.000 A 
ATOM      5  C   UNL d   1      32.200  21.857 -20.757  0.00  0.00     0.000 A 
ATOM      6  C   UNL d   1      32.637  22.449 -21.141  0.00  0.00     0.000 A 
ATOM      7  C   UNL d   1      33.155  22.250 -21.749  0.00  0.00     0.000 A 
ATOM      8  C   UNL d   1      33.241  21.461 -21.979  0.00  0.00     0.000 A 
ENDBRANCH   2   3
ENDBRANCH   1   2
BRANCH   1   9
ATOM      9  C   UNL d   1      32.952  19.117 -22.871  0.00  0.00     0.000 A 
ATOM     10  C   UNL d   1      33.240  18.493 -22.414  0.00  0.00     0.002 A 
ATOM     11  C   UNL d   1      33.153  17.719 -22.678  0.00  0.00     0.021 A 
ATOM     12  C   UNL d   1      32.779  17.564 -23.398  0.00  0.00     0.103 A 
ATOM     13  C   UNL d   1      32.492  18.192 -23.852  0.00  0.00     0.021 A 
ATOM     14  N   UNL d   1      32.694  16.784 -23.659  0.00  0.00    -0.148 N 
ATOM     15  C   UNL d   1      32.578  18.969 -23.589  0.00  0.00     0.002 A 
ENDBRANCH   1   9
TORSDOF 3
ENDMDL
MODEL 3
REMARK VINA RESULT:      -2.8      1.890      3.195
REMARK  3 active torsions:
REMARK  status: ('A' for Active; 'I' for Inactive)
REMARK    1  A    between atoms: C_2  and  C_1 
REMARK    2  A    between atoms: C_3  and  C_1 
REMARK    3  A    between atoms: C_5  and  C_2 
ROOT
ATOM      1  C   UNL d   1      32.431  22.700 -19.602  0.00  0.00     0.000 C 
ENDROOT
BRANCH   1   2
ATOM      2  C   UNL d   1      33.053  22.985 -19.144  0.00  0.00     0.000 C 
BRANCH   2   3
ATOM      3  C   UNL d   1      32.970  23.018 -18.322  0.00  0.00     0.000 A 
ATOM      4  C   UNL d   1      33.241  22.389 -17.858  0.00  0.00     0.000 A 
ATOM      5  C   UNL d   1      33.162  22.416 -17.039  0.00  0.00     0.000 A 
ATOM      6  C   UNL d   1      32.810  23.075 -16.677  0.00  0.00     0.000 A 
ATOM      7  C   UNL d   1      32.540  23.702 -17.137  0.00  0.00     0.000 A 
ATOM      8  C   UNL d   1      32.619  23.677 -17.960  0.00  0.00     0.000 A 
ENDBRANCH   2   3
ENDBRANCH   1   2
BRANCH   1   9
ATOM      9  C   UNL d   1      32.574  22.426 -20.364  0.00  0.00     0.000 A 
ATOM     10  C   UNL d   1      32.913  22.929 -20.924  0.00  0.00     0.002 A 
ATOM     11  C   UNL d   1      33.057  22.655 -21.686  0.00  0.00     0.021 A 
ATOM     12  C   UNL d   1      32.864  21.880 -21.893  0.00  0.00     0.103 A 
ATOM     13  C   UNL d   1      32.525  21.379 -21.330  0.00  0.00     0.021 A 
ATOM     14  N   UNL d   1      33.010  21.610 -22.661  0.00  0.00    -0.148 N 
ATOM     15  C   UNL d   1      32.380  21.651 -20.565  0.00  0.00     0.002 A 
ENDBRANCH   1   9
TORSDOF 3
ENDMDL
MODEL 4
REMARK VINA RESULT:      -2.7      3.909      5.550
REMARK  3 active torsions:
REMARK  status: ('A' for Active; 'I' for Inactive)
REMARK    1  A    between atoms: C_2  and  C_1 
REMARK    2  A    between atoms: C_3  and  C_1 
REMARK    3  A    between atoms: C_5  and  C_2 
ROOT
ATOM      1  C   UNL d   1      30.730  17.284 -24.470  0.00  0.00     0.000 C 
ENDROOT
BRANCH   1   2
ATOM      2  C   UNL d   1      31.427  17.248 -24.032  0.00  0.00     0.000 C 
BRANCH   2   3
ATOM      3  C   UNL d   1      32.031  17.790 -24.185  0.00  0.00     0.000 A 
ATOM      4  C   UNL d   1      32.338  18.244 -23.566  0.00  0.00     0.000 A 
ATOM      5  C   UNL d   1      32.940  18.787 -23.711  0.00  0.00     0.000 A 
ATOM      6  C   UNL d   1      33.241  18.878 -24.479  0.00  0.00     0.000 A 
ATOM      7  C   UNL d   1      32.937  18.427 -25.097  0.00  0.00     0.000 A 
ATOM      8  C   UNL d   1      32.332  17.881 -24.953  0.00  0.00     0.000 A 
ENDBRANCH   2   3
ENDBRANCH   1   2
BRANCH   1   9
ATOM      9  C   UNL d   1      30.079  16.836 -24.243  0.00  0.00     0.000 A 
ATOM     10  C   UNL d   1      29.320  17.154 -24.307  0.00  0.00     0.002 A 
ATOM     11  C   UNL d   1      28.668  16.706 -24.080  0.00  0.00     0.021 A 
ATOM     12  C   UNL d   1      28.770  15.941 -23.789  0.00  0.00     0.103 A 
ATOM     13  C   UNL d   1      29.531  15.626 -23.726  0.00  0.00     0.021 A 
ATOM     14  N   UNL d   1      28.111  15.495 -23.562  0.00  0.00    -0.148 N 
ATOM     15  C   UNL d   1      30.186  16.073 -23.953  0.00  0.00     0.002 A 
ENDBRANCH   1   9
TORSDOF 3
ENDMDL
MODEL 5
REMARK VINA RESULT:      -2.6      1.742      4.443
REMARK  3 active torsions:
REMARK  status: ('A' for Active; 'I' for Inactive)
REMARK    1  A    between atoms: C_2  and  C_1 
REMARK    2  A    between atoms: C_3  and  C_1 
REMARK    3  A    between atoms: C_5  and  C_2 
ROOT
ATOM      1  C   UNL d   1      33.241  19.327 -22.584  0.00  0.00     0.000 C 
ENDROOT
BRANCH   1   2
ATOM      2  C   UNL d   1      32.549  19.022 -22.909  0.00  0.00     0.000 C 
BRANCH   2   3
ATOM      3  C   UNL d   1      32.591  18.375 -23.421  0.00  0.00     0.000 A 
ATOM      4  C   UNL d   1      32.739  17.621 -23.115  0.00  0.00     0.000 A 
ATOM      5  C   UNL d   1      32.783  16.972 -23.619  0.00  0.00     0.000 A 
ATOM      6  C   UNL d   1      32.678  17.073 -24.436  0.00  0.00     0.000 A 
ATOM      7  C   UNL d   1      32.531  17.822 -24.743  0.00  0.00     0.000 A 
ATOM      8  C   UNL d   1      32.487  18.476 -24.238  0.00  0.00     0.000 A 
ENDBRANCH   2   3
ENDBRANCH   1   2
BRANCH   1   9
ATOM      9  C   UNL d   1      33.214  20.014 -22.131  0.00  0.00     0.000 A 
ATOM     10  C   UNL d   1      33.160  19.961 -21.310  0.00  0.00     0.002 A 
ATOM     11  C   UNL d   1      33.133  20.648 -20.856  0.00  0.00     0.021 A 
ATOM     12  C   UNL d   1      33.160  21.387 -21.221  0.00  0.00     0.103 A 
ATOM     13  C   UNL d   1      33.214  21.436 -22.043  0.00  0.00     0.021 A 
ATOM     14  N   UNL d   1      33.132  22.075 -20.760  0.00  0.00    -0.148 N 
ATOM     15  C   UNL d   1      33.241  20.750 -22.500  0.00  0.00     0.002 A 
ENDBRANCH   1   9
TORSDOF 3
ENDMDL
MODEL 6
REMARK VINA RESULT:      -2.6      4.184      6.100
REMARK  3 active torsions:
REMARK  status: ('A' for Active; 'I' for Inactive)
REMARK    1  A    between atoms: C_2  and  C_1 
REMARK    2  A    between atoms: C_3  and  C_1 
REMARK    3  A    between atoms: C_5  and  C_2 
ROOT
ATOM      1  C   UNL d   1      30.673  16.855 -24.208  0.00  0.00     0.000 C 
ENDROOT
BRANCH   1   2
ATOM      2  C   UNL d   1      29.921  17.075 -24.460  0.00  0.00     0.000 C 
BRANCH   2   3
ATOM      3  C   UNL d   1      29.271  16.604 -24.262  0.00  0.00     0.000 A 
ATOM      4  C   UNL d   1      28.790  16.819 -23.625  0.00  0.00     0.000 A 
ATOM      5  C   UNL d   1      28.142  16.354 -23.422  0.00  0.00     0.000 A 
ATOM      6  C   UNL d   1      27.970  15.668 -23.857  0.00  0.00     0.000 A 
ATOM      7  C   UNL d   1      28.448  15.453 -24.492  0.00  0.00     0.000 A 
ATOM      8  C   UNL d   1      29.099  15.918 -24.697  0.00  0.00     0.000 A 
ENDBRANCH   2   3
ENDBRANCH   1   2
BRANCH   1   9
ATOM      9  C   UNL d   1      31.304  17.376 -24.294  0.00  0.00     0.000 A 
ATOM     10  C   UNL d   1      31.410  17.775 -25.008  0.00  0.00     0.002 A 
ATOM     11  C   UNL d   1      32.041  18.297 -25.095  0.00  0.00     0.021 A 
ATOM     12  C   UNL d   1      32.567  18.421 -24.472  0.00  0.00     0.103 A 
ATOM     13  C   UNL d   1      32.457  18.019 -23.759  0.00  0.00     0.021 A 
ATOM     14  N   UNL d   1      33.199  18.946 -24.565  0.00  0.00    -0.148 N 
ATOM     15  C   UNL d   1      31.826  17.496 -23.669  0.00  0.00     0.002 A 
ENDBRANCH   1   9
TORSDOF 3
ENDMDL
MODEL 7
REMARK VINA RESULT:      -1.5      2.819      4.087
REMARK  3 active torsions:
REMARK  status: ('A' for Active; 'I' for Inactive)
REMARK    1  A    between atoms: C_2  and  C_1 
REMARK    2  A    between atoms: C_3  and  C_1 
REMARK    3  A    between atoms: C_5  and  C_2 
ROOT
ATOM      1  C   UNL d   1      32.249  23.012 -21.797  0.00  0.00     0.000 C 
ENDROOT
BRANCH   1   2
ATOM      2  C   UNL d   1      32.900  23.093 -22.295  0.00  0.00     0.000 C 
BRANCH   2   3
ATOM      3  C   UNL d   1      32.785  23.112 -23.113  0.00  0.00     0.000 A 
ATOM      4  C   UNL d   1      32.216  23.618 -23.434  0.00  0.00     0.000 A 
ATOM      5  C   UNL d   1      32.097  23.642 -24.249  0.00  0.00     0.000 A 
ATOM      6  C   UNL d   1      32.548  23.157 -24.749  0.00  0.00     0.000 A 
ATOM      7  C   UNL d   1      33.116  22.652 -24.431  0.00  0.00     0.000 A 
ATOM      8  C   UNL d   1      33.237  22.627 -23.613  0.00  0.00     0.000 A 
ENDBRANCH   2   3
ENDBRANCH   1   2
BRANCH   1   9
ATOM      9  C   UNL d   1      32.349  23.054 -20.981  0.00  0.00     0.000 A 
ATOM     10  C   UNL d   1      31.924  23.610 -20.545  0.00  0.00     0.002 A 
ATOM     11  C   UNL d   1      32.023  23.653 -19.729  0.00  0.00     0.021 A 
ATOM     12  C   UNL d   1      32.545  23.142 -19.346  0.00  0.00     0.103 A 
ATOM     13  C   UNL d   1      32.969  22.586 -19.787  0.00  0.00     0.021 A 
ATOM     14  N   UNL d   1      32.641  23.189 -18.526  0.00  0.00    -0.148 N 
ATOM     15  C   UNL d   1      32.871  22.541 -20.604  0.00  0.00     0.002 A 
ENDBRANCH   1   9
TORSDOF 3
ENDMDL
MODEL 8
REMARK VINA RESULT:      -1.2      5.002      6.363
REMARK  3 active torsions:
REMARK  status: ('A' for Active; 'I' for Inactive)
REMARK    1  A    between atoms: C_2  and  C_1 
REMARK    2  A    between atoms: C_3  and  C_1 
REMARK    3  A    between atoms: C_5  and  C_2 
ROOT
ATOM      1  C   UNL d   1      30.724  16.078 -23.576  0.00  0.00     0.000 C 
ENDROOT
BRANCH   1   2
ATOM      2  C   UNL d   1      31.136  16.131 -24.287  0.00  0.00     0.000 C 
BRANCH   2   3
ATOM      3  C   UNL d   1      31.811  16.606 -24.332  0.00  0.00     0.000 A 
ATOM      4  C   UNL d   1      32.264  16.736 -23.652  0.00  0.00     0.000 A 
ATOM      5  C   UNL d   1      32.938  17.208 -23.689  0.00  0.00     0.000 A 
ATOM      6  C   UNL d   1      33.163  17.555 -24.409  0.00  0.00     0.000 A 
ATOM      7  C   UNL d   1      32.713  17.426 -25.086  0.00  0.00     0.000 A 
ATOM      8  C   UNL d   1      32.036  16.952 -25.051  0.00  0.00     0.000 A 
ENDBRANCH   2   3
ENDBRANCH   1   2
BRANCH   1   9
ATOM      9  C   UNL d   1      29.916  15.925 -23.580  0.00  0.00     0.000 A 
ATOM     10  C   UNL d   1      29.463  16.095 -22.912  0.00  0.00     0.002 A 
ATOM     11  C   UNL d   1      28.654  15.943 -22.915  0.00  0.00     0.021 A 
ATOM     12  C   UNL d   1      28.295  15.621 -23.585  0.00  0.00     0.103 A 
ATOM     13  C   UNL d   1      28.751  15.453 -24.252  0.00  0.00     0.021 A 
ATOM     14  N   UNL d   1      27.481  15.470 -23.583  0.00  0.00    -0.148 N 
ATOM     15  C   UNL d   1      29.562  15.604 -24.251  0.00  0.00     0.002 A 
ENDBRANCH   1   9
TORSDOF 3
ENDMDL
