MODEL 1
REMARK VINA RESULT:      -0.6      0.000      0.000
REMARK  6 active torsions:
REMARK  status: ('A' for Active; 'I' for Inactive)
REMARK    1  A    between atoms: N_4  and  C_1 
REMARK    2  A    between atoms: C_10  and  C_3 
REMARK       I    between atoms: C_9  and  N_4 
REMARK       I    between atoms: N_7  and  C_8 
REMARK    3  A    between atoms: C_8  and  C_15 
REMARK    4  A    between atoms: C_16  and  C_9 
REMARK    5  A    between atoms: S_14  and  C_16 
REMARK    6  A    between atoms: C_15  and  S_14 
ROOT
ATOM      1  N   UNL d   1      33.202  19.065 -23.707  0.00  0.00    -0.182 NA
ATOM      2  C   UNL d   1      33.023  18.387 -23.299  0.00  0.00     0.288 C 
ATOM      3  O   UNL d   1      32.831  18.420 -22.498  0.00  0.00    -0.265 OA
ENDROOT
BRANCH   2   4
ATOM      4  C   UNL d   1      33.034  17.658 -23.688  0.00  0.00     0.098 C 
BRANCH   4   5
ATOM      5  S   UNL d   1      32.308  17.193 -23.586  0.00  0.00    -0.076 SA
BRANCH   5   6
ATOM      6  C   UNL d   1      31.852  16.940 -24.281  0.00  0.00     0.097 C 
BRANCH   6   7
ATOM      7  C   UNL d   1      31.333  16.249 -24.226  0.00  0.00     0.272 C 
ATOM      8  N   UNL d   1      30.501  16.306 -24.464  0.00  0.00    -0.267 N 
ATOM      9  C   UNL d   1      30.188  17.061 -24.757  0.00  0.00     0.110 A 
ATOM     10  C   UNL d   1      29.988  15.608 -24.406  0.00  0.00     0.110 A 
ATOM     11  C   UNL d   1      29.359  17.121 -24.995  0.00  0.00     0.142 A 
ATOM     12  O   UNL d   1      28.840  16.431 -24.940  0.00  0.00    -0.300 OA
ATOM     13  C   UNL d   1      29.150  15.675 -24.648  0.00  0.00     0.142 A 
ATOM     14  O   UNL d   1      31.646  15.496 -23.933  0.00  0.00    -0.266 OA
ENDBRANCH   6   7
ENDBRANCH   5   6
ENDBRANCH   4   5
ENDBRANCH   2   4
BRANCH   1  15
ATOM     15  C   UNL d   1      33.192  19.795 -23.321  0.00  0.00     0.197 A 
ATOM     16  N   UNL d   1      33.217  20.533 -23.691  0.00  0.00    -0.221 NA
ATOM     17  C   UNL d   1      33.197  21.111 -23.104  0.00  0.00     0.090 A 
ATOM     18  C   UNL d   1      33.160  20.725 -22.376  0.00  0.00     0.058 A 
ATOM     19  S   UNL d   1      33.157  19.923 -22.511  0.00  0.00    -0.046 SA
BRANCH  17  20
ATOM     20  C   UNL d   1      33.211  21.916 -23.226  0.00  0.00     0.018 A 
ATOM     21  C   UNL d   1      33.226  22.423 -22.595  0.00  0.00     0.002 A 
ATOM     22  C   UNL d   1      33.240  23.238 -22.718  0.00  0.00     0.000 A 
ATOM     23  C   UNL d   1      33.239  23.536 -23.482  0.00  0.00     0.000 A 
ATOM     24  C   UNL d   1      33.223  23.022 -24.127  0.00  0.00     0.000 A 
ATOM     25  C   UNL d   1      33.209  22.211 -23.993  0.00  0.00     0.002 A 
ENDBRANCH  17  20
ENDBRANCH   1  15
TORSDOF 6
ENDMDL
MODEL 2
REMARK VINA RESULT:       0.9      2.985      6.562
REMARK  6 active torsions:
REMARK  status: ('A' for Active; 'I' for Inactive)
REMARK    1  A    between atoms: N_4  and  C_1 
REMARK    2  A    between atoms: C_10  and  C_3 
REMARK       I    between atoms: C_9  and  N_4 
REMARK       I    between atoms: N_7  and  C_8 
REMARK    3  A    between atoms: C_8  and  C_15 
REMARK    4  A    between atoms: C_16  and  C_9 
REMARK    5  A    between atoms: S_14  and  C_16 
REMARK    6  A    between atoms: C_15  and  S_14 
ROOT
ATOM      1  N   UNL d   1      32.255  20.188 -22.344  0.00  0.00    -0.182 NA
ATOM      2  C   UNL d   1      32.615  20.590 -21.738  0.00  0.00     0.288 C 
ATOM      3  O   UNL d   1      33.227  20.240 -21.310  0.00  0.00    -0.265 OA
ENDROOT
BRANCH   2   4
ATOM      4  C   UNL d   1      32.367  21.356 -21.548  0.00  0.00     0.098 C 
BRANCH   4   5
ATOM      5  S   UNL d   1      32.427  21.546 -20.703  0.00  0.00    -0.076 SA
BRANCH   5   6
ATOM      6  C   UNL d   1      32.743  22.315 -20.453  0.00  0.00     0.097 C 
BRANCH   6   7
ATOM      7  C   UNL d   1      32.244  22.858 -20.000  0.00  0.00     0.272 C 
ATOM      8  N   UNL d   1      32.406  23.009 -19.162  0.00  0.00    -0.267 N 
ATOM      9  C   UNL d   1      33.074  22.611 -18.775  0.00  0.00     0.110 A 
ATOM     10  C   UNL d   1      31.900  23.555 -18.716  0.00  0.00     0.110 A 
ATOM     11  C   UNL d   1      33.239  22.759 -17.939  0.00  0.00     0.142 A 
ATOM     12  O   UNL d   1      32.740  23.302 -17.488  0.00  0.00    -0.300 OA
ATOM     13  C   UNL d   1      32.072  23.701 -17.871  0.00  0.00     0.142 A 
ATOM     14  O   UNL d   1      31.577  23.255 -20.387  0.00  0.00    -0.266 OA
ENDBRANCH   6   7
ENDBRANCH   5   6
ENDBRANCH   4   5
ENDBRANCH   2   4
BRANCH   1  15
ATOM     15  C   UNL d   1      32.499  19.423 -22.537  0.00  0.00     0.197 A 
ATOM     16  N   UNL d   1      32.061  18.875 -22.971  0.00  0.00    -0.221 NA
ATOM     17  C   UNL d   1      32.509  18.186 -23.035  0.00  0.00     0.090 A 
ATOM     18  C   UNL d   1      33.221  18.315 -22.639  0.00  0.00     0.058 A 
ATOM     19  S   UNL d   1      33.213  19.070 -22.336  0.00  0.00    -0.046 SA
BRANCH  17  20
ATOM     20  C   UNL d   1      32.285  17.504 -23.420  0.00  0.00     0.018 A 
ATOM     21  C   UNL d   1      31.500  17.317 -23.492  0.00  0.00     0.002 A 
ATOM     22  C   UNL d   1      31.272  16.628 -23.881  0.00  0.00     0.000 A 
ATOM     23  C   UNL d   1      31.842  16.129 -24.197  0.00  0.00     0.000 A 
ATOM     24  C   UNL d   1      32.642  16.317 -24.125  0.00  0.00     0.000 A 
ATOM     25  C   UNL d   1      32.859  17.007 -23.735  0.00  0.00     0.002 A 
ENDBRANCH  17  20
ENDBRANCH   1  15
TORSDOF 6
ENDMDL
MODEL 3
REMARK VINA RESULT:       1.2      1.680      5.989
REMARK  6 active torsions:
REMARK  status: ('A' for Active; 'I' for Inactive)
REMARK    1  A    between atoms: N_4  and  C_1 
REMARK    2  A    between atoms: C_10  and  C_3 
REMARK       I    between atoms: C_9  and  N_4 
REMARK       I    between atoms: N_7  and  C_8 
REMARK    3  A    between atoms: C_8  and  C_15 
REMARK    4  A    between atoms: C_16  and  C_9 
REMARK    5  A    between atoms: S_14  and  C_16 
REMARK    6  A    between atoms: C_15  and  S_14 
ROOT
ATOM      1  N   UNL d   1      32.559  18.630 -23.742  0.00  0.00    -0.182 NA
ATOM      2  C   UNL d   1      32.936  18.840 -23.055  0.00  0.00     0.288 C 
ATOM      3  O   UNL d   1      33.030  18.291 -22.446  0.00  0.00    -0.265 OA
ENDROOT
BRANCH   2   4
ATOM      4  C   UNL d   1      33.228  19.608 -22.964  0.00  0.00     0.098 C 
BRANCH   4   5
ATOM      5  S   UNL d   1      33.052  19.962 -22.191  0.00  0.00    -0.076 SA
BRANCH   5   6
ATOM      6  C   UNL d   1      33.159  20.816 -22.070  0.00  0.00     0.097 C 
BRANCH   6   7
ATOM      7  C   UNL d   1      32.848  21.191 -21.355  0.00  0.00     0.272 C 
ATOM      8  N   UNL d   1      32.622  22.028 -21.361  0.00  0.00    -0.267 N 
ATOM      9  C   UNL d   1      32.709  22.492 -22.090  0.00  0.00     0.110 A 
ATOM     10  C   UNL d   1      32.311  22.396 -20.639  0.00  0.00     0.110 A 
ATOM     11  C   UNL d   1      32.485  23.327 -22.100  0.00  0.00     0.142 A 
ATOM     12  O   UNL d   1      32.174  23.701 -21.385  0.00  0.00    -0.300 OA
ATOM     13  C   UNL d   1      32.086  23.241 -20.655  0.00  0.00     0.142 A 
ATOM     14  O   UNL d   1      32.761  20.728 -20.627  0.00  0.00    -0.266 OA
ENDBRANCH   6   7
ENDBRANCH   5   6
ENDBRANCH   4   5
ENDBRANCH   2   4
BRANCH   1  15
ATOM     15  C   UNL d   1      32.266  17.864 -23.836  0.00  0.00     0.197 A 
ATOM     16  N   UNL d   1      31.473  17.643 -23.770  0.00  0.00    -0.221 NA
ATOM     17  C   UNL d   1      31.425  16.830 -23.905  0.00  0.00     0.090 A 
ATOM     18  C   UNL d   1      32.189  16.557 -24.054  0.00  0.00     0.058 A 
ATOM     19  S   UNL d   1      32.700  17.190 -24.011  0.00  0.00    -0.046 SA
BRANCH  17  20
ATOM     20  C   UNL d   1      30.744  16.384 -23.892  0.00  0.00     0.018 A 
ATOM     21  C   UNL d   1      30.584  15.904 -23.260  0.00  0.00     0.002 A 
ATOM     22  C   UNL d   1      29.895  15.452 -23.247  0.00  0.00     0.000 A 
ATOM     23  C   UNL d   1      29.371  15.488 -23.877  0.00  0.00     0.000 A 
ATOM     24  C   UNL d   1      29.532  15.975 -24.522  0.00  0.00     0.000 A 
ATOM     25  C   UNL d   1      30.221  16.422 -24.525  0.00  0.00     0.002 A 
ENDBRANCH  17  20
ENDBRANCH   1  15
TORSDOF 6
ENDMDL
MODEL 4
REMARK VINA RESULT:       1.3      3.515      6.763
REMARK  6 active torsions:
REMARK  status: ('A' for Active; 'I' for Inactive)
REMARK    1  A    between atoms: N_4  and  C_1 
REMARK    2  A    between atoms: C_10  and  C_3 
REMARK       I    between atoms: C_9  and  N_4 
REMARK       I    between atoms: N_7  and  C_8 
REMARK    3  A    between atoms: C_8  and  C_15 
REMARK    4  A    between atoms: C_16  and  C_9 
REMARK    5  A    between atoms: S_14  and  C_16 
REMARK    6  A    between atoms: C_15  and  S_14 
ROOT
ATOM      1  N   UNL d   1      32.352  20.797 -21.857  0.00  0.00    -0.182 NA
ATOM      2  C   UNL d   1      32.711  20.951 -21.146  0.00  0.00     0.288 C 
ATOM      3  O   UNL d   1      33.236  20.407 -20.816  0.00  0.00    -0.265 OA
ENDROOT
BRANCH   2   4
ATOM      4  C   UNL d   1      32.551  21.659 -20.749  0.00  0.00     0.098 C 
BRANCH   4   5
ATOM      5  S   UNL d   1      33.182  21.910 -20.208  0.00  0.00    -0.076 SA
BRANCH   5   6
ATOM      6  C   UNL d   1      33.023  21.978 -19.357  0.00  0.00     0.097 C 
BRANCH   6   7
ATOM      7  C   UNL d   1      32.978  22.760 -18.989  0.00  0.00     0.272 C 
ATOM      8  N   UNL d   1      32.929  22.838 -18.127  0.00  0.00    -0.267 N 
ATOM      9  C   UNL d   1      32.926  22.126 -17.630  0.00  0.00     0.110 A 
ATOM     10  C   UNL d   1      32.883  23.627 -17.768  0.00  0.00     0.110 A 
ATOM     11  C   UNL d   1      32.877  22.199 -16.771  0.00  0.00     0.142 A 
ATOM     12  O   UNL d   1      32.831  22.981 -16.404  0.00  0.00    -0.300 OA
ATOM     13  C   UNL d   1      32.834  23.695 -16.897  0.00  0.00     0.142 A 
ATOM     14  O   UNL d   1      32.981  23.471 -19.486  0.00  0.00    -0.266 OA
ENDBRANCH   6   7
ENDBRANCH   5   6
ENDBRANCH   4   5
ENDBRANCH   2   4
BRANCH   1  15
ATOM     15  C   UNL d   1      32.509  20.092 -22.256  0.00  0.00     0.197 A 
ATOM     16  N   UNL d   1      31.950  19.628 -22.649  0.00  0.00    -0.221 NA
ATOM     17  C   UNL d   1      32.341  18.977 -22.969  0.00  0.00     0.090 A 
ATOM     18  C   UNL d   1      33.139  19.043 -22.771  0.00  0.00     0.058 A 
ATOM     19  S   UNL d   1      33.239  19.724 -22.336  0.00  0.00    -0.046 SA
BRANCH  17  20
ATOM     20  C   UNL d   1      31.997  18.379 -23.402  0.00  0.00     0.018 A 
ATOM     21  C   UNL d   1      32.164  17.605 -23.230  0.00  0.00     0.002 A 
ATOM     22  C   UNL d   1      31.816  16.999 -23.668  0.00  0.00     0.000 A 
ATOM     23  C   UNL d   1      31.299  17.181 -24.278  0.00  0.00     0.000 A 
ATOM     24  C   UNL d   1      31.128  17.968 -24.455  0.00  0.00     0.000 A 
ATOM     25  C   UNL d   1      31.480  18.565 -24.013  0.00  0.00     0.002 A 
ENDBRANCH  17  20
ENDBRANCH   1  15
TORSDOF 6
ENDMDL
