MODEL 1
REMARK VINA RESULT:      57.0      0.000      0.000
REMARK  3 active torsions:
REMARK  status: ('A' for Active; 'I' for Inactive)
REMARK    1  A    between atoms: N_9  and  C_4 
REMARK       I    between atoms: C_7  and  N_10 
REMARK    2  A    between atoms: C_8  and  C_7 
REMARK    3  A    between atoms: N_10  and  N_9 
ROOT
ATOM      1  C   UNL d   1      58.861  49.680  51.022  0.00  0.00     0.297 C 
ATOM      2  N   UNL d   1      59.293  49.668  50.321  0.00  0.00    -0.104 NA
ATOM      3  O   UNL d   1      59.253  49.686  51.749  0.00  0.00    -0.264 OA
ENDROOT
BRANCH   1   4
ATOM      4  C   UNL d   1      58.039  49.685  50.997  0.00  0.00     0.059 A 
ATOM      5  C   UNL d   1      57.657  49.683  50.260  0.00  0.00     0.005 A 
ATOM      6  C   UNL d   1      56.828  49.688  50.246  0.00  0.00     0.000 A 
ATOM      7  C   UNL d   1      58.085  49.675  49.570  0.00  0.00     0.000 A 
ATOM      8  C   UNL d   1      56.443  49.686  49.523  0.00  0.00     0.000 A 
ATOM      9  C   UNL d   1      56.393  49.696  50.948  0.00  0.00     0.000 A 
ATOM     10  C   UNL d   1      56.867  49.678  48.830  0.00  0.00     0.000 A 
ATOM     11  C   UNL d   1      57.698  49.673  48.850  0.00  0.00     0.000 A 
ATOM     12  C   UNL d   1      56.781  49.698  51.674  0.00  0.00     0.000 A 
ATOM     13  C   UNL d   1      57.608  49.693  51.701  0.00  0.00     0.005 A 
ENDBRANCH   1   4
BRANCH   2  14
ATOM     14  N   UNL d   1      60.116  49.662  50.346  0.00  0.00    -0.127 NA
BRANCH  14  15
ATOM     15  C   UNL d   1      60.518  48.979  50.581  0.00  0.00     0.178 A 
ATOM     16  N   UNL d   1      61.151  48.698  50.139  0.00  0.00    -0.240 N 
ATOM     17  C   UNL d   1      61.548  48.023  50.371  0.00  0.00     0.343 A 
ATOM     18  C   UNL d   1      61.386  49.100  49.458  0.00  0.00     0.105 C 
ATOM     19  N   UNL d   1      61.314  47.621  51.053  0.00  0.00    -0.224 N 
ATOM     20  O   UNL d   1      62.185  47.742  49.926  0.00  0.00    -0.245 OA
ATOM     21  C   UNL d   1      60.680  47.891  51.508  0.00  0.00     0.271 A 
ATOM     22  C   UNL d   1      61.716  46.938  51.288  0.00  0.00     0.107 C 
ATOM     23  C   UNL d   1      60.284  48.577  51.262  0.00  0.00     0.101 A 
ATOM     24  O   UNL d   1      60.448  47.493  52.183  0.00  0.00    -0.266 OA
ENDBRANCH  14  15
ENDBRANCH   2  14
TORSDOF 3
ENDMDL
