MODEL 1
REMARK VINA RESULT:      10.5      0.000      0.000
REMARK  3 active torsions:
REMARK  status: ('A' for Active; 'I' for Inactive)
REMARK    1  A    between atoms: CB_6  and  CG_1 
REMARK    2  A    between atoms: C_5  and  CA_8 
REMARK    3  A    between atoms: CA_8  and  CB_6 
ROOT
ATOM      1  CG  TRP d   1      14.094  12.509  -1.985  0.00  0.00     0.022 A 
ATOM      2  NE1 TRP d   1      14.219  11.779  -0.882  0.00  0.00    -0.244 NA
ATOM      3  CD1 TRP d   1      13.931  11.787  -1.653  0.00  0.00     0.099 A 
ATOM      4  CD2 TRP d   1      14.491  12.968  -1.418  0.00  0.00     0.019 A 
ATOM      5  CE2 TRP d   1      14.567  12.514  -0.737  0.00  0.00     0.081 A 
ATOM      6  CE3 TRP d   1      14.792  13.739  -1.438  0.00  0.00     0.002 A 
ATOM      7  CZ2 TRP d   1      14.943  12.826  -0.072  0.00  0.00     0.019 A 
ATOM      8  CZ3 TRP d   1      15.166  14.051  -0.776  0.00  0.00     0.000 A 
ATOM      9  CH2 TRP d   1      15.243  13.598  -0.092  0.00  0.00     0.002 A 
ENDROOT
BRANCH   1  10
ATOM     10  CB  TRP d   1      13.893  12.734  -2.756  0.00  0.00     0.029 C 
BRANCH  10  11
ATOM     11  CA  TRP d   1      13.340  12.303  -3.173  0.00  0.00     0.167 C 
ATOM     12  N   TRP d   1      12.840  11.780  -2.776  0.00  0.00    -0.142 N 
BRANCH  11  13
ATOM     13  C   TRP d   1      13.284  12.392  -3.988  0.00  0.00     0.231 C 
ATOM     14  O   TRP d   1      12.970  13.074  -4.306  0.00  0.00    -0.643 OA
ATOM     15  OXT TRP d   1      13.547  11.787  -4.482  0.00  0.00    -0.643 OA
ENDBRANCH  11  13
ENDBRANCH  10  11
ENDBRANCH   1  10
TORSDOF 3
ENDMDL
MODEL 2
REMARK VINA RESULT:      11.4      1.794      3.236
REMARK  3 active torsions:
REMARK  status: ('A' for Active; 'I' for Inactive)
REMARK    1  A    between atoms: CB_6  and  CG_1 
REMARK    2  A    between atoms: C_5  and  CA_8 
REMARK    3  A    between atoms: CA_8  and  CB_6 
ROOT
ATOM      1  CG  TRP d   1      13.821  12.545  -2.777  0.00  0.00     0.022 A 
ATOM      2  NE1 TRP d   1      13.205  11.780  -3.673  0.00  0.00    -0.244 NA
ATOM      3  CD1 TRP d   1      13.629  11.779  -2.967  0.00  0.00     0.099 A 
ATOM      4  CD2 TRP d   1      13.515  13.040  -3.370  0.00  0.00     0.019 A 
ATOM      5  CE2 TRP d   1      13.134  12.564  -3.922  0.00  0.00     0.081 A 
ATOM      6  CE3 TRP d   1      13.535  13.861  -3.474  0.00  0.00     0.002 A 
ATOM      7  CZ2 TRP d   1      12.773  12.905  -4.581  0.00  0.00     0.019 A 
ATOM      8  CZ3 TRP d   1      13.175  14.201  -4.130  0.00  0.00     0.000 A 
ATOM      9  CH2 TRP d   1      12.793  13.726  -4.685  0.00  0.00     0.002 A 
ENDROOT
BRANCH   1  10
ATOM     10  CB  TRP d   1      14.247  12.775  -2.107  0.00  0.00     0.029 C 
BRANCH  10  11
ATOM     11  CA  TRP d   1      14.244  12.302  -1.442  0.00  0.00     0.167 C 
ATOM     12  N   TRP d   1      13.618  11.782  -1.309  0.00  0.00    -0.142 N 
BRANCH  11  13
ATOM     13  C   TRP d   1      14.867  12.347  -0.907  0.00  0.00     0.231 C 
ATOM     14  O   TRP d   1      14.720  12.481  -0.116  0.00  0.00    -0.643 OA
ATOM     15  OXT TRP d   1      15.641  12.254  -1.176  0.00  0.00    -0.643 OA
ENDBRANCH  11  13
ENDBRANCH  10  11
ENDBRANCH   1  10
TORSDOF 3
ENDMDL
