MODEL 1
REMARK VINA RESULT:      -0.6      0.000      0.000
REMARK  5 active torsions:
REMARK  status: ('A' for Active; 'I' for Inactive)
REMARK    1  A    between atoms: C_4  and  C_1 
REMARK    2  A    between atoms: C_10  and  C_2 
REMARK    3  A    between atoms: C_8  and  C_4 
REMARK    4  A    between atoms: C_9  and  C_4 
REMARK    5  A    between atoms: N_5  and  C_9 
ROOT
ATOM      1  C   UNL d   1      58.707   0.043  30.528  0.00  0.00     0.023 A 
ATOM      2  C   UNL d   1      58.501   0.167  31.327  0.00  0.00     0.081 A 
ATOM      3  N   UNL d   1      59.168   0.423  31.724  0.00  0.00    -0.246 NA
ATOM      4  C   UNL d   1      59.506   0.226  30.442  0.00  0.00     0.019 A 
ATOM      5  C   UNL d   1      59.799   0.463  31.181  0.00  0.00     0.081 A 
ATOM      6  C   UNL d   1      60.009   0.210  29.790  0.00  0.00     0.002 A 
ATOM      7  C   UNL d   1      60.584   0.682  31.271  0.00  0.00     0.019 A 
ATOM      8  C   UNL d   1      60.799   0.429  29.879  0.00  0.00     0.000 A 
ATOM      9  C   UNL d   1      61.087   0.662  30.606  0.00  0.00     0.002 A 
ENDROOT
BRANCH   1  10
ATOM     10  C   UNL d   1      58.202  -0.218  29.924  0.00  0.00     0.048 C 
BRANCH  10  11
ATOM     11  C   UNL d   1      58.309  -0.955  29.584  0.00  0.00     0.102 A 
ATOM     12  O   UNL d   1      58.158  -1.689  29.941  0.00  0.00    -0.305 OA
ATOM     13  C   UNL d   1      58.344  -2.273  29.397  0.00  0.00     0.123 A 
ATOM     14  C   UNL d   1      58.613  -1.907  28.694  0.00  0.00     0.029 A 
ATOM     15  C   UNL d   1      58.587  -1.102  28.820  0.00  0.00     0.027 A 
ENDBRANCH  10  11
BRANCH  10  16
ATOM     16  C   UNL d   1      57.586   0.277  29.666  0.00  0.00     0.150 C 
BRANCH  16  17
ATOM     17  N   UNL d   1      57.573   0.532  28.881  0.00  0.00    -0.112 N 
ATOM     18  O   UNL d   1      56.858   0.682  28.495  0.00  0.00    -0.532 OA
ATOM     19  O   UNL d   1      58.290   0.644  28.457  0.00  0.00    -0.532 OA
ENDBRANCH  16  17
ENDBRANCH  10  16
ENDBRANCH   1  10
BRANCH   2  20
ATOM     20  C   UNL d   1      57.753   0.051  31.656  0.00  0.00     0.018 A 
ATOM     21  C   UNL d   1      57.212   0.682  31.705  0.00  0.00     0.002 A 
ATOM     22  C   UNL d   1      56.464   0.569  32.033  0.00  0.00     0.000 A 
ATOM     23  C   UNL d   1      56.246  -0.176  32.317  0.00  0.00     0.000 A 
ATOM     24  C   UNL d   1      56.781  -0.812  32.272  0.00  0.00     0.000 A 
ATOM     25  C   UNL d   1      55.502  -0.288  32.644  0.00  0.00     0.000 C 
ATOM     26  C   UNL d   1      57.535  -0.690  31.939  0.00  0.00     0.002 A 
ENDBRANCH   2  20
TORSDOF 5
ENDMDL
MODEL 2
REMARK VINA RESULT:       0.7      1.054      2.326
REMARK  5 active torsions:
REMARK  status: ('A' for Active; 'I' for Inactive)
REMARK    1  A    between atoms: C_4  and  C_1 
REMARK    2  A    between atoms: C_10  and  C_2 
REMARK    3  A    between atoms: C_8  and  C_4 
REMARK    4  A    between atoms: C_9  and  C_4 
REMARK    5  A    between atoms: N_5  and  C_9 
ROOT
ATOM      1  C   UNL d   1      58.602  -0.710  30.130  0.00  0.00     0.023 A 
ATOM      2  C   UNL d   1      57.988  -1.020  30.602  0.00  0.00     0.081 A 
ATOM      3  N   UNL d   1      57.922  -1.819  30.438  0.00  0.00    -0.246 NA
ATOM      4  C   UNL d   1      58.909  -1.326  29.677  0.00  0.00     0.019 A 
ATOM      5  C   UNL d   1      58.491  -2.018  29.863  0.00  0.00     0.081 A 
ATOM      6  C   UNL d   1      59.514  -1.353  29.118  0.00  0.00     0.002 A 
ATOM      7  C   UNL d   1      58.673  -2.729  29.499  0.00  0.00     0.019 A 
ATOM      8  C   UNL d   1      59.698  -2.067  28.750  0.00  0.00     0.000 A 
ATOM      9  C   UNL d   1      59.287  -2.749  28.934  0.00  0.00     0.002 A 
ENDROOT
BRANCH   1  10
ATOM     10  C   UNL d   1      58.861   0.078  30.114  0.00  0.00     0.048 C 
BRANCH  10  11
ATOM     11  C   UNL d   1      59.574   0.287  30.460  0.00  0.00     0.102 A 
ATOM     12  O   UNL d   1      59.726   0.352  31.273  0.00  0.00    -0.305 OA
ATOM     13  C   UNL d   1      60.510   0.574  31.361  0.00  0.00     0.123 A 
ATOM     14  C   UNL d   1      60.854   0.649  30.602  0.00  0.00     0.029 A 
ATOM     15  C   UNL d   1      60.272   0.471  30.060  0.00  0.00     0.027 A 
ENDBRANCH  10  11
BRANCH  10  16
ATOM     16  C   UNL d   1      58.391   0.654  29.745  0.00  0.00     0.150 C 
BRANCH  16  17
ATOM     17  N   UNL d   1      58.343   0.671  28.921  0.00  0.00    -0.112 N 
ATOM     18  O   UNL d   1      59.026   0.681  28.455  0.00  0.00    -0.532 OA
ATOM     19  O   UNL d   1      57.596   0.679  28.537  0.00  0.00    -0.532 OA
ENDBRANCH  16  17
ENDBRANCH  10  16
ENDBRANCH   1  10
BRANCH   2  20
ATOM     20  C   UNL d   1      57.530  -0.594  31.139  0.00  0.00     0.018 A 
ATOM     21  C   UNL d   1      57.551  -0.780  31.951  0.00  0.00     0.002 A 
ATOM     22  C   UNL d   1      57.094  -0.356  32.491  0.00  0.00     0.000 A 
ATOM     23  C   UNL d   1      56.610   0.260  32.227  0.00  0.00     0.000 A 
ATOM     24  C   UNL d   1      56.583   0.452  31.418  0.00  0.00     0.000 A 
ATOM     25  C   UNL d   1      56.155   0.682  32.764  0.00  0.00     0.000 C 
ATOM     26  C   UNL d   1      57.047   0.019  30.878  0.00  0.00     0.002 A 
ENDBRANCH   2  20
TORSDOF 5
ENDMDL
