MODEL 1
REMARK VINA RESULT:      -8.7      0.000      0.000
REMARK  3 active torsions:
REMARK  status: ('A' for Active; 'I' for Inactive)
REMARK    1  A    between atoms: S_10  and  C_6 
REMARK    2  A    between atoms: C_13  and  S_10 
REMARK    3  A    between atoms: C_14  and  C_13 
ROOT
ATOM      1  C   UNL d   1      52.858  32.347  53.288  0.00  0.00     0.141 A 
ATOM      2  O   UNL d   1      52.055  32.372  53.100  0.00  0.00    -0.303 OA
ATOM      3  C   UNL d   1      53.130  33.125  53.363  0.00  0.00     0.110 A 
ATOM      4  C   UNL d   1      52.495  33.628  53.221  0.00  0.00     0.043 A 
ATOM      5  C   UNL d   1      51.828  33.168  53.058  0.00  0.00     0.102 A 
ATOM      6  C   UNL d   1      53.373  31.719  53.400  0.00  0.00     0.137 A 
ATOM      7  N   UNL d   1      54.169  31.862  53.588  0.00  0.00    -0.215 NA
ATOM      8  N   UNL d   1      53.919  33.262  53.550  0.00  0.00    -0.222 NA
ATOM      9  C   UNL d   1      54.435  32.634  53.662  0.00  0.00     0.200 A 
ATOM     10  C   UNL d   1      52.439  34.455  53.220  0.00  0.00     0.004 A 
ATOM     11  C   UNL d   1      51.102  33.529  52.893  0.00  0.00     0.025 A 
ATOM     12  C   UNL d   1      51.713  34.816  53.055  0.00  0.00     0.000 A 
ATOM     13  C   UNL d   1      51.051  34.354  52.893  0.00  0.00     0.002 A 
ENDROOT
BRANCH   6  14
ATOM     14  S   UNL d   1      53.108  30.935  53.326  0.00  0.00    -0.065 SA
BRANCH  14  15
ATOM     15  C   UNL d   1      53.496  30.333  53.738  0.00  0.00     0.037 C 
BRANCH  15  16
ATOM     16  C   UNL d   1      53.191  29.568  53.736  0.00  0.00     0.007 C 
ATOM     17  C   UNL d   1      53.348  29.068  54.371  0.00  0.00     0.001 C 
ENDBRANCH  15  16
ENDBRANCH  14  15
ENDBRANCH   6  14
TORSDOF 3
ENDMDL
MODEL 2
REMARK VINA RESULT:      -8.4      1.469      2.082
REMARK  3 active torsions:
REMARK  status: ('A' for Active; 'I' for Inactive)
REMARK    1  A    between atoms: S_10  and  C_6 
REMARK    2  A    between atoms: C_13  and  S_10 
REMARK    3  A    between atoms: C_14  and  C_13 
ROOT
ATOM      1  C   UNL d   1      53.542  31.871  53.823  0.00  0.00     0.141 A 
ATOM      2  O   UNL d   1      54.110  31.998  54.407  0.00  0.00    -0.303 OA
ATOM      3  C   UNL d   1      53.205  32.601  53.627  0.00  0.00     0.110 A 
ATOM      4  C   UNL d   1      53.566  33.177  54.090  0.00  0.00     0.043 A 
ATOM      5  C   UNL d   1      54.126  32.811  54.574  0.00  0.00     0.102 A 
ATOM      6  C   UNL d   1      53.289  31.187  53.447  0.00  0.00     0.137 A 
ATOM      7  N   UNL d   1      52.695  31.227  52.869  0.00  0.00    -0.215 NA
ATOM      8  N   UNL d   1      52.616  32.635  53.054  0.00  0.00    -0.222 NA
ATOM      9  C   UNL d   1      52.363  31.951  52.678  0.00  0.00     0.200 A 
ATOM     10  C   UNL d   1      53.454  33.997  54.132  0.00  0.00     0.004 A 
ATOM     11  C   UNL d   1      54.578  33.258  55.102  0.00  0.00     0.025 A 
ATOM     12  C   UNL d   1      53.906  34.445  54.661  0.00  0.00     0.000 A 
ATOM     13  C   UNL d   1      54.464  34.076  55.142  0.00  0.00     0.002 A 
ENDROOT
BRANCH   6  14
ATOM     14  S   UNL d   1      53.622  30.451  53.638  0.00  0.00    -0.065 SA
BRANCH  14  15
ATOM     15  C   UNL d   1      53.127  29.811  53.807  0.00  0.00     0.037 C 
BRANCH  15  16
ATOM     16  C   UNL d   1      53.451  29.080  54.005  0.00  0.00     0.007 C 
ATOM     17  C   UNL d   1      53.277  28.747  54.738  0.00  0.00     0.001 C 
ENDBRANCH  15  16
ENDBRANCH  14  15
ENDBRANCH   6  14
TORSDOF 3
ENDMDL
MODEL 3
REMARK VINA RESULT:      -8.2      1.799      3.526
REMARK  3 active torsions:
REMARK  status: ('A' for Active; 'I' for Inactive)
REMARK    1  A    between atoms: S_10  and  C_6 
REMARK    2  A    between atoms: C_13  and  S_10 
REMARK    3  A    between atoms: C_14  and  C_13 
ROOT
ATOM      1  C   UNL d   1      52.632  33.573  53.587  0.00  0.00     0.141 A 
ATOM      2  O   UNL d   1      52.854  34.191  54.085  0.00  0.00    -0.303 OA
ATOM      3  C   UNL d   1      53.180  32.959  53.677  0.00  0.00     0.110 A 
ATOM      4  C   UNL d   1      53.738  33.200  54.230  0.00  0.00     0.043 A 
ATOM      5  C   UNL d   1      53.543  33.960  54.486  0.00  0.00     0.102 A 
ATOM      6  C   UNL d   1      52.004  33.491  53.065  0.00  0.00     0.137 A 
ATOM      7  N   UNL d   1      51.917  32.791  52.627  0.00  0.00    -0.215 NA
ATOM      8  N   UNL d   1      53.089  32.268  53.240  0.00  0.00    -0.222 NA
ATOM      9  C   UNL d   1      52.461  32.186  52.718  0.00  0.00     0.200 A 
ATOM     10  C   UNL d   1      54.408  32.818  54.536  0.00  0.00     0.004 A 
ATOM     11  C   UNL d   1      54.012  34.346  55.048  0.00  0.00     0.025 A 
ATOM     12  C   UNL d   1      54.877  33.204  55.099  0.00  0.00     0.000 A 
ATOM     13  C   UNL d   1      54.678  33.962  55.351  0.00  0.00     0.002 A 
ENDROOT
BRANCH   6  14
ATOM     14  S   UNL d   1      51.450  34.102  52.969  0.00  0.00    -0.065 SA
BRANCH  14  15
ATOM     15  C   UNL d   1      50.733  33.946  52.590  0.00  0.00     0.037 C 
BRANCH  15  16
ATOM     16  C   UNL d   1      50.116  34.491  52.633  0.00  0.00     0.007 C 
ATOM     17  C   UNL d   1      49.563  34.523  52.024  0.00  0.00     0.001 C 
ENDBRANCH  15  16
ENDBRANCH  14  15
ENDBRANCH   6  14
TORSDOF 3
ENDMDL
MODEL 4
REMARK VINA RESULT:      -8.2      1.163      3.522
REMARK  3 active torsions:
REMARK  status: ('A' for Active; 'I' for Inactive)
REMARK    1  A    between atoms: S_10  and  C_6 
REMARK    2  A    between atoms: C_13  and  S_10 
REMARK    3  A    between atoms: C_14  and  C_13 
ROOT
ATOM      1  C   UNL d   1      52.443  32.813  53.086  0.00  0.00     0.141 A 
ATOM      2  O   UNL d   1      52.174  32.111  52.747  0.00  0.00    -0.303 OA
ATOM      3  C   UNL d   1      53.111  32.639  53.543  0.00  0.00     0.110 A 
ATOM      4  C   UNL d   1      53.252  31.831  53.486  0.00  0.00     0.043 A 
ATOM      5  C   UNL d   1      52.677  31.500  52.995  0.00  0.00     0.102 A 
ATOM      6  C   UNL d   1      52.167  33.584  53.037  0.00  0.00     0.137 A 
ATOM      7  N   UNL d   1      52.557  34.191  53.446  0.00  0.00    -0.215 NA
ATOM      8  N   UNL d   1      53.494  33.245  53.948  0.00  0.00    -0.222 NA
ATOM      9  C   UNL d   1      53.218  34.016  53.898  0.00  0.00     0.200 A 
ATOM     10  C   UNL d   1      53.838  31.351  53.822  0.00  0.00     0.004 A 
ATOM     11  C   UNL d   1      52.681  30.688  52.835  0.00  0.00     0.025 A 
ATOM     12  C   UNL d   1      53.842  30.539  53.662  0.00  0.00     0.000 A 
ATOM     13  C   UNL d   1      53.267  30.212  53.172  0.00  0.00     0.002 A 
ENDROOT
BRANCH   6  14
ATOM     14  S   UNL d   1      51.498  33.767  52.580  0.00  0.00    -0.065 SA
BRANCH  14  15
ATOM     15  C   UNL d   1      50.943  34.306  52.867  0.00  0.00     0.037 C 
BRANCH  15  16
ATOM     16  C   UNL d   1      50.256  34.459  52.440  0.00  0.00     0.007 C 
ATOM     17  C   UNL d   1      49.618  34.819  52.816  0.00  0.00     0.001 C 
ENDBRANCH  15  16
ENDBRANCH  14  15
ENDBRANCH   6  14
TORSDOF 3
ENDMDL
MODEL 5
REMARK VINA RESULT:      -7.8      1.453      3.712
REMARK  3 active torsions:
REMARK  status: ('A' for Active; 'I' for Inactive)
REMARK    1  A    between atoms: S_10  and  C_6 
REMARK    2  A    between atoms: C_13  and  S_10 
REMARK    3  A    between atoms: C_14  and  C_13 
ROOT
ATOM      1  C   UNL d   1      52.979  32.673  53.510  0.00  0.00     0.141 A 
ATOM      2  O   UNL d   1      53.510  32.219  53.948  0.00  0.00    -0.303 OA
ATOM      3  C   UNL d   1      52.567  32.167  53.000  0.00  0.00     0.110 A 
ATOM      4  C   UNL d   1      52.844  31.403  53.125  0.00  0.00     0.043 A 
ATOM      5  C   UNL d   1      53.427  31.429  53.709  0.00  0.00     0.102 A 
ATOM      6  C   UNL d   1      52.819  33.477  53.510  0.00  0.00     0.137 A 
ATOM      7  N   UNL d   1      52.243  33.786  52.998  0.00  0.00    -0.215 NA
ATOM      8  N   UNL d   1      51.997  32.478  52.495  0.00  0.00    -0.222 NA
ATOM      9  C   UNL d   1      51.837  33.283  52.495  0.00  0.00     0.200 A 
ATOM     10  C   UNL d   1      52.638  30.680  52.776  0.00  0.00     0.004 A 
ATOM     11  C   UNL d   1      53.808  30.734  53.950  0.00  0.00     0.025 A 
ATOM     12  C   UNL d   1      53.018  29.986  53.017  0.00  0.00     0.000 A 
ATOM     13  C   UNL d   1      53.599  30.016  53.600  0.00  0.00     0.002 A 
ENDROOT
BRANCH   6  14
ATOM     14  S   UNL d   1      53.228  33.990  54.019  0.00  0.00    -0.065 SA
BRANCH  14  15
ATOM     15  C   UNL d   1      52.961  34.766  54.116  0.00  0.00     0.037 C 
BRANCH  15  16
ATOM     16  C   UNL d   1      53.320  35.260  54.669  0.00  0.00     0.007 C 
ATOM     17  C   UNL d   1      53.062  36.039  54.742  0.00  0.00     0.001 C 
ENDBRANCH  15  16
ENDBRANCH  14  15
ENDBRANCH   6  14
TORSDOF 3
ENDMDL
MODEL 6
REMARK VINA RESULT:      -7.6      1.497      2.346
REMARK  3 active torsions:
REMARK  status: ('A' for Active; 'I' for Inactive)
REMARK    1  A    between atoms: S_10  and  C_6 
REMARK    2  A    between atoms: C_13  and  S_10 
REMARK    3  A    between atoms: C_14  and  C_13 
ROOT
ATOM      1  C   UNL d   1      52.550  33.362  53.626  0.00  0.00     0.141 A 
ATOM      2  O   UNL d   1      52.143  34.041  53.857  0.00  0.00    -0.303 OA
ATOM      3  C   UNL d   1      52.151  33.029  52.982  0.00  0.00     0.110 A 
ATOM      4  C   UNL d   1      51.500  33.503  52.817  0.00  0.00     0.043 A 
ATOM      5  C   UNL d   1      51.490  34.130  53.354  0.00  0.00     0.102 A 
ATOM      6  C   UNL d   1      53.229  33.007  53.918  0.00  0.00     0.137 A 
ATOM      7  N   UNL d   1      53.517  32.311  53.568  0.00  0.00    -0.215 NA
ATOM      8  N   UNL d   1      52.441  32.340  52.638  0.00  0.00    -0.222 NA
ATOM      9  C   UNL d   1      53.120  31.984  52.930  0.00  0.00     0.200 A 
ATOM     10  C   UNL d   1      50.909  33.442  52.239  0.00  0.00     0.004 A 
ATOM     11  C   UNL d   1      50.891  34.700  53.320  0.00  0.00     0.025 A 
ATOM     12  C   UNL d   1      50.310  34.012  52.204  0.00  0.00     0.000 A 
ATOM     13  C   UNL d   1      50.303  34.636  52.742  0.00  0.00     0.002 A 
ENDROOT
BRANCH   6  14
ATOM     14  S   UNL d   1      53.635  33.334  54.564  0.00  0.00    -0.065 SA
BRANCH  14  15
ATOM     15  C   UNL d   1      54.434  33.158  54.676  0.00  0.00     0.037 C 
BRANCH  15  16
ATOM     16  C   UNL d   1      54.830  33.437  55.342  0.00  0.00     0.007 C 
ATOM     17  C   UNL d   1      55.487  33.924  55.247  0.00  0.00     0.001 C 
ENDBRANCH  15  16
ENDBRANCH  14  15
ENDBRANCH   6  14
TORSDOF 3
ENDMDL
MODEL 7
REMARK VINA RESULT:      -5.9      9.640     10.433
REMARK  3 active torsions:
REMARK  status: ('A' for Active; 'I' for Inactive)
REMARK    1  A    between atoms: S_10  and  C_6 
REMARK    2  A    between atoms: C_13  and  S_10 
REMARK    3  A    between atoms: C_14  and  C_13 
ROOT
ATOM      1  C   UNL d   1      45.004  29.618  58.784  0.00  0.00     0.141 A 
ATOM      2  O   UNL d   1      45.155  28.836  58.997  0.00  0.00    -0.303 OA
ATOM      3  C   UNL d   1      44.957  29.656  57.958  0.00  0.00     0.110 A 
ATOM      4  C   UNL d   1      45.078  28.898  57.664  0.00  0.00     0.043 A 
ATOM      5  C   UNL d   1      45.202  28.387  58.301  0.00  0.00     0.102 A 
ATOM      6  C   UNL d   1      44.904  30.296  59.233  0.00  0.00     0.137 A 
ATOM      7  N   UNL d   1      44.755  31.023  58.861  0.00  0.00    -0.215 NA
ATOM      8  N   UNL d   1      44.809  30.379  57.594  0.00  0.00    -0.222 NA
ATOM      9  C   UNL d   1      44.709  31.058  58.044  0.00  0.00     0.200 A 
ATOM     10  C   UNL d   1      45.093  28.606  56.888  0.00  0.00     0.004 A 
ATOM     11  C   UNL d   1      45.340  27.582  58.169  0.00  0.00     0.025 A 
ATOM     12  C   UNL d   1      45.231  27.801  56.757  0.00  0.00     0.000 A 
ATOM     13  C   UNL d   1      45.354  27.294  57.394  0.00  0.00     0.002 A 
ENDROOT
BRANCH   6  14
ATOM     14  S   UNL d   1      44.950  30.267  60.062  0.00  0.00    -0.065 SA
BRANCH  14  15
ATOM     15  C   UNL d   1      44.653  30.894  60.510  0.00  0.00     0.037 C 
BRANCH  15  16
ATOM     16  C   UNL d   1      44.685  30.865  61.333  0.00  0.00     0.007 C 
ATOM     17  C   UNL d   1      44.326  31.463  61.771  0.00  0.00     0.001 C 
ENDBRANCH  15  16
ENDBRANCH  14  15
ENDBRANCH   6  14
TORSDOF 3
ENDMDL
