MODEL 1
REMARK VINA RESULT:      -3.6      0.000      0.000
REMARK  8 active torsions:
REMARK  status: ('A' for Active; 'I' for Inactive)
REMARK    1  A    between atoms: C_2  and  S_1 
REMARK    2  A    between atoms: N_13  and  S_1 
REMARK    3  A    between atoms: C_16  and  C_4 
REMARK    4  A    between atoms: O_17  and  C_5 
REMARK    5  A    between atoms: N_8  and  C_18 
REMARK    6  A    between atoms: C_21  and  N_13 
REMARK    7  A    between atoms: C_18  and  C_19 
REMARK    8  A    between atoms: C_19  and  C_21 
ROOT
ATOM      1  C   UNL d   1     -41.958-122.557 -50.071  0.00  0.00     0.128 A 
ATOM      2  C   UNL d   1     -41.491-122.718 -49.404  0.00  0.00     0.015 A 
ATOM      3  C   UNL d   1     -41.853-122.890 -48.683  0.00  0.00     0.001 A 
ATOM      4  C   UNL d   1     -42.782-122.569 -50.017  0.00  0.00     0.106 A 
ATOM      5  C   UNL d   1     -42.682-122.902 -48.629  0.00  0.00     0.002 A 
ATOM      6  C   UNL d   1     -43.144-122.741 -49.296  0.00  0.00     0.025 A 
ATOM      7  C   UNL d   1     -43.044-123.074 -47.908  0.00  0.00     0.000 C 
ENDROOT
BRANCH   1   8
ATOM      8  S   UNL d   1     -41.596-122.385 -50.792  0.00  0.00     0.287 S 
ATOM      9  O   UNL d   1     -41.492-121.602 -50.554  0.00  0.00    -0.198 OA
ATOM     10  O   UNL d   1     -41.699-123.169 -51.031  0.00  0.00    -0.198 OA
BRANCH   8  11
ATOM     11  N   UNL d   1     -41.231-122.212 -51.518  0.00  0.00    -0.157 NA
BRANCH  11  12
ATOM     12  C   UNL d   1     -41.300-122.745 -52.151  0.00  0.00     0.114 C 
BRANCH  12  13
ATOM     13  C   UNL d   1     -41.153-122.488 -52.921  0.00  0.00     0.041 C 
BRANCH  13  14
ATOM     14  C   UNL d   1     -41.343-122.967 -53.568  0.00  0.00     0.083 C 
BRANCH  14  15
ATOM     15  N   UNL d   1     -41.596-122.632 -54.278  0.00  0.00    -0.285 N 
ATOM     16  C   UNL d   1     -41.234-122.734 -55.012  0.00  0.00     0.183 A 
ATOM     17  N   UNL d   1     -41.671-122.300 -55.566  0.00  0.00    -0.222 NA
ATOM     18  C   UNL d   1     -42.297-121.935 -55.171  0.00  0.00     0.120 A 
ATOM     19  C   UNL d   1     -42.249-122.142 -54.371  0.00  0.00     0.102 A 
ENDBRANCH  14  15
ENDBRANCH  13  14
ENDBRANCH  12  13
ENDBRANCH  11  12
ENDBRANCH   8  11
ENDBRANCH   1   8
BRANCH   4  20
ATOM     20  O   UNL d   1     -43.242-122.409 -50.681  0.00  0.00    -0.327 OA
ATOM     21  C   UNL d   1     -43.917-121.944 -50.610  0.00  0.00     0.181 C 
ENDBRANCH   4  20
BRANCH   3  22
ATOM     22  C   UNL d   1     -41.393-123.050 -48.018  0.00  0.00     0.000 C 
ATOM     23  C   UNL d   1     -41.123-123.817 -47.877  0.00  0.00     0.000 C 
ATOM     24  C   UNL d   1     -41.205-122.443 -47.495  0.00  0.00     0.000 C 
ENDBRANCH   3  22
TORSDOF 8
ENDMDL
