MODEL 1
REMARK VINA RESULT:      -3.7      0.000      0.000
REMARK  3 active torsions:
REMARK  status: ('A' for Active; 'I' for Inactive)
REMARK    1  A    between atoms: C_10  and  C_1 
REMARK    2  A    between atoms: C_8  and  N_5 
REMARK    3  A    between atoms: N_9  and  C_10 
ROOT
ATOM      1  C   UNL d   1      33.241  18.210 -23.376  0.00  0.00     0.084 C 
ENDROOT
BRANCH   1   2
ATOM      2  N   UNL d   1      33.179  18.954 -23.022  0.00  0.00    -0.300 N 
ATOM      3  C   UNL d   1      33.225  19.634 -23.482  0.00  0.00     0.100 A 
ATOM      4  C   UNL d   1      33.163  20.382 -23.129  0.00  0.00     0.101 A 
ATOM      5  N   UNL d   1      33.056  20.442 -22.314  0.00  0.00    -0.286 N 
ATOM      6  C   UNL d   1      33.009  19.755 -21.841  0.00  0.00     0.101 A 
ATOM      7  C   UNL d   1      33.073  19.002 -22.206  0.00  0.00     0.100 A 
BRANCH   5   8
ATOM      8  C   UNL d   1      32.993  21.174 -21.947  0.00  0.00     0.148 A 
ATOM      9  N   UNL d   1      33.240  21.856 -22.369  0.00  0.00    -0.227 NA
ATOM     10  C   UNL d   1      33.180  22.605 -22.003  0.00  0.00     0.101 A 
ATOM     11  C   UNL d   1      32.879  22.661 -21.237  0.00  0.00     0.021 A 
ATOM     12  C   UNL d   1      32.637  21.982 -20.827  0.00  0.00     0.005 A 
ATOM     13  C   UNL d   1      32.694  21.243 -21.183  0.00  0.00     0.037 A 
ENDBRANCH   5   8
ENDBRANCH   1   2
BRANCH   1  14
ATOM     14  C   UNL d   1      32.560  17.809 -23.626  0.00  0.00     0.059 A 
ATOM     15  C   UNL d   1      32.424  17.020 -23.374  0.00  0.00     0.214 A 
ATOM     16  C   UNL d   1      31.744  16.638 -23.632  0.00  0.00     0.121 A 
ATOM     17  O   UNL d   1      32.960  16.644 -22.881  0.00  0.00    -0.285 OA
ATOM     18  N   UNL d   1      31.607  15.864 -23.387  0.00  0.00    -0.241 NA
ATOM     19  C   UNL d   1      31.211  17.012 -24.123  0.00  0.00     0.032 A 
ATOM     20  C   UNL d   1      30.919  15.453 -23.638  0.00  0.00     0.099 A 
ATOM     21  C   UNL d   1      30.380  15.830 -24.134  0.00  0.00     0.021 A 
ATOM     22  C   UNL d   1      30.524  16.613 -24.379  0.00  0.00     0.004 A 
ATOM     23  C   UNL d   1      31.338  17.781 -24.373  0.00  0.00     0.059 A 
ATOM     24  C   UNL d   1      32.031  18.190 -24.117  0.00  0.00     0.016 A 
ATOM     25 CL   UNL d   1      30.796  18.161 -24.871  0.00  0.00    -0.082 Cl
ENDBRANCH   1  14
TORSDOF 3
ENDMDL
MODEL 2
REMARK VINA RESULT:      -1.8      1.677      5.091
REMARK  3 active torsions:
REMARK  status: ('A' for Active; 'I' for Inactive)
REMARK    1  A    between atoms: C_10  and  C_1 
REMARK    2  A    between atoms: C_8  and  N_5 
REMARK    3  A    between atoms: N_9  and  C_10 
ROOT
ATOM      1  C   UNL d   1      33.241  19.931 -21.999  0.00  0.00     0.084 C 
ENDROOT
BRANCH   1   2
ATOM      2  N   UNL d   1      32.904  19.386 -22.520  0.00  0.00    -0.300 N 
ATOM      3  C   UNL d   1      33.241  19.263 -23.261  0.00  0.00     0.100 A 
ATOM      4  C   UNL d   1      32.904  18.716 -23.786  0.00  0.00     0.101 A 
ATOM      5  N   UNL d   1      32.231  18.296 -23.564  0.00  0.00    -0.286 N 
ATOM      6  C   UNL d   1      31.885  18.417 -22.813  0.00  0.00     0.101 A 
ATOM      7  C   UNL d   1      32.231  18.971 -22.287  0.00  0.00     0.100 A 
BRANCH   5   8
ATOM      8  C   UNL d   1      31.885  17.751 -24.070  0.00  0.00     0.148 A 
ATOM      9  N   UNL d   1      32.320  17.065 -24.280  0.00  0.00    -0.227 NA
ATOM     10  C   UNL d   1      31.975  16.505 -24.795  0.00  0.00     0.101 A 
ATOM     11  C   UNL d   1      31.216  16.635 -25.089  0.00  0.00     0.021 A 
ATOM     12  C   UNL d   1      30.792  17.316 -24.877  0.00  0.00     0.005 A 
ATOM     13  C   UNL d   1      31.126  17.870 -24.370  0.00  0.00     0.037 A 
ENDBRANCH   5   8
ENDBRANCH   1   2
BRANCH   1  14
ATOM     14  C   UNL d   1      33.052  20.737 -22.056  0.00  0.00     0.059 A 
ATOM     15  C   UNL d   1      32.680  21.125 -21.412  0.00  0.00     0.214 A 
ATOM     16  C   UNL d   1      32.501  21.924 -21.487  0.00  0.00     0.121 A 
ATOM     17  O   UNL d   1      32.501  20.714 -20.727  0.00  0.00    -0.285 OA
ATOM     18  N   UNL d   1      32.136  22.309 -20.858  0.00  0.00    -0.241 NA
ATOM     19  C   UNL d   1      32.679  22.334 -22.170  0.00  0.00     0.032 A 
ATOM     20  C   UNL d   1      31.943  23.124 -20.911  0.00  0.00     0.099 A 
ATOM     21  C   UNL d   1      32.122  23.539 -21.600  0.00  0.00     0.021 A 
ATOM     22  C   UNL d   1      32.492  23.144 -22.234  0.00  0.00     0.004 A 
ATOM     23  C   UNL d   1      33.042  21.960 -22.801  0.00  0.00     0.059 A 
ATOM     24  C   UNL d   1      33.234  21.140 -22.742  0.00  0.00     0.016 A 
ATOM     25 CL   UNL d   1      33.223  22.376 -23.494  0.00  0.00    -0.082 Cl
ENDBRANCH   1  14
TORSDOF 3
ENDMDL
MODEL 3
REMARK VINA RESULT:      -1.0      1.438      2.128
REMARK  3 active torsions:
REMARK  status: ('A' for Active; 'I' for Inactive)
REMARK    1  A    between atoms: C_10  and  C_1 
REMARK    2  A    between atoms: C_8  and  N_5 
REMARK    3  A    between atoms: N_9  and  C_10 
ROOT
ATOM      1  C   UNL d   1      31.894  17.392 -24.304  0.00  0.00     0.084 C 
ENDROOT
BRANCH   1   2
ATOM      2  N   UNL d   1      32.121  18.061 -23.875  0.00  0.00    -0.300 N 
ATOM      3  C   UNL d   1      32.317  17.991 -23.079  0.00  0.00     0.100 A 
ATOM      4  C   UNL d   1      32.544  18.661 -22.646  0.00  0.00     0.101 A 
ATOM      5  N   UNL d   1      32.574  19.397 -23.015  0.00  0.00    -0.286 N 
ATOM      6  C   UNL d   1      32.376  19.474 -23.823  0.00  0.00     0.101 A 
ATOM      7  C   UNL d   1      32.147  18.791 -24.255  0.00  0.00     0.100 A 
BRANCH   5   8
ATOM      8  C   UNL d   1      32.797  20.070 -22.602  0.00  0.00     0.148 A 
ATOM      9  N   UNL d   1      32.806  20.042 -21.764  0.00  0.00    -0.227 NA
ATOM     10  C   UNL d   1      33.032  20.723 -21.335  0.00  0.00     0.101 A 
ATOM     11  C   UNL d   1      33.241  21.409 -21.741  0.00  0.00     0.021 A 
ATOM     12  C   UNL d   1      33.229  21.429 -22.571  0.00  0.00     0.005 A 
ATOM     13  C   UNL d   1      33.008  20.762 -22.997  0.00  0.00     0.037 A 
ENDBRANCH   5   8
ENDBRANCH   1   2
BRANCH   1  14
ATOM     14  C   UNL d   1      31.253  16.930 -24.052  0.00  0.00     0.059 A 
ATOM     15  C   UNL d   1      30.519  16.979 -24.456  0.00  0.00     0.214 A 
ATOM     16  C   UNL d   1      29.895  16.514 -24.192  0.00  0.00     0.121 A 
ATOM     17  O   UNL d   1      30.431  17.481 -25.097  0.00  0.00    -0.285 OA
ATOM     18  N   UNL d   1      29.174  16.559 -24.584  0.00  0.00    -0.241 NA
ATOM     19  C   UNL d   1      29.983  16.014 -23.553  0.00  0.00     0.032 A 
ATOM     20  C   UNL d   1      28.522  16.093 -24.333  0.00  0.00     0.099 A 
ATOM     21  C   UNL d   1      28.610  15.588 -23.688  0.00  0.00     0.021 A 
ATOM     22  C   UNL d   1      29.343  15.546 -23.294  0.00  0.00     0.004 A 
ATOM     23  C   UNL d   1      30.697  15.961 -23.155  0.00  0.00     0.059 A 
ATOM     24  C   UNL d   1      31.349  16.433 -23.412  0.00  0.00     0.016 A 
ATOM     25 CL   UNL d   1      30.786  15.454 -22.507  0.00  0.00    -0.082 Cl
ENDBRANCH   1  14
TORSDOF 3
ENDMDL
