MODEL 1
REMARK VINA RESULT:      -3.4      0.000      0.000
REMARK  5 active torsions:
REMARK  status: ('A' for Active; 'I' for Inactive)
REMARK    1  A    between atoms: N_8  and  C_6 
REMARK    2  A    between atoms: C_7  and  O_9 
REMARK    3  A    between atoms: C_10  and  C_7 
REMARK    4  A    between atoms: O_9  and  N_8 
REMARK    5  A    between atoms: O_20  and  C_15 
ROOT
ATOM      1  O   UNL d   1      33.239  20.359 -23.026  0.00  0.00    -0.169 OA
ENDROOT
BRANCH   1   2
ATOM      2  C   UNL d   1      33.033  19.188 -22.785  0.00  0.00     0.319 C 
ATOM      3  O   UNL d   1      33.234  18.988 -22.025  0.00  0.00    -0.257 OA
BRANCH   2   4
ATOM      4  C   UNL d   1      32.782  18.612 -23.123  0.00  0.00     0.065 A 
ATOM      5  C   UNL d   1      32.885  17.971 -22.847  0.00  0.00     0.007 A 
ATOM      6  C   UNL d   1      32.637  17.401 -23.182  0.00  0.00     0.024 A 
ATOM      7  C   UNL d   1      32.284  17.482 -23.795  0.00  0.00     0.094 A 
ATOM      8  C   UNL d   1      32.183  18.127 -24.066  0.00  0.00     0.024 A 
ATOM      9  C   UNL d   1      32.429  18.692 -23.735  0.00  0.00     0.007 A 
BRANCH   7  10
ATOM     10  O   UNL d   1      32.032  16.905 -24.133  0.00  0.00    -0.328 OA
ATOM     11  C   UNL d   1      31.187  16.495 -24.328  0.00  0.00     0.181 C 
ENDBRANCH   7  10
ENDBRANCH   2   4
ENDBRANCH   1   2
BRANCH   1  12
ATOM     12  N   UNL d   1      32.895  20.582 -21.790  0.00  0.00    -0.123 NA
BRANCH  12  13
ATOM     13  C   UNL d   1      32.823  21.313 -21.404  0.00  0.00     0.108 A 
ATOM     14  C   UNL d   1      33.054  21.374 -20.614  0.00  0.00     0.025 A 
ATOM     15  C   UNL d   1      32.988  22.100 -20.216  0.00  0.00     0.041 A 
ATOM     16  C   UNL d   1      32.685  22.771 -20.619  0.00  0.00     0.196 A 
ATOM     17  C   UNL d   1      33.218  22.174 -19.419  0.00  0.00     0.003 C 
ATOM     18  C   UNL d   1      32.456  22.697 -21.415  0.00  0.00     0.041 A 
ATOM     19  O   UNL d   1      32.616  23.500 -20.227  0.00  0.00    -0.287 OA
ATOM     20  C   UNL d   1      32.522  21.972 -21.814  0.00  0.00     0.025 A 
ATOM     21  C   UNL d   1      32.156  23.360 -21.816  0.00  0.00     0.003 C 
ENDBRANCH  12  13
ENDBRANCH   1  12
TORSDOF 5
ENDMDL
MODEL 2
REMARK VINA RESULT:      -2.8      1.107      5.263
REMARK  5 active torsions:
REMARK  status: ('A' for Active; 'I' for Inactive)
REMARK    1  A    between atoms: N_8  and  C_6 
REMARK    2  A    between atoms: C_7  and  O_9 
REMARK    3  A    between atoms: C_10  and  C_7 
REMARK    4  A    between atoms: O_9  and  N_8 
REMARK    5  A    between atoms: O_20  and  C_15 
ROOT
ATOM      1  O   UNL d   1      32.128  20.595 -21.541  0.00  0.00    -0.169 OA
ENDROOT
BRANCH   1   2
ATOM      2  C   UNL d   1      32.697  21.654 -21.381  0.00  0.00     0.319 C 
ATOM      3  O   UNL d   1      33.124  21.877 -22.034  0.00  0.00    -0.257 OA
BRANCH   2   4
ATOM      4  C   UNL d   1      32.768  22.147 -20.872  0.00  0.00     0.065 A 
ATOM      5  C   UNL d   1      33.052  21.971 -20.251  0.00  0.00     0.007 A 
ATOM      6  C   UNL d   1      33.122  22.460 -19.745  0.00  0.00     0.024 A 
ATOM      7  C   UNL d   1      32.905  23.126 -19.871  0.00  0.00     0.094 A 
ATOM      8  C   UNL d   1      32.621  23.297 -20.496  0.00  0.00     0.024 A 
ATOM      9  C   UNL d   1      32.551  22.813 -20.996  0.00  0.00     0.007 A 
BRANCH   7  10
ATOM     10  O   UNL d   1      32.976  23.620 -19.361  0.00  0.00    -0.328 OA
ATOM     11  C   UNL d   1      33.193  23.666 -18.427  0.00  0.00     0.181 C 
ENDBRANCH   7  10
ENDBRANCH   2   4
ENDBRANCH   1   2
BRANCH   1  12
ATOM     12  N   UNL d   1      33.086  20.307 -22.376  0.00  0.00    -0.123 NA
BRANCH  12  13
ATOM     13  C   UNL d   1      33.124  19.672 -22.910  0.00  0.00     0.108 A 
ATOM     14  C   UNL d   1      33.161  18.902 -22.615  0.00  0.00     0.025 A 
ATOM     15  C   UNL d   1      33.200  18.258 -23.137  0.00  0.00     0.041 A 
ATOM     16  C   UNL d   1      33.202  18.392 -23.965  0.00  0.00     0.196 A 
ATOM     17  C   UNL d   1      33.238  17.477 -22.851  0.00  0.00     0.003 C 
ATOM     18  C   UNL d   1      33.165  19.172 -24.251  0.00  0.00     0.041 A 
ATOM     19  O   UNL d   1      33.241  17.752 -24.494  0.00  0.00    -0.287 OA
ATOM     20  C   UNL d   1      33.126  19.817 -23.729  0.00  0.00     0.025 A 
ATOM     21  C   UNL d   1      33.167  19.307 -25.070  0.00  0.00     0.003 C 
ENDBRANCH  12  13
ENDBRANCH   1  12
TORSDOF 5
ENDMDL
MODEL 3
REMARK VINA RESULT:      -2.2      2.234      5.828
REMARK  5 active torsions:
REMARK  status: ('A' for Active; 'I' for Inactive)
REMARK    1  A    between atoms: N_8  and  C_6 
REMARK    2  A    between atoms: C_7  and  O_9 
REMARK    3  A    between atoms: C_10  and  C_7 
REMARK    4  A    between atoms: O_9  and  N_8 
REMARK    5  A    between atoms: O_20  and  C_15 
ROOT
ATOM      1  O   UNL d   1      31.470  17.044 -24.760  0.00  0.00    -0.169 OA
ENDROOT
BRANCH   1   2
ATOM      2  C   UNL d   1      32.266  17.283 -23.876  0.00  0.00     0.319 C 
ATOM      3  O   UNL d   1      32.633  16.613 -23.601  0.00  0.00    -0.257 OA
BRANCH   2   4
ATOM      4  C   UNL d   1      32.511  17.850 -23.521  0.00  0.00     0.065 A 
ATOM      5  C   UNL d   1      32.563  18.472 -23.848  0.00  0.00     0.007 A 
ATOM      6  C   UNL d   1      32.806  19.035 -23.496  0.00  0.00     0.024 A 
ATOM      7  C   UNL d   1      32.995  18.965 -22.814  0.00  0.00     0.094 A 
ATOM      8  C   UNL d   1      32.940  18.338 -22.490  0.00  0.00     0.024 A 
ATOM      9  C   UNL d   1      32.700  17.781 -22.839  0.00  0.00     0.007 A 
BRANCH   7  10
ATOM     10  O   UNL d   1      33.240  19.533 -22.458  0.00  0.00    -0.328 OA
ATOM     11  C   UNL d   1      32.979  20.092 -21.723  0.00  0.00     0.181 C 
ENDBRANCH   7  10
ENDBRANCH   2   4
ENDBRANCH   1   2
BRANCH   1  12
ATOM     12  N   UNL d   1      30.929  16.203 -23.924  0.00  0.00    -0.123 NA
BRANCH  12  13
ATOM     13  C   UNL d   1      30.125  16.016 -23.837  0.00  0.00     0.108 A 
ATOM     14  C   UNL d   1      29.810  15.947 -23.078  0.00  0.00     0.025 A 
ATOM     15  C   UNL d   1      29.007  15.760 -22.976  0.00  0.00     0.041 A 
ATOM     16  C   UNL d   1      28.518  15.641 -23.648  0.00  0.00     0.196 A 
ATOM     17  C   UNL d   1      28.677  15.688 -22.216  0.00  0.00     0.003 C 
ATOM     18  C   UNL d   1      28.848  15.712 -24.409  0.00  0.00     0.041 A 
ATOM     19  O   UNL d   1      27.714  15.453 -23.554  0.00  0.00    -0.287 OA
ATOM     20  C   UNL d   1      29.650  15.899 -24.511  0.00  0.00     0.025 A 
ATOM     21  C   UNL d   1      28.367  15.595 -25.074  0.00  0.00     0.003 C 
ENDBRANCH  12  13
ENDBRANCH   1  12
TORSDOF 5
ENDMDL
MODEL 4
REMARK VINA RESULT:      -1.8      2.660      5.584
REMARK  5 active torsions:
REMARK  status: ('A' for Active; 'I' for Inactive)
REMARK    1  A    between atoms: N_8  and  C_6 
REMARK    2  A    between atoms: C_7  and  O_9 
REMARK    3  A    between atoms: C_10  and  C_7 
REMARK    4  A    between atoms: O_9  and  N_8 
REMARK    5  A    between atoms: O_20  and  C_15 
ROOT
ATOM      1  O   UNL d   1      32.416  23.504 -20.801  0.00  0.00    -0.169 OA
ENDROOT
BRANCH   1   2
ATOM      2  C   UNL d   1      32.872  22.918 -19.841  0.00  0.00     0.319 C 
ATOM      3  O   UNL d   1      33.240  22.225 -20.048  0.00  0.00    -0.257 OA
BRANCH   2   4
ATOM      4  C   UNL d   1      32.913  23.007 -19.135  0.00  0.00     0.065 A 
ATOM      5  C   UNL d   1      33.177  22.492 -18.732  0.00  0.00     0.007 A 
ATOM      6  C   UNL d   1      33.217  22.579 -18.032  0.00  0.00     0.024 A 
ATOM      7  C   UNL d   1      32.989  23.188 -17.743  0.00  0.00     0.094 A 
ATOM      8  C   UNL d   1      32.725  23.701 -18.152  0.00  0.00     0.024 A 
ATOM      9  C   UNL d   1      32.685  23.615 -18.845  0.00  0.00     0.007 A 
BRANCH   7  10
ATOM     10  O   UNL d   1      33.029  23.277 -17.035  0.00  0.00    -0.328 OA
ATOM     11  C   UNL d   1      33.141  22.741 -16.247  0.00  0.00     0.181 C 
ENDBRANCH   7  10
ENDBRANCH   2   4
ENDBRANCH   1   2
BRANCH   1  12
ATOM     12  N   UNL d   1      33.169  22.724 -21.523  0.00  0.00    -0.123 NA
BRANCH  12  13
ATOM     13  C   UNL d   1      33.126  22.587 -22.340  0.00  0.00     0.108 A 
ATOM     14  C   UNL d   1      33.204  21.816 -22.622  0.00  0.00     0.025 A 
ATOM     15  C   UNL d   1      33.163  21.664 -23.437  0.00  0.00     0.041 A 
ATOM     16  C   UNL d   1      33.042  22.298 -23.974  0.00  0.00     0.196 A 
ATOM     17  C   UNL d   1      33.241  20.890 -23.734  0.00  0.00     0.003 C 
ATOM     18  C   UNL d   1      32.965  23.072 -23.678  0.00  0.00     0.041 A 
ATOM     19  O   UNL d   1      33.000  22.154 -24.791  0.00  0.00    -0.287 OA
ATOM     20  C   UNL d   1      33.006  23.224 -22.863  0.00  0.00     0.025 A 
ATOM     21  C   UNL d   1      32.846  23.700 -24.207  0.00  0.00     0.003 C 
ENDBRANCH  12  13
ENDBRANCH   1  12
TORSDOF 5
ENDMDL
MODEL 5
REMARK VINA RESULT:      -1.4      1.895      5.558
REMARK  5 active torsions:
REMARK  status: ('A' for Active; 'I' for Inactive)
REMARK    1  A    between atoms: N_8  and  C_6 
REMARK    2  A    between atoms: C_7  and  O_9 
REMARK    3  A    between atoms: C_10  and  C_7 
REMARK    4  A    between atoms: O_9  and  N_8 
REMARK    5  A    between atoms: O_20  and  C_15 
ROOT
ATOM      1  O   UNL d   1      31.769  18.065 -24.910  0.00  0.00    -0.169 OA
ENDROOT
BRANCH   1   2
ATOM      2  C   UNL d   1      32.605  18.394 -24.095  0.00  0.00     0.319 C 
ATOM      3  O   UNL d   1      33.176  17.827 -23.993  0.00  0.00    -0.257 OA
BRANCH   2   4
ATOM      4  C   UNL d   1      32.744  18.950 -23.671  0.00  0.00     0.065 A 
ATOM      5  C   UNL d   1      33.029  19.535 -23.943  0.00  0.00     0.007 A 
ATOM      6  C   UNL d   1      33.167  20.086 -23.523  0.00  0.00     0.024 A 
ATOM      7  C   UNL d   1      33.015  20.043 -22.829  0.00  0.00     0.094 A 
ATOM      8  C   UNL d   1      32.729  19.453 -22.562  0.00  0.00     0.024 A 
ATOM      9  C   UNL d   1      32.593  18.908 -22.977  0.00  0.00     0.007 A 
BRANCH   7  10
ATOM     10  O   UNL d   1      33.154  20.600 -22.404  0.00  0.00    -0.328 OA
ATOM     11  C   UNL d   1      33.172  21.558 -22.454  0.00  0.00     0.181 C 
ENDBRANCH   7  10
ENDBRANCH   2   4
ENDBRANCH   1   2
BRANCH   1  12
ATOM     12  N   UNL d   1      31.264  17.326 -23.964  0.00  0.00    -0.123 NA
BRANCH  12  13
ATOM     13  C   UNL d   1      30.520  16.960 -23.945  0.00  0.00     0.108 A 
ATOM     14  C   UNL d   1      29.962  17.154 -24.521  0.00  0.00     0.025 A 
ATOM     15  C   UNL d   1      29.214  16.795 -24.514  0.00  0.00     0.041 A 
ATOM     16  C   UNL d   1      29.026  16.235 -23.918  0.00  0.00     0.196 A 
ATOM     17  C   UNL d   1      28.643  16.983 -25.090  0.00  0.00     0.003 C 
ATOM     18  C   UNL d   1      29.595  16.047 -23.342  0.00  0.00     0.041 A 
ATOM     19  O   UNL d   1      28.278  15.872 -23.904  0.00  0.00    -0.287 OA
ATOM     20  C   UNL d   1      30.344  16.406 -23.349  0.00  0.00     0.025 A 
ATOM     21  C   UNL d   1      29.412  15.494 -22.752  0.00  0.00     0.003 C 
ENDBRANCH  12  13
ENDBRANCH   1  12
TORSDOF 5
ENDMDL
MODEL 6
REMARK VINA RESULT:      -1.2      1.956      5.827
REMARK  5 active torsions:
REMARK  status: ('A' for Active; 'I' for Inactive)
REMARK    1  A    between atoms: N_8  and  C_6 
REMARK    2  A    between atoms: C_7  and  O_9 
REMARK    3  A    between atoms: C_10  and  C_7 
REMARK    4  A    between atoms: O_9  and  N_8 
REMARK    5  A    between atoms: O_20  and  C_15 
ROOT
ATOM      1  O   UNL d   1      31.615  22.106 -19.953  0.00  0.00    -0.169 OA
ENDROOT
BRANCH   1   2
ATOM      2  C   UNL d   1      32.208  22.973 -19.344  0.00  0.00     0.319 C 
ATOM      3  O   UNL d   1      32.371  23.619 -19.807  0.00  0.00    -0.257 OA
BRANCH   2   4
ATOM      4  C   UNL d   1      32.461  23.082 -18.687  0.00  0.00     0.065 A 
ATOM      5  C   UNL d   1      32.990  22.685 -18.444  0.00  0.00     0.007 A 
ATOM      6  C   UNL d   1      33.241  22.794 -17.792  0.00  0.00     0.024 A 
ATOM      7  C   UNL d   1      32.953  23.304 -17.388  0.00  0.00     0.094 A 
ATOM      8  C   UNL d   1      32.421  23.699 -17.637  0.00  0.00     0.024 A 
ATOM      9  C   UNL d   1      32.174  23.592 -18.282  0.00  0.00     0.007 A 
BRANCH   7  10
ATOM     10  O   UNL d   1      33.205  23.414 -16.730  0.00  0.00    -0.328 OA
ATOM     11  C   UNL d   1      33.223  22.967 -15.880  0.00  0.00     0.181 C 
ENDBRANCH   7  10
ENDBRANCH   2   4
ENDBRANCH   1   2
BRANCH   1  12
ATOM     12  N   UNL d   1      32.723  21.937 -20.616  0.00  0.00    -0.123 NA
BRANCH  12  13
ATOM     13  C   UNL d   1      32.853  21.454 -21.278  0.00  0.00     0.108 A 
ATOM     14  C   UNL d   1      32.886  21.801 -22.026  0.00  0.00     0.025 A 
ATOM     15  C   UNL d   1      33.015  21.330 -22.698  0.00  0.00     0.041 A 
ATOM     16  C   UNL d   1      33.112  20.500 -22.613  0.00  0.00     0.196 A 
ATOM     17  C   UNL d   1      33.051  21.668 -23.458  0.00  0.00     0.003 C 
ATOM     18  C   UNL d   1      33.076  20.162 -21.854  0.00  0.00     0.041 A 
ATOM     19  O   UNL d   1      33.241  20.023 -23.281  0.00  0.00    -0.287 OA
ATOM     20  C   UNL d   1      32.947  20.633 -21.183  0.00  0.00     0.025 A 
ATOM     21  C   UNL d   1      33.171  19.342 -21.768  0.00  0.00     0.003 C 
ENDBRANCH  12  13
ENDBRANCH   1  12
TORSDOF 5
ENDMDL
