MODEL 1
REMARK VINA RESULT:      -4.9      0.000      0.000
REMARK  3 active torsions:
REMARK  status: ('A' for Active; 'I' for Inactive)
REMARK    1  A    between atoms: C_6  and  C_1 
REMARK    2  A    between atoms: C_7  and  C_3 
REMARK    3  A    between atoms: C_11  and  C_7 
ROOT
ATOM      1  C   UNL d   1     -41.526-122.522 -51.440  0.00  0.00     0.085 A 
ATOM      2  C   UNL d   1     -41.273-121.799 -51.736  0.00  0.00     0.137 A 
ATOM      3  C   UNL d   1     -41.372-122.644 -52.753  0.00  0.00     0.031 A 
ATOM      4  S   UNL d   1     -41.179-121.882 -52.552  0.00  0.00    -0.066 SA
ATOM      5  C   UNL d   1     -41.590-123.053 -52.068  0.00  0.00     0.013 A 
ATOM      6  N   UNL d   1     -41.143-121.121 -51.268  0.00  0.00    -0.141 N 
ATOM      7  C   UNL d   1     -41.818-123.815 -52.028  0.00  0.00     0.001 C 
ENDROOT
BRANCH   3   8
ATOM      8  C   UNL d   1     -41.382-123.037 -53.484  0.00  0.00     0.006 C 
BRANCH   8   9
ATOM      9  C   UNL d   1     -41.616-122.649 -54.170  0.00  0.00     0.001 A 
ATOM     10  C   UNL d   1     -41.123-122.640 -54.821  0.00  0.00     0.000 A 
ATOM     11  C   UNL d   1     -41.367-122.244 -55.516  0.00  0.00     0.000 A 
ATOM     12  C   UNL d   1     -42.095-121.875 -55.526  0.00  0.00     0.000 A 
ATOM     13  C   UNL d   1     -42.598-121.882 -54.866  0.00  0.00     0.000 A 
ATOM     14  C   UNL d   1     -42.352-122.266 -54.203  0.00  0.00     0.000 A 
ENDBRANCH   8   9
ENDBRANCH   3   8
BRANCH   1  15
ATOM     15  C   UNL d   1     -41.686-122.673 -50.633  0.00  0.00     0.299 C 
ATOM     16  O   UNL d   1     -41.178-123.113 -50.167  0.00  0.00    -0.264 OA
ATOM     17  N   UNL d   1     -42.401-122.350 -50.306  0.00  0.00    -0.102 N 
ENDBRANCH   1  15
TORSDOF 3
ENDMDL
MODEL 2
REMARK VINA RESULT:      -4.9      1.859      2.825
REMARK  3 active torsions:
REMARK  status: ('A' for Active; 'I' for Inactive)
REMARK    1  A    between atoms: C_6  and  C_1 
REMARK    2  A    between atoms: C_7  and  C_3 
REMARK    3  A    between atoms: C_11  and  C_7 
ROOT
ATOM      1  C   UNL d   1     -42.536-122.988 -49.147  0.00  0.00     0.085 A 
ATOM      2  C   UNL d   1     -43.032-122.756 -49.759  0.00  0.00     0.137 A 
ATOM      3  C   UNL d   1     -41.812-122.902 -50.256  0.00  0.00     0.031 A 
ATOM      4  S   UNL d   1     -42.576-122.705 -50.445  0.00  0.00    -0.066 SA
ATOM      5  C   UNL d   1     -41.774-123.080 -49.450  0.00  0.00     0.013 A 
ATOM      6  N   UNL d   1     -43.848-122.607 -49.670  0.00  0.00    -0.141 N 
ATOM      7  C   UNL d   1     -41.123-123.300 -49.047  0.00  0.00     0.001 C 
ENDROOT
BRANCH   3   8
ATOM      8  C   UNL d   1     -41.123-122.946 -50.717  0.00  0.00     0.006 C 
BRANCH   8   9
ATOM      9  C   UNL d   1     -41.163-122.969 -51.538  0.00  0.00     0.001 A 
ATOM     10  C   UNL d   1     -41.243-122.275 -51.960  0.00  0.00     0.000 A 
ATOM     11  C   UNL d   1     -41.284-122.304 -52.796  0.00  0.00     0.000 A 
ATOM     12  C   UNL d   1     -41.243-123.028 -53.168  0.00  0.00     0.000 A 
ATOM     13  C   UNL d   1     -41.162-123.735 -52.741  0.00  0.00     0.000 A 
ATOM     14  C   UNL d   1     -41.123-123.695 -51.939  0.00  0.00     0.000 A 
ENDBRANCH   8   9
ENDBRANCH   3   8
BRANCH   1  15
ATOM     15  C   UNL d   1     -42.783-123.104 -48.356  0.00  0.00     0.299 C 
ATOM     16  O   UNL d   1     -42.623-122.558 -47.769  0.00  0.00    -0.264 OA
ATOM     17  N   UNL d   1     -43.211-123.816 -48.177  0.00  0.00    -0.102 N 
ENDBRANCH   1  15
TORSDOF 3
ENDMDL
MODEL 3
REMARK VINA RESULT:      -4.7      1.970      3.720
REMARK  3 active torsions:
REMARK  status: ('A' for Active; 'I' for Inactive)
REMARK    1  A    between atoms: C_6  and  C_1 
REMARK    2  A    between atoms: C_7  and  C_3 
REMARK    3  A    between atoms: C_11  and  C_7 
ROOT
ATOM      1  C   UNL d   1     -41.509-122.409 -53.615  0.00  0.00     0.085 A 
ATOM      2  C   UNL d   1     -41.344-123.192 -53.430  0.00  0.00     0.137 A 
ATOM      3  C   UNL d   1     -41.261-122.482 -52.313  0.00  0.00     0.031 A 
ATOM      4  S   UNL d   1     -41.191-123.230 -52.620  0.00  0.00    -0.066 SA
ATOM      5  C   UNL d   1     -41.459-121.961 -52.924  0.00  0.00     0.013 A 
ATOM      6  N   UNL d   1     -41.340-123.814 -53.986  0.00  0.00    -0.141 N 
ATOM      7  C   UNL d   1     -41.577-121.177 -52.853  0.00  0.00     0.001 C 
ENDROOT
BRANCH   3   8
ATOM      8  C   UNL d   1     -41.170-122.191 -51.542  0.00  0.00     0.006 C 
BRANCH   8   9
ATOM      9  C   UNL d   1     -41.487-122.592 -50.898  0.00  0.00     0.001 A 
ATOM     10  C   UNL d   1     -41.124-123.269 -50.621  0.00  0.00     0.000 A 
ATOM     11  C   UNL d   1     -41.451-123.673 -49.966  0.00  0.00     0.000 A 
ATOM     12  C   UNL d   1     -42.128-123.379 -49.618  0.00  0.00     0.000 A 
ATOM     13  C   UNL d   1     -42.499-122.692 -49.896  0.00  0.00     0.000 A 
ATOM     14  C   UNL d   1     -42.175-122.312 -50.527  0.00  0.00     0.000 A 
ENDBRANCH   8   9
ENDBRANCH   3   8
BRANCH   1  15
ATOM     15  C   UNL d   1     -41.694-122.134 -54.383  0.00  0.00     0.299 C 
ATOM     16  O   UNL d   1     -41.124-121.821 -54.879  0.00  0.00    -0.264 OA
ATOM     17  N   UNL d   1     -42.503-122.188 -54.638  0.00  0.00    -0.102 N 
ENDBRANCH   1  15
TORSDOF 3
ENDMDL
