MODEL 1
REMARK VINA RESULT:      -7.1      0.000      0.000
REMARK  3 active torsions:
REMARK  status: ('A' for Active; 'I' for Inactive)
REMARK    1  A    between atoms: C_9  and  N_1 
REMARK    2  A    between atoms: C_2  and  C_9 
REMARK    3  A    between atoms: S_13  and  C_5 
ROOT
ATOM      1  N   UNL d   1     -48.240  12.399  22.853  0.00  0.00    -0.265 N 
ATOM      2  C   UNL d   1     -48.298  11.736  23.345  0.00  0.00     0.296 A 
ATOM      3  S   UNL d   1     -47.540  11.558  23.611  0.00  0.00    -0.025 SA
ATOM      4  C   UNL d   1     -47.457  12.633  22.812  0.00  0.00     0.074 A 
ATOM      5  C   UNL d   1     -47.017  12.117  23.279  0.00  0.00     0.050 A 
ATOM      6  O   UNL d   1     -48.989  11.330  23.532  0.00  0.00    -0.259 OA
ATOM      7  C   UNL d   1     -47.076  13.251  22.411  0.00  0.00     0.018 A 
ATOM      8  C   UNL d   1     -46.198  12.214  23.348  0.00  0.00     0.008 A 
ATOM      9  C   UNL d   1     -46.257  13.351  22.477  0.00  0.00     0.002 A 
ATOM     10  C   UNL d   1     -45.824  12.824  22.951  0.00  0.00     0.001 A 
ENDROOT
BRANCH   1  11
ATOM     11  C   UNL d   1     -48.868  12.769  22.464  0.00  0.00     0.123 C 
BRANCH  11  12
ATOM     12  C   UNL d   1     -49.313  13.338  22.846  0.00  0.00     0.189 A 
ATOM     13  N   UNL d   1     -49.850  13.789  22.423  0.00  0.00    -0.265 N 
ATOM     14  C   UNL d   1     -50.212  14.310  22.947  0.00  0.00     0.197 A 
ATOM     15  C   UNL d   1     -50.011  13.742  21.615  0.00  0.00     0.103 C 
ATOM     16  N   UNL d   1     -49.897  14.180  23.696  0.00  0.00    -0.122 NA
ATOM     17  N   UNL d   1     -49.340  13.577  23.630  0.00  0.00    -0.126 NA
BRANCH  14  18
ATOM     18  S   UNL d   1     -50.790  14.867  22.759  0.00  0.00    -0.074 SA
ATOM     19  C   UNL d   1     -51.064  15.398  23.329  0.00  0.00     0.077 C 
ENDBRANCH  14  18
ENDBRANCH  11  12
ENDBRANCH   1  11
TORSDOF 3
ENDMDL
MODEL 2
REMARK VINA RESULT:      -6.5      1.502      3.821
REMARK  3 active torsions:
REMARK  status: ('A' for Active; 'I' for Inactive)
REMARK    1  A    between atoms: C_9  and  N_1 
REMARK    2  A    between atoms: C_2  and  C_9 
REMARK    3  A    between atoms: S_13  and  C_5 
ROOT
ATOM      1  N   UNL d   1     -49.325  13.932  22.963  0.00  0.00    -0.265 N 
ATOM      2  C   UNL d   1     -49.570  14.698  23.162  0.00  0.00     0.296 A 
ATOM      3  S   UNL d   1     -50.252  14.860  22.730  0.00  0.00    -0.025 SA
ATOM      4  C   UNL d   1     -49.847  13.620  22.416  0.00  0.00     0.074 A 
ATOM      5  C   UNL d   1     -50.423  14.188  22.266  0.00  0.00     0.050 A 
ATOM      6  O   UNL d   1     -49.197  15.203  23.694  0.00  0.00    -0.259 OA
ATOM      7  C   UNL d   1     -49.880  12.888  22.026  0.00  0.00     0.018 A 
ATOM      8  C   UNL d   1     -51.034  14.031  21.730  0.00  0.00     0.008 A 
ATOM      9  C   UNL d   1     -50.488  12.727  21.489  0.00  0.00     0.002 A 
ATOM     10  C   UNL d   1     -51.064  13.309  21.346  0.00  0.00     0.001 A 
ENDROOT
BRANCH   1  11
ATOM     11  C   UNL d   1     -48.663  13.542  23.266  0.00  0.00     0.123 C 
BRANCH  11  12
ATOM     12  C   UNL d   1     -47.919  13.700  22.968  0.00  0.00     0.189 A 
ATOM     13  N   UNL d   1     -47.296  13.193  23.133  0.00  0.00    -0.265 N 
ATOM     14  C   UNL d   1     -46.623  13.490  22.764  0.00  0.00     0.197 A 
ATOM     15  C   UNL d   1     -47.323  12.505  23.587  0.00  0.00     0.103 C 
ATOM     16  N   UNL d   1     -46.831  14.181  22.370  0.00  0.00    -0.122 NA
ATOM     17  N   UNL d   1     -47.634  14.309  22.499  0.00  0.00    -0.126 NA
BRANCH  14  18
ATOM     18  S   UNL d   1     -45.870  13.155  22.783  0.00  0.00    -0.074 SA
ATOM     19  C   UNL d   1     -45.310  13.346  22.206  0.00  0.00     0.077 C 
ENDBRANCH  14  18
ENDBRANCH  11  12
ENDBRANCH   1  11
TORSDOF 3
ENDMDL
MODEL 3
REMARK VINA RESULT:      -6.1      1.144      3.744
REMARK  3 active torsions:
REMARK  status: ('A' for Active; 'I' for Inactive)
REMARK    1  A    between atoms: C_9  and  N_1 
REMARK    2  A    between atoms: C_2  and  C_9 
REMARK    3  A    between atoms: S_13  and  C_5 
ROOT
ATOM      1  N   UNL d   1     -49.148  13.967  22.249  0.00  0.00    -0.265 N 
ATOM      2  C   UNL d   1     -49.650  13.601  21.701  0.00  0.00     0.296 A 
ATOM      3  S   UNL d   1     -50.401  13.923  21.802  0.00  0.00    -0.025 SA
ATOM      4  C   UNL d   1     -49.579  14.509  22.684  0.00  0.00     0.074 A 
ATOM      5  C   UNL d   1     -50.356  14.488  22.414  0.00  0.00     0.050 A 
ATOM      6  O   UNL d   1     -49.435  13.022  21.158  0.00  0.00    -0.259 OA
ATOM      7  C   UNL d   1     -49.372  15.028  23.299  0.00  0.00     0.018 A 
ATOM      8  C   UNL d   1     -50.929  14.980  22.751  0.00  0.00     0.008 A 
ATOM      9  C   UNL d   1     -49.941  15.522  23.639  0.00  0.00     0.002 A 
ATOM     10  C   UNL d   1     -50.722  15.491  23.357  0.00  0.00     0.001 A 
ENDROOT
BRANCH   1  11
ATOM     11  C   UNL d   1     -48.342  13.814  22.344  0.00  0.00     0.123 C 
BRANCH  11  12
ATOM     12  C   UNL d   1     -48.093  13.147  22.745  0.00  0.00     0.189 A 
ATOM     13  N   UNL d   1     -47.292  12.993  22.825  0.00  0.00    -0.265 N 
ATOM     14  C   UNL d   1     -47.210  12.292  23.249  0.00  0.00     0.197 A 
ATOM     15  C   UNL d   1     -46.667  13.449  22.537  0.00  0.00     0.103 C 
ATOM     16  N   UNL d   1     -47.962  12.014  23.431  0.00  0.00    -0.122 NA
ATOM     17  N   UNL d   1     -48.506  12.545  23.117  0.00  0.00    -0.126 NA
BRANCH  14  18
ATOM     18  S   UNL d   1     -46.499  11.930  23.457  0.00  0.00    -0.074 SA
ATOM     19  C   UNL d   1     -46.484  11.140  23.698  0.00  0.00     0.077 C 
ENDBRANCH  14  18
ENDBRANCH  11  12
ENDBRANCH   1  11
TORSDOF 3
ENDMDL
MODEL 4
REMARK VINA RESULT:      -5.7      1.594      2.085
REMARK  3 active torsions:
REMARK  status: ('A' for Active; 'I' for Inactive)
REMARK    1  A    between atoms: C_9  and  N_1 
REMARK    2  A    between atoms: C_2  and  C_9 
REMARK    3  A    between atoms: S_13  and  C_5 
ROOT
ATOM      1  N   UNL d   1     -47.210  13.634  22.936  0.00  0.00    -0.265 N 
ATOM      2  C   UNL d   1     -46.756  14.289  22.707  0.00  0.00     0.296 A 
ATOM      3  S   UNL d   1     -45.972  14.043  22.663  0.00  0.00    -0.025 SA
ATOM      4  C   UNL d   1     -46.715  12.990  23.034  0.00  0.00     0.074 A 
ATOM      5  C   UNL d   1     -45.948  13.234  22.868  0.00  0.00     0.050 A 
ATOM      6  O   UNL d   1     -47.041  15.045  22.551  0.00  0.00    -0.259 OA
ATOM      7  C   UNL d   1     -46.857  12.202  23.256  0.00  0.00     0.018 A 
ATOM      8  C   UNL d   1     -45.319  12.698  22.919  0.00  0.00     0.008 A 
ATOM      9  C   UNL d   1     -46.232  11.663  23.309  0.00  0.00     0.002 A 
ATOM     10  C   UNL d   1     -45.461  11.922  23.138  0.00  0.00     0.001 A 
ENDROOT
BRANCH   1  11
ATOM     11  C   UNL d   1     -48.028  13.628  23.049  0.00  0.00     0.123 C 
BRANCH  11  12
ATOM     12  C   UNL d   1     -48.532  13.549  22.411  0.00  0.00     0.189 A 
ATOM     13  N   UNL d   1     -49.342  13.610  22.520  0.00  0.00    -0.265 N 
ATOM     14  C   UNL d   1     -49.704  13.508  21.788  0.00  0.00     0.197 A 
ATOM     15  C   UNL d   1     -49.738  13.749  23.230  0.00  0.00     0.103 C 
ATOM     16  N   UNL d   1     -49.116  13.383  21.227  0.00  0.00    -0.122 NA
ATOM     17  N   UNL d   1     -48.391  13.409  21.616  0.00  0.00    -0.126 NA
BRANCH  14  18
ATOM     18  S   UNL d   1     -50.515  13.526  21.640  0.00  0.00    -0.074 SA
ATOM     19  C   UNL d   1     -50.804  13.794  20.914  0.00  0.00     0.077 C 
ENDBRANCH  14  18
ENDBRANCH  11  12
ENDBRANCH   1  11
TORSDOF 3
ENDMDL
MODEL 5
REMARK VINA RESULT:      -4.8      9.601     10.419
REMARK  3 active torsions:
REMARK  status: ('A' for Active; 'I' for Inactive)
REMARK    1  A    between atoms: C_9  and  N_1 
REMARK    2  A    between atoms: C_2  and  C_9 
REMARK    3  A    between atoms: S_13  and  C_5 
ROOT
ATOM      1  N   UNL d   1     -39.638  14.652  18.499  0.00  0.00    -0.265 N 
ATOM      2  C   UNL d   1     -40.405  14.421  18.289  0.00  0.00     0.296 A 
ATOM      3  S   UNL d   1     -40.550  14.704  17.530  0.00  0.00    -0.025 SA
ATOM      4  C   UNL d   1     -39.308  15.073  17.879  0.00  0.00     0.074 A 
ATOM      5  C   UNL d   1     -39.866  15.110  17.276  0.00  0.00     0.050 A 
ATOM      6  O   UNL d   1     -40.925  13.988  18.757  0.00  0.00    -0.259 OA
ATOM      7  C   UNL d   1     -38.568  15.434  17.777  0.00  0.00     0.018 A 
ATOM      8  C   UNL d   1     -39.692  15.504  16.569  0.00  0.00     0.008 A 
ATOM      9  C   UNL d   1     -38.389  15.830  17.073  0.00  0.00     0.002 A 
ATOM     10  C   UNL d   1     -38.961  15.860  16.471  0.00  0.00     0.001 A 
ENDROOT
BRANCH   1  11
ATOM     11  C   UNL d   1     -39.261  14.487  19.215  0.00  0.00     0.123 C 
BRANCH  11  12
ATOM     12  C   UNL d   1     -39.407  14.948  19.874  0.00  0.00     0.189 A 
ATOM     13  N   UNL d   1     -39.010  14.797  20.574  0.00  0.00    -0.265 N 
ATOM     14  C   UNL d   1     -39.267  15.343  21.134  0.00  0.00     0.197 A 
ATOM     15  C   UNL d   1     -38.451  14.206  20.711  0.00  0.00     0.103 C 
ATOM     16  N   UNL d   1     -39.823  15.833  20.777  0.00  0.00    -0.122 NA
ATOM     17  N   UNL d   1     -39.907  15.586  19.997  0.00  0.00    -0.126 NA
BRANCH  14  18
ATOM     18  S   UNL d   1     -39.013  15.394  21.917  0.00  0.00    -0.074 SA
ATOM     19  C   UNL d   1     -39.371  15.921  22.442  0.00  0.00     0.077 C 
ENDBRANCH  14  18
ENDBRANCH  11  12
ENDBRANCH   1  11
TORSDOF 3
ENDMDL
MODEL 6
REMARK VINA RESULT:      -4.6      9.733     10.156
REMARK  3 active torsions:
REMARK  status: ('A' for Active; 'I' for Inactive)
REMARK    1  A    between atoms: C_9  and  N_1 
REMARK    2  A    between atoms: C_2  and  C_9 
REMARK    3  A    between atoms: S_13  and  C_5 
ROOT
ATOM      1  N   UNL d   1     -38.812  14.697  19.949  0.00  0.00    -0.265 N 
ATOM      2  C   UNL d   1     -38.552  13.918  20.060  0.00  0.00     0.296 A 
ATOM      3  S   UNL d   1     -38.600  13.755  20.865  0.00  0.00    -0.025 SA
ATOM      4  C   UNL d   1     -39.019  15.014  20.674  0.00  0.00     0.074 A 
ATOM      5  C   UNL d   1     -38.891  14.438  21.246  0.00  0.00     0.050 A 
ATOM      6  O   UNL d   1     -38.293  13.405  19.471  0.00  0.00    -0.259 OA
ATOM      7  C   UNL d   1     -39.312  15.758  20.898  0.00  0.00     0.018 A 
ATOM      8  C   UNL d   1     -39.052  14.597  22.042  0.00  0.00     0.008 A 
ATOM      9  C   UNL d   1     -39.474  15.922  21.692  0.00  0.00     0.002 A 
ATOM     10  C   UNL d   1     -39.340  15.331  22.261  0.00  0.00     0.001 A 
ENDROOT
BRANCH   1  11
ATOM     11  C   UNL d   1     -38.857  15.093  19.225  0.00  0.00     0.123 C 
BRANCH  11  12
ATOM     12  C   UNL d   1     -39.501  14.986  18.735  0.00  0.00     0.189 A 
ATOM     13  N   UNL d   1     -39.546  15.390  18.024  0.00  0.00    -0.265 N 
ATOM     14  C   UNL d   1     -40.248  15.174  17.652  0.00  0.00     0.197 A 
ATOM     15  C   UNL d   1     -38.993  15.922  17.719  0.00  0.00     0.103 C 
ATOM     16  N   UNL d   1     -40.638  14.635  18.137  0.00  0.00    -0.122 NA
ATOM     17  N   UNL d   1     -40.173  14.521  18.806  0.00  0.00    -0.126 NA
BRANCH  14  18
ATOM     18  S   UNL d   1     -40.517  15.448  16.923  0.00  0.00    -0.074 SA
ATOM     19  C   UNL d   1     -41.324  15.456  16.749  0.00  0.00     0.077 C 
ENDBRANCH  14  18
ENDBRANCH  11  12
ENDBRANCH   1  11
TORSDOF 3
ENDMDL
