MODEL 1
REMARK VINA RESULT:      32.0      0.000      0.000
REMARK  4 active torsions:
REMARK  status: ('A' for Active; 'I' for Inactive)
REMARK    1  A    between atoms: C_3  and  C_1 
REMARK    2  A    between atoms: C_11  and  N_2 
REMARK    3  A    between atoms: C_12  and  C_11 
REMARK       I    between atoms: N_13  and  C_12 
REMARK    4  A    between atoms: C_16  and  N_13 
ROOT
ATOM      1  C   UNL d   1      14.077  12.355  -2.093  0.00  0.00     0.171 A 
ATOM      2  N   UNL d   1      13.987  13.088  -2.470  0.00  0.00    -0.284 N 
ATOM      3  N   UNL d   1      13.729  11.779  -2.577  0.00  0.00    -0.225 NA
ATOM      4  C   UNL d   1      13.587  12.961  -3.177  0.00  0.00     0.083 A 
ATOM      5  C   UNL d   1      13.428  12.155  -3.243  0.00  0.00     0.099 A 
ATOM      6  C   UNL d   1      13.339  13.492  -3.791  0.00  0.00     0.019 A 
ATOM      7  C   UNL d   1      13.018  11.865  -3.924  0.00  0.00     0.021 A 
ATOM      8  C   UNL d   1      12.948  13.190  -4.432  0.00  0.00     0.002 A 
ATOM      9  C   UNL d   1      12.789  12.383  -4.498  0.00  0.00     0.002 A 
ENDROOT
BRANCH   2  10
ATOM     10  C   UNL d   1      14.255  13.810  -2.177  0.00  0.00     0.145 C 
BRANCH  10  11
ATOM     11  C   UNL d   1      14.353  14.436  -2.692  0.00  0.00     0.297 C 
ATOM     12  N   UNL d   1      14.619  15.167  -2.410  0.00  0.00    -0.207 NA
ATOM     13  O   UNL d   1      14.188  14.354  -3.503  0.00  0.00    -0.264 OA
BRANCH  12  14
ATOM     14  C   UNL d   1      14.841  15.497  -1.692  0.00  0.00     0.085 A 
ATOM     15  C   UNL d   1      15.175  16.247  -1.576  0.00  0.00     0.019 A 
ATOM     16  C   UNL d   1      15.307  16.345  -0.773  0.00  0.00     0.002 A 
ATOM     17  C   UNL d   1      15.062  15.668  -0.375  0.00  0.00     0.002 A 
ATOM     18  C   UNL d   1      14.779  15.154  -0.941  0.00  0.00     0.019 A 
ENDBRANCH  12  14
ENDBRANCH  10  11
ENDBRANCH   2  10
BRANCH   1  19
ATOM     19  C   UNL d   1      14.450  12.221  -1.361  0.00  0.00     0.184 A 
ATOM     20  C   UNL d   1      14.081  11.959  -0.671  0.00  0.00     0.235 A 
ATOM     21  N   UNL d   1      14.658  11.903  -0.079  0.00  0.00    -0.081 NA
ATOM     22  N   UNL d   1      13.281  11.782  -0.582  0.00  0.00    -0.123 N 
ATOM     23  O   UNL d   1      15.381  12.131  -0.405  0.00  0.00    -0.104 OA
ATOM     24  N   UNL d   1      15.253  12.329  -1.201  0.00  0.00    -0.097 NA
ENDBRANCH   1  19
TORSDOF 4
ENDMDL
