MODEL 1
REMARK VINA RESULT:      44.3      0.000      0.000
REMARK  5 active torsions:
REMARK  status: ('A' for Active; 'I' for Inactive)
REMARK    1  A    between atoms: C_7  and  C_1 
REMARK    2  A    between atoms: C_8  and  C_2 
REMARK    3  A    between atoms: O_22  and  C_8 
REMARK    4  A    between atoms: C_24  and  C_14 
REMARK    5  A    between atoms: C_27  and  O_22 
ROOT
ATOM      1  C   UNL d   1      45.959 -16.627  43.606  0.00  0.00     0.067 A 
ATOM      2  C   UNL d   1      45.836 -16.489  42.801  0.00  0.00     0.166 A 
ATOM      3  C   UNL d   1      45.914 -15.996  44.143  0.00  0.00     0.200 A 
ATOM      4  C   UNL d   1      45.749 -15.235  43.875  0.00  0.00     0.062 A 
ATOM      5  O   UNL d   1      45.669 -15.722  42.534  0.00  0.00    -0.301 OA
ATOM      6  C   UNL d   1      45.626 -15.098  43.071  0.00  0.00     0.106 A 
ATOM      7  C   UNL d   1      45.705 -14.612  44.411  0.00  0.00     0.008 A 
ATOM      8  C   UNL d   1      45.461 -14.338  42.802  0.00  0.00     0.067 A 
ATOM      9  C   UNL d   1      45.417 -13.714  43.339  0.00  0.00     0.198 A 
ATOM     10  C   UNL d   1      45.540 -13.851  44.143  0.00  0.00     0.039 A 
ATOM     11  O   UNL d   1      46.037 -16.134  44.947  0.00  0.00    -0.286 OA
ATOM     12  O   UNL d   1      45.250 -12.941  43.073  0.00  0.00    -0.286 OA
ENDROOT
BRANCH   1  13
ATOM     13  C   UNL d   1      46.124 -17.388  43.873  0.00  0.00     0.007 A 
ATOM     14  C   UNL d   1      46.145 -18.019  43.340  0.00  0.00     0.027 A 
ATOM     15  C   UNL d   1      46.311 -18.780  43.607  0.00  0.00     0.123 A 
ATOM     16  O   UNL d   1      46.330 -19.407  43.071  0.00  0.00    -0.301 OA
ATOM     17  C   UNL d   1      46.456 -18.913  44.408  0.00  0.00     0.123 A 
ATOM     18  C   UNL d   1      46.500 -20.181  43.349  0.00  0.00     0.149 A 
ATOM     19  C   UNL d   1      46.646 -20.323  44.148  0.00  0.00     0.149 A 
ATOM     20  O   UNL d   1      46.625 -19.687  44.682  0.00  0.00    -0.301 OA
ATOM     21  C   UNL d   1      46.435 -18.282  44.943  0.00  0.00     0.027 A 
ATOM     22  C   UNL d   1      46.269 -17.521  44.674  0.00  0.00     0.002 A 
ENDBRANCH   1  13
BRANCH   2  23
ATOM     23  C   UNL d   1      45.880 -17.117  42.264  0.00  0.00     0.323 C 
ATOM     24  O   UNL d   1      45.204 -17.555  42.086  0.00  0.00    -0.257 OA
BRANCH  23  25
ATOM     25  O   UNL d   1      46.599 -17.304  41.907  0.00  0.00    -0.270 OA
BRANCH  25  26
ATOM     26  C   UNL d   1      46.608 -17.618  41.146  0.00  0.00     0.126 C 
ATOM     27  C   UNL d   1      46.533 -18.432  41.038  0.00  0.00     0.029 C 
ENDBRANCH  25  26
ENDBRANCH  23  25
ENDBRANCH   2  23
BRANCH  10  28
ATOM     28  C   UNL d   1      45.496 -13.224  44.680  0.00  0.00     0.003 C 
ATOM     29  C   UNL d   1      46.031 -12.597  44.635  0.00  0.00     0.000 C 
ENDBRANCH  10  28
TORSDOF 5
ENDMDL
