MODEL 1
REMARK VINA RESULT:      35.4      0.000      0.000
REMARK  3 active torsions:
REMARK  status: ('A' for Active; 'I' for Inactive)
REMARK    1  A    between atoms: C_16  and  C_4 
REMARK    2  A    between atoms: C_10  and  O_14 
REMARK    3  A    between atoms: O_14  and  C_16 
ROOT
ATOM      1  C   UNL d   1      15.022  13.091  -0.682  0.00  0.00     0.030 A 
ATOM      2  C   UNL d   1      14.406  13.095  -1.208  0.00  0.00     0.105 A 
ATOM      3  C   UNL d   1      14.281  12.432  -1.685  0.00  0.00     0.118 A 
ATOM      4  N   UNL d   1      13.903  13.739  -1.278  0.00  0.00    -0.242 NA
ATOM      5  C   UNL d   1      15.522  12.450  -0.612  0.00  0.00     0.059 A 
ATOM      6  C   UNL d   1      14.767  11.780  -1.633  0.00  0.00     0.027 A 
ATOM      7  C   UNL d   1      15.397  11.783  -1.092  0.00  0.00     0.013 A 
ATOM      8 CL   UNL d   1      16.151  12.455  -0.072  0.00  0.00    -0.082 Cl
ATOM      9  C   UNL d   1      15.150  13.750  -0.205  0.00  0.00     0.004 A 
ATOM     10  C   UNL d   1      14.028  14.406  -0.798  0.00  0.00     0.099 A 
ATOM     11  C   UNL d   1      14.657  14.410  -0.258  0.00  0.00     0.021 A 
ENDROOT
BRANCH   3  12
ATOM     12  O   UNL d   1      13.653  12.427  -2.226  0.00  0.00    -0.302 OA
BRANCH  12  13
ATOM     13  C   UNL d   1      13.022  12.432  -2.766  0.00  0.00     0.144 C 
BRANCH  13  14
ATOM     14  C   UNL d   1      13.176  12.406  -3.581  0.00  0.00     0.142 A 
ATOM     15  N   UNL d   1      13.741  12.823  -3.968  0.00  0.00    -0.057 NA
ATOM     16  C   UNL d   1      13.701  12.634  -4.751  0.00  0.00     0.735 A 
ATOM     17  N   UNL d   1      13.085  12.079  -4.843  0.00  0.00    -0.136 N 
ATOM     18  N   UNL d   1      14.130  12.878  -5.414  0.00  0.00    -0.059 NA
ATOM     19  C   UNL d   1      12.770  11.946  -4.122  0.00  0.00     0.120 A 
ATOM     20  C   UNL d   1      12.913  11.782  -5.590  0.00  0.00     0.100 A 
ATOM     21  C   UNL d   1      13.339  12.026  -6.244  0.00  0.00     0.041 A 
ATOM     22  C   UNL d   1      13.956  12.582  -6.155  0.00  0.00     0.119 A 
ENDBRANCH  13  14
ENDBRANCH  12  13
ENDBRANCH   3  12
TORSDOF 3
ENDMDL
