MODEL 1
REMARK VINA RESULT:      -6.6      0.000      0.000
REMARK  3 active torsions:
REMARK  status: ('A' for Active; 'I' for Inactive)
REMARK    1  A    between atoms: N_2  and  C_1 
REMARK    2  A    between atoms: C_3  and  C_1 
REMARK    3  A    between atoms: N_6  and  C_5 
ROOT
ATOM      1  C   UNL d   1     -48.071  12.288  23.070  0.00  0.00     0.027 A 
ATOM      2  C   UNL d   1     -49.678  12.451  22.712  0.00  0.00     0.064 A 
ATOM      3  C   UNL d   1     -48.570  12.722  23.573  0.00  0.00     0.004 A 
ATOM      4  C   UNL d   1     -48.381  11.933  22.383  0.00  0.00     0.004 A 
ATOM      5  C   UNL d   1     -49.370  12.802  23.392  0.00  0.00     0.018 A 
ATOM      6  C   UNL d   1     -49.189  12.016  22.205  0.00  0.00     0.018 A 
ENDROOT
BRANCH   1   7
ATOM      7  C   UNL d   1     -47.268  12.207  23.250  0.00  0.00     0.120 C 
ATOM      8  S   UNL d   1     -47.014  11.559  23.698  0.00  0.00    -0.059 SA
BRANCH   7   9
ATOM      9  N   UNL d   1     -46.728  12.769  22.984  0.00  0.00    -0.292 N 
ATOM     10  C   UNL d   1     -46.746  13.529  23.299  0.00  0.00     0.108 A 
ATOM     11  C   UNL d   1     -46.205  14.092  23.032  0.00  0.00     0.142 A 
ATOM     12  O   UNL d   1     -45.653  13.893  22.456  0.00  0.00    -0.300 OA
ATOM     13  C   UNL d   1     -45.640  13.128  22.142  0.00  0.00     0.142 A 
ATOM     14  C   UNL d   1     -46.181  12.565  22.409  0.00  0.00     0.108 A 
ENDBRANCH   7   9
ENDBRANCH   1   7
BRANCH   2  15
ATOM     15  N   UNL d   1     -50.477  12.530  22.532  0.00  0.00    -0.301 N 
ATOM     16  C   UNL d   1     -50.708  12.915  21.839  0.00  0.00     0.100 C 
ATOM     17  C   UNL d   1     -51.045  12.226  23.044  0.00  0.00     0.100 C 
ENDBRANCH   2  15
TORSDOF 3
ENDMDL
MODEL 2
REMARK VINA RESULT:      -6.4      2.088      3.534
REMARK  3 active torsions:
REMARK  status: ('A' for Active; 'I' for Inactive)
REMARK    1  A    between atoms: N_2  and  C_1 
REMARK    2  A    between atoms: C_3  and  C_1 
REMARK    3  A    between atoms: N_6  and  C_5 
ROOT
ATOM      1  C   UNL d   1     -48.993  13.025  22.674  0.00  0.00     0.027 A 
ATOM      2  C   UNL d   1     -47.617  12.249  23.164  0.00  0.00     0.064 A 
ATOM      3  C   UNL d   1     -48.269  13.176  22.295  0.00  0.00     0.004 A 
ATOM      4  C   UNL d   1     -49.025  12.480  23.303  0.00  0.00     0.004 A 
ATOM      5  C   UNL d   1     -47.585  12.789  22.541  0.00  0.00     0.018 A 
ATOM      6  C   UNL d   1     -48.333  12.091  23.548  0.00  0.00     0.018 A 
ENDROOT
BRANCH   1   7
ATOM      7  C   UNL d   1     -49.681  13.412  22.428  0.00  0.00     0.120 C 
ATOM      8  S   UNL d   1     -50.149  13.074  21.835  0.00  0.00    -0.059 SA
BRANCH   7   9
ATOM      9  N   UNL d   1     -49.894  14.130  22.773  0.00  0.00    -0.292 N 
ATOM     10  C   UNL d   1     -49.523  14.822  22.530  0.00  0.00     0.108 A 
ATOM     11  C   UNL d   1     -49.737  15.540  22.875  0.00  0.00     0.142 A 
ATOM     12  O   UNL d   1     -50.317  15.561  23.457  0.00  0.00    -0.300 OA
ATOM     13  C   UNL d   1     -50.688  14.862  23.698  0.00  0.00     0.142 A 
ATOM     14  C   UNL d   1     -50.474  14.143  23.353  0.00  0.00     0.108 A 
ENDBRANCH   7   9
ENDBRANCH   1   7
BRANCH   2  15
ATOM     15  N   UNL d   1     -46.933  11.863  23.409  0.00  0.00    -0.301 N 
ATOM     16  C   UNL d   1     -46.976  11.090  23.698  0.00  0.00     0.100 C 
ATOM     17  C   UNL d   1     -46.206  12.247  23.367  0.00  0.00     0.100 C 
ENDBRANCH   2  15
TORSDOF 3
ENDMDL
MODEL 3
REMARK VINA RESULT:      -5.1      1.993      3.918
REMARK  3 active torsions:
REMARK  status: ('A' for Active; 'I' for Inactive)
REMARK    1  A    between atoms: N_2  and  C_1 
REMARK    2  A    between atoms: C_3  and  C_1 
REMARK    3  A    between atoms: N_6  and  C_5 
ROOT
ATOM      1  C   UNL d   1     -48.744  13.455  22.291  0.00  0.00     0.027 A 
ATOM      2  C   UNL d   1     -47.114  13.499  22.571  0.00  0.00     0.064 A 
ATOM      3  C   UNL d   1     -48.241  12.906  21.923  0.00  0.00     0.004 A 
ATOM      4  C   UNL d   1     -48.426  14.029  22.804  0.00  0.00     0.004 A 
ATOM      5  C   UNL d   1     -47.429  12.930  22.063  0.00  0.00     0.018 A 
ATOM      6  C   UNL d   1     -47.607  14.050  22.943  0.00  0.00     0.018 A 
ENDROOT
BRANCH   1   7
ATOM      7  C   UNL d   1     -49.558  13.432  22.151  0.00  0.00     0.120 C 
ATOM      8  S   UNL d   1     -49.869  13.820  21.489  0.00  0.00    -0.059 SA
BRANCH   7   9
ATOM      9  N   UNL d   1     -50.054  13.025  22.668  0.00  0.00    -0.292 N 
ATOM     10  C   UNL d   1     -50.049  12.202  22.671  0.00  0.00     0.108 A 
ATOM     11  C   UNL d   1     -50.546  11.795  23.189  0.00  0.00     0.142 A 
ATOM     12  O   UNL d   1     -51.040  12.211  23.698  0.00  0.00    -0.300 OA
ATOM     13  C   UNL d   1     -51.041  13.038  23.691  0.00  0.00     0.142 A 
ATOM     14  C   UNL d   1     -50.545  13.445  23.173  0.00  0.00     0.108 A 
ENDBRANCH   7   9
ENDBRANCH   1   7
BRANCH   2  15
ATOM     15  N   UNL d   1     -46.304  13.522  22.711  0.00  0.00    -0.301 N 
ATOM     16  C   UNL d   1     -45.881  14.219  22.578  0.00  0.00     0.100 C 
ATOM     17  C   UNL d   1     -45.915  12.850  22.984  0.00  0.00     0.100 C 
ENDBRANCH   2  15
TORSDOF 3
ENDMDL
