MODEL 1
REMARK VINA RESULT:     120.3      0.000      0.000
REMARK  9 active torsions:
REMARK  status: ('A' for Active; 'I' for Inactive)
REMARK    1  A    between atoms: C_17  and  N_1 
REMARK    2  A    between atoms: S_10  and  C_2 
REMARK    3  A    between atoms: N_8  and  C_9 
REMARK    4  A    between atoms: C_19  and  S_10 
REMARK    5  A    between atoms: C_11  and  C_19 
REMARK       I    between atoms: N_13  and  C_11 
REMARK    6  A    between atoms: C_20  and  N_13 
REMARK    7  A    between atoms: C_28  and  C_17 
REMARK    8  A    between atoms: C_23  and  C_20 
REMARK    9  A    between atoms: C_29  and  C_28 
ROOT
ATOM      1  N   UNL d   1     -57.150 -98.778 -43.123  0.00  0.00    -0.253 N 
ATOM      2  C   UNL d   1     -56.359 -98.786 -43.358  0.00  0.00     0.182 A 
ATOM      3  C   UNL d   1     -57.751 -98.784 -43.697  0.00  0.00     0.268 A 
ATOM      4  C   UNL d   1     -57.558 -98.798 -44.498  0.00  0.00     0.076 A 
ATOM      5  N   UNL d   1     -56.169 -98.801 -44.167  0.00  0.00    -0.222 NA
ATOM      6  C   UNL d   1     -56.767 -98.806 -44.733  0.00  0.00     0.088 A 
ATOM      7  C   UNL d   1     -58.157 -98.804 -45.063  0.00  0.00     0.024 A 
ATOM      8  C   UNL d   1     -57.964 -98.818 -45.864  0.00  0.00     0.065 A 
ATOM      9  O   UNL d   1     -58.542 -98.775 -43.462  0.00  0.00    -0.267 OA
ATOM     10  C   UNL d   1     -56.575 -98.821 -45.532  0.00  0.00     0.021 A 
ATOM     11  C   UNL d   1     -57.173 -98.826 -46.098  0.00  0.00     0.019 A 
ENDROOT
BRANCH   2  12
ATOM     12  S   UNL d   1     -55.756 -98.780 -42.790  0.00  0.00    -0.044 SA
BRANCH  12  13
ATOM     13  C   UNL d   1     -55.162 -99.366 -42.803  0.00  0.00     0.101 C 
BRANCH  13  14
ATOM     14  C   UNL d   1     -55.027 -99.829 -42.130  0.00  0.00     0.286 C 
ATOM     15  N   UNL d   1     -55.172 -99.511 -41.377  0.00  0.00    -0.206 NA
ATOM     16  O   UNL d   1     -54.748-100.601 -42.215  0.00  0.00    -0.265 OA
BRANCH  15  17
ATOM     17  C   UNL d   1     -55.035 -99.978 -40.701  0.00  0.00     0.102 C 
BRANCH  17  18
ATOM     18  C   UNL d   1     -55.172 -99.658 -39.946  0.00  0.00     0.019 A 
ATOM     19  C   UNL d   1     -55.754 -99.083 -39.841  0.00  0.00     0.002 A 
ATOM     20  C   UNL d   1     -55.893 -98.763 -39.095  0.00  0.00     0.000 A 
ATOM     21  C   UNL d   1     -55.437 -99.026 -38.440  0.00  0.00     0.000 A 
ATOM     22  C   UNL d   1     -54.856 -99.601 -38.546  0.00  0.00     0.000 A 
ATOM     23  C   UNL d   1     -54.718 -99.922 -39.299  0.00  0.00     0.002 A 
ENDBRANCH  17  18
ENDBRANCH  15  17
ENDBRANCH  13  14
ENDBRANCH  12  13
ENDBRANCH   2  12
BRANCH   1  24
ATOM     24  C   UNL d   1     -57.341 -98.763 -42.319  0.00  0.00     0.085 C 
BRANCH  24  25
ATOM     25  C   UNL d   1     -58.068 -99.059 -42.064  0.00  0.00     0.019 C 
BRANCH  25  26
ATOM     26  C   UNL d   1     -58.772 -98.759 -42.387  0.00  0.00     0.002 C 
ATOM     27  C   UNL d   1     -59.326 -99.273 -42.718  0.00  0.00     0.000 C 
ENDBRANCH  25  26
ENDBRANCH  24  25
ENDBRANCH   1  24
BRANCH   8  28
ATOM     28  N   UNL d   1     -58.563 -98.824 -46.428  0.00  0.00    -0.300 N 
ATOM     29  C   UNL d   1     -58.373 -98.757 -47.227  0.00  0.00     0.107 A 
ATOM     30  C   UNL d   1     -58.975 -98.762 -47.805  0.00  0.00     0.142 A 
ATOM     31  O   UNL d   1     -59.771 -98.835 -47.569  0.00  0.00    -0.300 OA
ATOM     32  C   UNL d   1     -59.958 -98.902 -46.759  0.00  0.00     0.142 A 
ATOM     33  C   UNL d   1     -59.359 -98.897 -46.193  0.00  0.00     0.107 A 
ENDBRANCH   8  28
TORSDOF 9
ENDMDL
