MODEL 1
REMARK VINA RESULT:      90.6      0.000      0.000
REMARK  4 active torsions:
REMARK  status: ('A' for Active; 'I' for Inactive)
REMARK    1  A    between atoms: S_2  and  N_1 
REMARK    2  A    between atoms: C_10  and  S_2 
REMARK    3  A    between atoms: C_7  and  C_4 
REMARK    4  A    between atoms: C_12  and  C_5 
ROOT
ATOM      1  N   UNL d   1      59.356  49.012  51.045  0.00  0.00    -0.152 N 
ATOM      2  N   UNL d   1      58.721  49.496  50.896  0.00  0.00    -0.155 NA
ATOM      3  C   UNL d   1      58.106  49.026  50.610  0.00  0.00     0.110 A 
ATOM      4  C   UNL d   1      59.149  48.234  50.856  0.00  0.00     0.096 A 
ATOM      5  C   UNL d   1      58.351  48.244  50.578  0.00  0.00     0.041 A 
ENDROOT
BRANCH   1   6
ATOM      6  S   UNL d   1      60.070  49.246  51.330  0.00  0.00     0.286 S 
ATOM      7  O   UNL d   1      59.891  49.497  50.557  0.00  0.00    -0.198 OA
ATOM      8  O   UNL d   1      60.648  49.708  50.944  0.00  0.00    -0.198 OA
BRANCH   6   9
ATOM      9  C   UNL d   1      60.754  49.400  51.765  0.00  0.00     0.105 A 
ATOM     10  C   UNL d   1      61.489  49.400  51.389  0.00  0.00     0.013 A 
ATOM     11  C   UNL d   1      62.178  49.555  51.824  0.00  0.00     0.001 A 
ATOM     12  C   UNL d   1      62.128  49.708  52.633  0.00  0.00     0.000 A 
ATOM     13  C   UNL d   1      61.389  49.707  53.007  0.00  0.00     0.001 A 
ATOM     14  C   UNL d   1      60.704  49.553  52.574  0.00  0.00     0.013 A 
ENDBRANCH   6   9
ENDBRANCH   1   6
BRANCH   4  15
ATOM     15  C   UNL d   1      59.628  47.566  50.923  0.00  0.00     0.019 A 
ATOM     16  C   UNL d   1      60.252  47.451  50.385  0.00  0.00     0.002 A 
ATOM     17  C   UNL d   1      60.714  46.807  50.450  0.00  0.00     0.007 A 
ATOM     18  C   UNL d   1      60.587  46.230  51.056  0.00  0.00     0.035 A 
ATOM     19  C   UNL d   1      59.950  46.372  51.585  0.00  0.00     0.007 A 
ATOM     20 BR   UNL d   1      61.066  45.562  51.123  0.00  0.00    -0.049 Br
ATOM     21  C   UNL d   1      59.488  47.017  51.521  0.00  0.00     0.002 A 
ENDBRANCH   4  15
BRANCH   3  22
ATOM     22  C   UNL d   1      57.355  49.278  50.385  0.00  0.00     0.049 A 
ATOM     23  S   UNL d   1      57.087  49.366  49.600  0.00  0.00    -0.085 SA
ATOM     24  C   UNL d   1      56.330  49.620  49.690  0.00  0.00     0.035 A 
ATOM     25  C   UNL d   1      56.089  49.703  50.401  0.00  0.00     0.007 A 
ATOM     26  C   UNL d   1      56.717  49.493  50.863  0.00  0.00     0.009 A 
ENDBRANCH   3  22
TORSDOF 4
ENDMDL
