MODEL 1
REMARK VINA RESULT:      -2.0      0.000      0.000
REMARK  2 active torsions:
REMARK  status: ('A' for Active; 'I' for Inactive)
REMARK    1  A    between atoms: C_10  and  C_5 
REMARK    2  A    between atoms: O_22  and  C_15 
ROOT
ATOM      1  C   UNL d   1      59.476  -2.013  28.805  0.00  0.00     0.120 A 
ATOM      2  C   UNL d   1      58.869  -1.628  29.210  0.00  0.00     0.058 A 
ATOM      3  N   UNL d   1      59.203  -2.764  28.602  0.00  0.00    -0.195 NA
ATOM      4  S   UNL d   1      60.190  -1.634  28.674  0.00  0.00    -0.072 SA
ATOM      5  C   UNL d   1      58.980  -0.866  29.484  0.00  0.00     0.005 A 
ATOM      6  C   UNL d   1      60.301  -0.871  28.947  0.00  0.00     0.009 A 
ATOM      7  C   UNL d   1      59.695  -0.483  29.354  0.00  0.00    -0.015 A 
ATOM      8  C   UNL d   1      58.428  -2.846  28.881  0.00  0.00     0.311 A 
ATOM      9  S   UNL d   1      58.224  -2.134  29.261  0.00  0.00    -0.024 SA
ATOM     10  C   UNL d   1      59.809   0.287  29.629  0.00  0.00     0.045 A 
ATOM     11  C   UNL d   1      61.019  -0.490  28.816  0.00  0.00     0.050 A 
ATOM     12  C   UNL d   1      60.301  -0.317  29.178  0.00  0.00     0.018 A 
ATOM     13  O   UNL d   1      57.938  -3.509  28.803  0.00  0.00    -0.258 OA
ATOM     14  C   UNL d   1      60.528   0.669  29.498  0.00  0.00    -0.026 A 
ATOM     15  C   UNL d   1      61.133   0.280  29.091  0.00  0.00    -0.026 A 
ENDROOT
BRANCH   5  16
ATOM     16  C   UNL d   1      58.380  -0.483  29.886  0.00  0.00     0.002 A 
ATOM     17  C   UNL d   1      58.220  -0.676  30.665  0.00  0.00     0.028 A 
ATOM     18  C   UNL d   1      57.617  -0.292  31.071  0.00  0.00     0.133 A 
ATOM     19  C   UNL d   1      57.169   0.294  30.693  0.00  0.00     0.218 A 
ATOM     20  C   UNL d   1      57.333   0.488  29.903  0.00  0.00     0.044 A 
ATOM     21  O   UNL d   1      56.564   0.682  31.097  0.00  0.00    -0.284 OA
ATOM     22  C   UNL d   1      57.936   0.103  29.500  0.00  0.00     0.003 A 
BRANCH  18  23
ATOM     23  O   UNL d   1      57.456  -0.487  31.857  0.00  0.00    -0.325 OA
ATOM     24  C   UNL d   1      56.739  -0.845  32.057  0.00  0.00     0.181 C 
ENDBRANCH  18  23
ENDBRANCH   5  16
TORSDOF 2
ENDMDL
MODEL 2
REMARK VINA RESULT:      -0.3      1.285      2.366
REMARK  2 active torsions:
REMARK  status: ('A' for Active; 'I' for Inactive)
REMARK    1  A    between atoms: C_10  and  C_5 
REMARK    2  A    between atoms: O_22  and  C_15 
ROOT
ATOM      1  C   UNL d   1      60.226  -1.262  28.643  0.00  0.00     0.120 A 
ATOM      2  C   UNL d   1      59.656  -0.818  29.040  0.00  0.00     0.058 A 
ATOM      3  N   UNL d   1      60.850  -0.757  28.455  0.00  0.00    -0.195 NA
ATOM      4  S   UNL d   1      60.106  -2.061  28.505  0.00  0.00    -0.072 SA
ATOM      5  C   UNL d   1      58.967  -1.175  29.298  0.00  0.00     0.005 A 
ATOM      6  C   UNL d   1      59.417  -2.418  28.763  0.00  0.00     0.009 A 
ATOM      7  C   UNL d   1      58.843  -1.976  29.162  0.00  0.00    -0.015 A 
ATOM      8  C   UNL d   1      60.666   0.001  28.735  0.00  0.00     0.311 A 
ATOM      9  S   UNL d   1      59.920  -0.042  29.100  0.00  0.00    -0.024 SA
ATOM     10  C   UNL d   1      58.148  -2.338  29.421  0.00  0.00     0.045 A 
ATOM     11  C   UNL d   1      59.296  -3.221  28.625  0.00  0.00     0.050 A 
ATOM     12  C   UNL d   1      58.889  -2.601  28.983  0.00  0.00     0.018 A 
ATOM     13  O   UNL d   1      61.133   0.682  28.670  0.00  0.00    -0.258 OA
ATOM     14  C   UNL d   1      58.027  -3.141  29.283  0.00  0.00    -0.026 A 
ATOM     15  C   UNL d   1      58.601  -3.584  28.884  0.00  0.00    -0.026 A 
ENDROOT
BRANCH   5  16
ATOM     16  C   UNL d   1      58.401  -0.737  29.692  0.00  0.00     0.002 A 
ATOM     17  C   UNL d   1      58.298  -0.827  30.498  0.00  0.00     0.028 A 
ATOM     18  C   UNL d   1      57.729  -0.388  30.896  0.00  0.00     0.133 A 
ATOM     19  C   UNL d   1      57.254   0.150  30.481  0.00  0.00     0.218 A 
ATOM     20  C   UNL d   1      57.359   0.241  29.662  0.00  0.00     0.044 A 
ATOM     21  O   UNL d   1      56.682   0.593  30.876  0.00  0.00    -0.284 OA
ATOM     22  C   UNL d   1      57.929  -0.200  29.268  0.00  0.00     0.003 A 
BRANCH  18  23
ATOM     23  O   UNL d   1      57.627  -0.480  31.711  0.00  0.00    -0.325 OA
ATOM     24  C   UNL d   1      56.934  -0.820  32.006  0.00  0.00     0.181 C 
ENDBRANCH  18  23
ENDBRANCH   5  16
TORSDOF 2
ENDMDL
MODEL 3
REMARK VINA RESULT:       0.9      2.908      5.162
REMARK  2 active torsions:
REMARK  status: ('A' for Active; 'I' for Inactive)
REMARK    1  A    between atoms: C_10  and  C_5 
REMARK    2  A    between atoms: O_22  and  C_15 
ROOT
ATOM      1  C   UNL d   1      57.424   0.548  34.251  0.00  0.00     0.120 A 
ATOM      2  C   UNL d   1      57.569   0.381  33.457  0.00  0.00     0.058 A 
ATOM      3  N   UNL d   1      58.151   0.681  34.616  0.00  0.00    -0.195 NA
ATOM      4  S   UNL d   1      56.656   0.558  34.537  0.00  0.00    -0.072 SA
ATOM      5  C   UNL d   1      56.947   0.225  32.951  0.00  0.00     0.005 A 
ATOM      6  C   UNL d   1      56.033   0.401  34.032  0.00  0.00     0.009 A 
ATOM      7  C   UNL d   1      56.175   0.233  33.234  0.00  0.00    -0.015 A 
ATOM      8  C   UNL d   1      58.748   0.597  34.048  0.00  0.00     0.311 A 
ATOM      9  S   UNL d   1      58.380   0.410  33.326  0.00  0.00    -0.024 SA
ATOM     10  C   UNL d   1      55.544   0.075  32.726  0.00  0.00     0.045 A 
ATOM     11  C   UNL d   1      55.260   0.411  34.318  0.00  0.00     0.050 A 
ATOM     12  C   UNL d   1      55.636   0.276  33.598  0.00  0.00     0.018 A 
ATOM     13  O   UNL d   1      59.563   0.681  34.168  0.00  0.00    -0.258 OA
ATOM     14  C   UNL d   1      54.772   0.085  33.013  0.00  0.00    -0.026 A 
ATOM     15  C   UNL d   1      54.629   0.253  33.810  0.00  0.00    -0.026 A 
ENDROOT
BRANCH   5  16
ATOM     16  C   UNL d   1      57.089   0.059  32.164  0.00  0.00     0.002 A 
ATOM     17  C   UNL d   1      57.206  -0.713  31.921  0.00  0.00     0.028 A 
ATOM     18  C   UNL d   1      57.349  -0.882  31.129  0.00  0.00     0.133 A 
ATOM     19  C   UNL d   1      57.375  -0.269  30.572  0.00  0.00     0.218 A 
ATOM     20  C   UNL d   1      57.256   0.514  30.820  0.00  0.00     0.044 A 
ATOM     21  O   UNL d   1      57.518  -0.434  29.777  0.00  0.00    -0.284 OA
ATOM     22  C   UNL d   1      57.113   0.679  31.612  0.00  0.00     0.003 A 
BRANCH  18  23
ATOM     23  O   UNL d   1      57.467  -1.662  30.885  0.00  0.00    -0.325 OA
ATOM     24  C   UNL d   1      58.019  -1.834  30.295  0.00  0.00     0.181 C 
ENDBRANCH  18  23
ENDBRANCH   5  16
TORSDOF 2
ENDMDL
