MODEL 1
REMARK VINA RESULT:     -11.6      0.000      0.000
REMARK  2 active torsions:
REMARK  status: ('A' for Active; 'I' for Inactive)
REMARK    1  A    between atoms: C_7  and  C_1 
REMARK    2  A    between atoms: C_9  and  C_1 
ROOT
ATOM      1  C   UNL d   1      53.727  33.100  53.909  0.00  0.00     0.240 A 
ATOM      2  S   UNL d   1      54.048  32.346  53.868  0.00  0.00    -0.043 SA
ATOM      3  N   UNL d   1      52.950  33.225  53.662  0.00  0.00    -0.199 NA
ATOM      4  C   UNL d   1      53.599  31.718  53.582  0.00  0.00     0.181 A 
ATOM      5  N   UNL d   1      52.822  31.844  53.336  0.00  0.00    -0.237 N 
ATOM      6  C   UNL d   1      52.493  32.597  53.374  0.00  0.00     0.352 A 
ATOM      7  N   UNL d   1      53.927  30.964  53.543  0.00  0.00    -0.221 NA
ATOM      8  O   UNL d   1      51.717  32.731  53.129  0.00  0.00    -0.244 OA
ATOM      9  C   UNL d   1      52.373  31.215  53.050  0.00  0.00     0.088 A 
ATOM     10  C   UNL d   1      53.480  30.344  53.260  0.00  0.00     0.103 A 
ATOM     11  C   UNL d   1      52.703  30.469  53.013  0.00  0.00     0.040 A 
ENDROOT
BRANCH   1  12
ATOM     12  C   UNL d   1      54.504  32.974  54.156  0.00  0.00     0.429 C 
ATOM     13  F   UNL d   1      55.215  32.862  54.368  0.00  0.00    -0.167 F 
ATOM     14  F   UNL d   1      55.220  33.001  53.684  0.00  0.00    -0.167 F 
ATOM     15  F   UNL d   1      54.802  32.787  54.932  0.00  0.00    -0.167 F 
ENDBRANCH   1  12
BRANCH   1  16
ATOM     16  C   UNL d   1      53.390  33.854  53.945  0.00  0.00     0.016 A 
ATOM     17  C   UNL d   1      53.118  34.148  54.674  0.00  0.00    -0.001 A 
ATOM     18  C   UNL d   1      52.782  34.900  54.713  0.00  0.00    -0.000 A 
ATOM     19  C   UNL d   1      52.717  35.362  54.023  0.00  0.00    -0.000 A 
ATOM     20  C   UNL d   1      52.992  35.058  53.303  0.00  0.00    -0.000 A 
ATOM     21  C   UNL d   1      53.329  34.308  53.259  0.00  0.00    -0.001 A 
ENDBRANCH   1  16
TORSDOF 2
ENDMDL
MODEL 2
REMARK VINA RESULT:     -11.5      1.986      2.668
REMARK  2 active torsions:
REMARK  status: ('A' for Active; 'I' for Inactive)
REMARK    1  A    between atoms: C_7  and  C_1 
REMARK    2  A    between atoms: C_9  and  C_1 
ROOT
ATOM      1  C   UNL d   1      52.614  34.530  53.767  0.00  0.00     0.240 A 
ATOM      2  S   UNL d   1      53.221  34.640  54.305  0.00  0.00    -0.043 SA
ATOM      3  N   UNL d   1      52.432  33.768  53.507  0.00  0.00    -0.199 NA
ATOM      4  C   UNL d   1      53.649  33.996  54.587  0.00  0.00     0.181 A 
ATOM      5  N   UNL d   1      53.468  33.234  54.328  0.00  0.00    -0.237 N 
ATOM      6  C   UNL d   1      52.859  33.116  53.787  0.00  0.00     0.352 A 
ATOM      7  N   UNL d   1      54.259  34.113  55.129  0.00  0.00    -0.221 NA
ATOM      8  O   UNL d   1      52.672  32.357  53.523  0.00  0.00    -0.244 OA
ATOM      9  C   UNL d   1      53.896  32.589  54.610  0.00  0.00     0.088 A 
ATOM     10  C   UNL d   1      54.680  33.472  55.406  0.00  0.00     0.103 A 
ATOM     11  C   UNL d   1      54.499  32.710  55.146  0.00  0.00     0.040 A 
ENDROOT
BRANCH   1  12
ATOM     12  C   UNL d   1      52.795  35.292  54.026  0.00  0.00     0.429 C 
ATOM     13  F   UNL d   1      52.969  35.986  54.252  0.00  0.00    -0.167 F 
ATOM     14  F   UNL d   1      53.358  35.845  53.690  0.00  0.00    -0.167 F 
ATOM     15  F   UNL d   1      52.478  35.729  54.685  0.00  0.00    -0.167 F 
ENDBRANCH   1  12
BRANCH   1  16
ATOM     16  C   UNL d   1      52.003  34.405  53.223  0.00  0.00     0.016 A 
ATOM     17  C   UNL d   1      51.227  34.288  53.497  0.00  0.00    -0.001 A 
ATOM     18  C   UNL d   1      50.616  34.163  52.957  0.00  0.00    -0.000 A 
ATOM     19  C   UNL d   1      50.780  34.153  52.141  0.00  0.00    -0.000 A 
ATOM     20  C   UNL d   1      51.557  34.270  51.880  0.00  0.00    -0.000 A 
ATOM     21  C   UNL d   1      52.170  34.396  52.415  0.00  0.00    -0.001 A 
ENDBRANCH   1  16
TORSDOF 2
ENDMDL
MODEL 3
REMARK VINA RESULT:     -11.5      1.843      2.630
REMARK  2 active torsions:
REMARK  status: ('A' for Active; 'I' for Inactive)
REMARK    1  A    between atoms: C_7  and  C_1 
REMARK    2  A    between atoms: C_9  and  C_1 
ROOT
ATOM      1  C   UNL d   1      52.414  33.084  53.234  0.00  0.00     0.240 A 
ATOM      2  S   UNL d   1      53.064  32.682  53.530  0.00  0.00    -0.043 SA
ATOM      3  N   UNL d   1      52.270  33.859  53.478  0.00  0.00    -0.199 NA
ATOM      4  C   UNL d   1      53.570  33.046  54.067  0.00  0.00     0.181 A 
ATOM      5  N   UNL d   1      53.425  33.821  54.311  0.00  0.00    -0.237 N 
ATOM      6  C   UNL d   1      52.775  34.232  54.018  0.00  0.00     0.352 A 
ATOM      7  N   UNL d   1      54.221  32.637  54.361  0.00  0.00    -0.221 NA
ATOM      8  O   UNL d   1      52.624  35.007  54.257  0.00  0.00    -0.244 OA
ATOM      9  C   UNL d   1      53.932  34.186  54.848  0.00  0.00     0.088 A 
ATOM     10  C   UNL d   1      54.720  33.001  54.893  0.00  0.00     0.103 A 
ATOM     11  C   UNL d   1      54.576  33.776  55.137  0.00  0.00     0.040 A 
ENDROOT
BRANCH   1  12
ATOM     12  C   UNL d   1      52.559  32.310  52.990  0.00  0.00     0.429 C 
ATOM     13  F   UNL d   1      52.683  31.601  52.778  0.00  0.00    -0.167 F 
ATOM     14  F   UNL d   1      52.250  31.583  53.326  0.00  0.00    -0.167 F 
ATOM     15  F   UNL d   1      53.045  32.025  52.351  0.00  0.00    -0.167 F 
ENDBRANCH   1  12
BRANCH   1  16
ATOM     16  C   UNL d   1      51.762  33.502  52.943  0.00  0.00     0.016 A 
ATOM     17  C   UNL d   1      51.037  33.464  53.347  0.00  0.00    -0.001 A 
ATOM     18  C   UNL d   1      50.385  33.880  53.060  0.00  0.00    -0.000 A 
ATOM     19  C   UNL d   1      50.457  34.336  52.366  0.00  0.00    -0.000 A 
ATOM     20  C   UNL d   1      51.185  34.366  51.973  0.00  0.00    -0.000 A 
ATOM     21  C   UNL d   1      51.839  33.953  52.256  0.00  0.00    -0.001 A 
ENDBRANCH   1  16
TORSDOF 2
ENDMDL
MODEL 4
REMARK VINA RESULT:     -11.5      0.829      2.905
REMARK  2 active torsions:
REMARK  status: ('A' for Active; 'I' for Inactive)
REMARK    1  A    between atoms: C_7  and  C_1 
REMARK    2  A    between atoms: C_9  and  C_1 
ROOT
ATOM      1  C   UNL d   1      53.778  32.635  54.290  0.00  0.00     0.240 A 
ATOM      2  S   UNL d   1      53.844  33.391  54.600  0.00  0.00    -0.043 SA
ATOM      3  N   UNL d   1      53.235  32.489  53.687  0.00  0.00    -0.199 NA
ATOM      4  C   UNL d   1      53.373  34.001  54.314  0.00  0.00     0.181 A 
ATOM      5  N   UNL d   1      52.829  33.855  53.711  0.00  0.00    -0.237 N 
ATOM      6  C   UNL d   1      52.757  33.099  53.394  0.00  0.00     0.352 A 
ATOM      7  N   UNL d   1      53.445  34.758  54.630  0.00  0.00    -0.221 NA
ATOM      8  O   UNL d   1      52.216  32.945  52.791  0.00  0.00    -0.244 OA
ATOM      9  C   UNL d   1      52.357  34.466  53.424  0.00  0.00     0.088 A 
ATOM     10  C   UNL d   1      52.976  35.361  54.343  0.00  0.00     0.103 A 
ATOM     11  C   UNL d   1      52.432  35.215  53.740  0.00  0.00     0.040 A 
ENDROOT
BRANCH   1  12
ATOM     12  C   UNL d   1      54.322  32.781  54.893  0.00  0.00     0.429 C 
ATOM     13  F   UNL d   1      54.825  32.917  55.433  0.00  0.00    -0.167 F 
ATOM     14  F   UNL d   1      55.135  33.045  54.820  0.00  0.00    -0.167 F 
ATOM     15  F   UNL d   1      54.226  32.711  55.737  0.00  0.00    -0.167 F 
ENDBRANCH   1  12
BRANCH   1  16
ATOM     16  C   UNL d   1      53.701  31.877  53.968  0.00  0.00     0.016 A 
ATOM     17  C   UNL d   1      53.199  31.325  54.334  0.00  0.00    -0.001 A 
ATOM     18  C   UNL d   1      53.119  30.568  54.014  0.00  0.00    -0.000 A 
ATOM     19  C   UNL d   1      53.542  30.362  53.327  0.00  0.00    -0.000 A 
ATOM     20  C   UNL d   1      54.039  30.921  52.971  0.00  0.00    -0.000 A 
ATOM     21  C   UNL d   1      54.121  31.678  53.286  0.00  0.00    -0.001 A 
ENDBRANCH   1  16
TORSDOF 2
ENDMDL
MODEL 5
REMARK VINA RESULT:     -11.1      1.608      2.621
REMARK  2 active torsions:
REMARK  status: ('A' for Active; 'I' for Inactive)
REMARK    1  A    between atoms: C_7  and  C_1 
REMARK    2  A    between atoms: C_9  and  C_1 
ROOT
ATOM      1  C   UNL d   1      53.394  32.928  53.767  0.00  0.00     0.240 A 
ATOM      2  S   UNL d   1      52.783  32.722  53.262  0.00  0.00    -0.043 SA
ATOM      3  N   UNL d   1      53.410  33.683  54.100  0.00  0.00    -0.199 NA
ATOM      4  C   UNL d   1      52.188  33.262  53.086  0.00  0.00     0.181 A 
ATOM      5  N   UNL d   1      52.204  34.017  53.419  0.00  0.00    -0.237 N 
ATOM      6  C   UNL d   1      52.814  34.231  53.927  0.00  0.00     0.352 A 
ATOM      7  N   UNL d   1      51.577  33.049  52.577  0.00  0.00    -0.221 NA
ATOM      8  O   UNL d   1      52.837  34.984  54.264  0.00  0.00    -0.244 OA
ATOM      9  C   UNL d   1      51.608  34.558  53.243  0.00  0.00     0.088 A 
ATOM     10  C   UNL d   1      50.989  33.587  52.405  0.00  0.00     0.103 A 
ATOM     11  C   UNL d   1      51.004  34.342  52.738  0.00  0.00     0.040 A 
ENDROOT
BRANCH   1  12
ATOM     12  C   UNL d   1      53.379  32.173  53.434  0.00  0.00     0.429 C 
ATOM     13  F   UNL d   1      53.358  31.483  53.142  0.00  0.00    -0.167 F 
ATOM     14  F   UNL d   1      53.014  31.464  53.749  0.00  0.00    -0.167 F 
ATOM     15  F   UNL d   1      53.714  31.898  52.701  0.00  0.00    -0.167 F 
ENDBRANCH   1  12
BRANCH   1  16
ATOM     16  C   UNL d   1      54.005  33.150  54.279  0.00  0.00     0.016 A 
ATOM     17  C   UNL d   1      54.695  33.493  53.970  0.00  0.00    -0.001 A 
ATOM     18  C   UNL d   1      55.306  33.715  54.478  0.00  0.00    -0.000 A 
ATOM     19  C   UNL d   1      55.227  33.594  55.298  0.00  0.00    -0.000 A 
ATOM     20  C   UNL d   1      54.534  33.252  55.594  0.00  0.00    -0.000 A 
ATOM     21  C   UNL d   1      53.922  33.028  55.091  0.00  0.00    -0.001 A 
ENDBRANCH   1  16
TORSDOF 2
ENDMDL
MODEL 6
REMARK VINA RESULT:     -10.6      1.847      2.203
REMARK  2 active torsions:
REMARK  status: ('A' for Active; 'I' for Inactive)
REMARK    1  A    between atoms: C_7  and  C_1 
REMARK    2  A    between atoms: C_9  and  C_1 
ROOT
ATOM      1  C   UNL d   1      52.404  33.348  53.445  0.00  0.00     0.240 A 
ATOM      2  S   UNL d   1      52.141  32.634  53.140  0.00  0.00    -0.043 SA
ATOM      3  N   UNL d   1      53.163  33.399  53.764  0.00  0.00    -0.199 NA
ATOM      4  C   UNL d   1      52.629  31.971  53.152  0.00  0.00     0.181 A 
ATOM      5  N   UNL d   1      53.388  32.022  53.471  0.00  0.00    -0.237 N 
ATOM      6  C   UNL d   1      53.659  32.736  53.779  0.00  0.00     0.352 A 
ATOM      7  N   UNL d   1      52.358  31.257  52.844  0.00  0.00    -0.221 NA
ATOM      8  O   UNL d   1      54.417  32.795  54.100  0.00  0.00    -0.244 OA
ATOM      9  C   UNL d   1      53.876  31.359  53.483  0.00  0.00     0.088 A 
ATOM     10  C   UNL d   1      52.845  30.602  52.857  0.00  0.00     0.103 A 
ATOM     11  C   UNL d   1      53.604  30.653  53.177  0.00  0.00     0.040 A 
ENDROOT
BRANCH   1  12
ATOM     12  C   UNL d   1      51.645  33.297  53.125  0.00  0.00     0.429 C 
ATOM     13  F   UNL d   1      50.951  33.247  52.847  0.00  0.00    -0.167 F 
ATOM     14  F   UNL d   1      50.916  33.090  53.526  0.00  0.00    -0.167 F 
ATOM     15  F   UNL d   1      51.385  33.433  52.326  0.00  0.00    -0.167 F 
ENDBRANCH   1  12
BRANCH   1  16
ATOM     16  C   UNL d   1      52.683  34.062  53.755  0.00  0.00     0.016 A 
ATOM     17  C   UNL d   1      52.980  34.644  53.243  0.00  0.00    -0.001 A 
ATOM     18  C   UNL d   1      53.259  35.358  53.550  0.00  0.00    -0.000 A 
ATOM     19  C   UNL d   1      53.242  35.490  54.372  0.00  0.00    -0.000 A 
ATOM     20  C   UNL d   1      52.943  34.901  54.872  0.00  0.00    -0.000 A 
ATOM     21  C   UNL d   1      52.664  34.188  54.571  0.00  0.00    -0.001 A 
ENDBRANCH   1  16
TORSDOF 2
ENDMDL
MODEL 7
REMARK VINA RESULT:     -10.5      1.946      2.857
REMARK  2 active torsions:
REMARK  status: ('A' for Active; 'I' for Inactive)
REMARK    1  A    between atoms: C_7  and  C_1 
REMARK    2  A    between atoms: C_9  and  C_1 
ROOT
ATOM      1  C   UNL d   1      52.940  34.237  53.892  0.00  0.00     0.240 A 
ATOM      2  S   UNL d   1      52.323  34.722  53.653  0.00  0.00    -0.043 SA
ATOM      3  N   UNL d   1      52.871  33.419  53.807  0.00  0.00    -0.199 NA
ATOM      4  C   UNL d   1      51.640  34.397  53.331  0.00  0.00     0.181 A 
ATOM      5  N   UNL d   1      51.571  33.579  53.246  0.00  0.00    -0.237 N 
ATOM      6  C   UNL d   1      52.186  33.086  53.483  0.00  0.00     0.352 A 
ATOM      7  N   UNL d   1      51.024  34.889  53.092  0.00  0.00    -0.221 NA
ATOM      8  O   UNL d   1      52.124  32.268  53.401  0.00  0.00    -0.244 OA
ATOM      9  C   UNL d   1      50.886  33.254  52.922  0.00  0.00     0.088 A 
ATOM     10  C   UNL d   1      50.348  34.564  52.773  0.00  0.00     0.103 A 
ATOM     11  C   UNL d   1      50.279  33.746  52.688  0.00  0.00     0.040 A 
ENDROOT
BRANCH   1  12
ATOM     12  C   UNL d   1      53.009  35.055  53.978  0.00  0.00     0.429 C 
ATOM     13  F   UNL d   1      53.077  35.799  54.043  0.00  0.00    -0.167 F 
ATOM     14  F   UNL d   1      53.335  35.619  53.420  0.00  0.00    -0.167 F 
ATOM     15  F   UNL d   1      52.779  35.552  54.630  0.00  0.00    -0.167 F 
ENDBRANCH   1  12
BRANCH   1  16
ATOM     16  C   UNL d   1      53.554  33.736  54.129  0.00  0.00     0.016 A 
ATOM     17  C   UNL d   1      53.612  33.507  54.926  0.00  0.00    -0.001 A 
ATOM     18  C   UNL d   1      54.223  33.007  55.165  0.00  0.00    -0.000 A 
ATOM     19  C   UNL d   1      54.779  32.735  54.607  0.00  0.00    -0.000 A 
ATOM     20  C   UNL d   1      54.710  32.970  53.816  0.00  0.00    -0.000 A 
ATOM     21  C   UNL d   1      54.101  33.469  53.573  0.00  0.00    -0.001 A 
ENDBRANCH   1  16
TORSDOF 2
ENDMDL
MODEL 8
REMARK VINA RESULT:      -9.8      1.785      3.483
REMARK  2 active torsions:
REMARK  status: ('A' for Active; 'I' for Inactive)
REMARK    1  A    between atoms: C_7  and  C_1 
REMARK    2  A    between atoms: C_9  and  C_1 
ROOT
ATOM      1  C   UNL d   1      52.577  32.729  53.245  0.00  0.00     0.240 A 
ATOM      2  S   UNL d   1      52.415  33.531  53.305  0.00  0.00    -0.043 SA
ATOM      3  N   UNL d   1      53.107  32.381  53.772  0.00  0.00    -0.199 NA
ATOM      4  C   UNL d   1      52.777  33.986  53.886  0.00  0.00     0.181 A 
ATOM      5  N   UNL d   1      53.307  33.637  54.414  0.00  0.00    -0.237 N 
ATOM      6  C   UNL d   1      53.475  32.833  54.360  0.00  0.00     0.352 A 
ATOM      7  N   UNL d   1      52.610  34.791  53.941  0.00  0.00    -0.221 NA
ATOM      8  O   UNL d   1      54.004  32.478  54.884  0.00  0.00    -0.244 OA
ATOM      9  C   UNL d   1      53.670  34.093  54.997  0.00  0.00     0.088 A 
ATOM     10  C   UNL d   1      52.971  35.239  54.519  0.00  0.00     0.103 A 
ATOM     11  C   UNL d   1      53.501  34.890  55.047  0.00  0.00     0.040 A 
ENDROOT
BRANCH   1  12
ATOM     12  C   UNL d   1      52.048  33.078  52.717  0.00  0.00     0.429 C 
ATOM     13  F   UNL d   1      51.556  33.392  52.245  0.00  0.00    -0.167 F 
ATOM     14  F   UNL d   1      51.199  33.169  52.802  0.00  0.00    -0.167 F 
ATOM     15  F   UNL d   1      52.196  33.436  51.958  0.00  0.00    -0.167 F 
ENDBRANCH   1  12
BRANCH   1  16
ATOM     16  C   UNL d   1      52.750  31.922  53.196  0.00  0.00     0.016 A 
ATOM     17  C   UNL d   1      52.200  31.367  53.478  0.00  0.00    -0.001 A 
ATOM     18  C   UNL d   1      52.370  30.561  53.431  0.00  0.00    -0.000 A 
ATOM     19  C   UNL d   1      53.091  30.308  53.101  0.00  0.00    -0.000 A 
ATOM     20  C   UNL d   1      53.631  30.871  52.823  0.00  0.00    -0.000 A 
ATOM     21  C   UNL d   1      53.466  31.677  52.868  0.00  0.00    -0.001 A 
ENDBRANCH   1  16
TORSDOF 2
ENDMDL
