MODEL 1
REMARK VINA RESULT:      14.3      0.000      0.000
REMARK  2 active torsions:
REMARK  status: ('A' for Active; 'I' for Inactive)
REMARK    1  A    between atoms: C_6  and  C_3 
REMARK    2  A    between atoms: C_9  and  C_6 
ROOT
ATOM      1  C   UNL d   1      58.899  49.661  51.408  0.00  0.00     0.011 C 
ENDROOT
BRANCH   1   2
ATOM      2  C   UNL d   1      59.703  49.660  51.175  0.00  0.00     0.092 A 
ATOM      3  C   UNL d   1      60.355  49.680  51.635  0.00  0.00     0.288 A 
ATOM      4  N   UNL d   1      61.004  49.671  51.168  0.00  0.00    -0.163 NA
ATOM      5  O   UNL d   1      60.342  49.707  52.497  0.00  0.00    -0.265 OA
ATOM      6  C   UNL d   1      60.713  49.644  50.379  0.00  0.00     0.313 A 
ATOM      7  S   UNL d   1      59.910  49.639  50.426  0.00  0.00    -0.021 SA
ATOM      8  O   UNL d   1      61.196  49.626  49.686  0.00  0.00    -0.258 OA
ENDBRANCH   1   2
BRANCH   1   9
ATOM      9  C   UNL d   1      58.265  49.673  50.879  0.00  0.00     0.001 A 
ATOM     10  C   UNL d   1      58.355  49.693  50.059  0.00  0.00     0.001 A 
ATOM     11  C   UNL d   1      57.712  49.704  49.577  0.00  0.00     0.011 A 
ATOM     12  C   UNL d   1      56.929  49.695  49.900  0.00  0.00     0.058 A 
ATOM     13  C   UNL d   1      56.839  49.676  50.720  0.00  0.00     0.011 A 
ATOM     14 CL   UNL d   1      56.257  49.706  49.419  0.00  0.00    -0.082 Cl
ATOM     15  C   UNL d   1      57.515  49.664  51.220  0.00  0.00     0.001 A 
ENDBRANCH   1   9
TORSDOF 2
ENDMDL
MODEL 2
REMARK VINA RESULT:      14.6      2.579      3.644
REMARK  2 active torsions:
REMARK  status: ('A' for Active; 'I' for Inactive)
REMARK    1  A    between atoms: C_6  and  C_3 
REMARK    2  A    between atoms: C_9  and  C_6 
ROOT
ATOM      1  C   UNL d   1      58.338  49.662  49.991  0.00  0.00     0.011 C 
ENDROOT
BRANCH   1   2
ATOM      2  C   UNL d   1      57.547  49.656  50.263  0.00  0.00     0.092 A 
ATOM      3  C   UNL d   1      56.873  49.658  49.835  0.00  0.00     0.288 A 
ATOM      4  N   UNL d   1      56.248  49.651  50.334  0.00  0.00    -0.163 NA
ATOM      5  O   UNL d   1      56.844  49.666  48.973  0.00  0.00    -0.265 OA
ATOM      6  C   UNL d   1      56.577  49.644  51.108  0.00  0.00     0.313 A 
ATOM      7  S   UNL d   1      57.377  49.648  51.022  0.00  0.00    -0.021 SA
ATOM      8  O   UNL d   1      56.129  49.636  51.824  0.00  0.00    -0.258 OA
ENDBRANCH   1   2
BRANCH   1   9
ATOM      9  C   UNL d   1      58.997  49.663  50.489  0.00  0.00     0.001 A 
ATOM     10  C   UNL d   1      58.949  49.696  51.312  0.00  0.00     0.001 A 
ATOM     11  C   UNL d   1      59.614  49.696  51.762  0.00  0.00     0.011 A 
ATOM     12  C   UNL d   1      60.380  49.662  51.402  0.00  0.00     0.058 A 
ATOM     13  C   UNL d   1      60.429  49.629  50.579  0.00  0.00     0.011 A 
ATOM     14 CL   UNL d   1      61.075  49.661  51.850  0.00  0.00    -0.082 Cl
ATOM     15  C   UNL d   1      59.730  49.630  50.112  0.00  0.00     0.001 A 
ENDBRANCH   1   9
TORSDOF 2
ENDMDL
