MODEL 1
REMARK VINA RESULT:      -9.1      0.000      0.000
REMARK  3 active torsions:
REMARK  status: ('A' for Active; 'I' for Inactive)
REMARK       I    between atoms: C_3  and  N_1 
REMARK    1  A    between atoms: C_9  and  C_3 
REMARK    2  A    between atoms: C_15  and  C_4 
REMARK    3  A    between atoms: N_5  and  C_8 
ROOT
ATOM      1  N   UNL d   1     -48.042  12.876  23.066  0.00  0.00    -0.269 N 
ATOM      2  C   UNL d   1     -47.120  11.911  23.266  0.00  0.00     0.036 A 
ATOM      3  C   UNL d   1     -48.110  13.665  22.830  0.00  0.00     0.265 C 
ATOM      4  C   UNL d   1     -47.289  12.560  23.083  0.00  0.00     0.069 A 
ATOM      5  C   UNL d   1     -47.550  11.237  23.520  0.00  0.00     0.086 A 
ATOM      6  N   UNL d   1     -48.252  11.111  23.635  0.00  0.00    -0.207 NA
ATOM      7  C   UNL d   1     -48.858  11.651  23.533  0.00  0.00     0.297 A 
ATOM      8  C   UNL d   1     -48.764  12.466  23.271  0.00  0.00     0.146 A 
ATOM      9  C   UNL d   1     -46.290  11.858  23.193  0.00  0.00     0.033 A 
ATOM     10  O   UNL d   1     -47.433  14.104  22.621  0.00  0.00    -0.267 OA
ATOM     11  O   UNL d   1     -49.630  11.389  23.697  0.00  0.00    -0.264 OA
ATOM     12  C   UNL d   1     -47.150  10.528  23.697  0.00  0.00     0.022 A 
ATOM     13  C   UNL d   1     -45.886  11.150  23.369  0.00  0.00     0.140 A 
ATOM     14  C   UNL d   1     -46.324  10.482  23.622  0.00  0.00     0.031 A 
ATOM     15  F   UNL d   1     -45.073  11.112  23.293  0.00  0.00    -0.204 F 
ENDROOT
BRANCH   3  16
ATOM     16  C   UNL d   1     -48.850  14.025  22.798  0.00  0.00     0.058 A 
ATOM     17  C   UNL d   1     -49.316  13.965  22.120  0.00  0.00     0.028 A 
ATOM     18  C   UNL d   1     -50.043  14.324  22.101  0.00  0.00     0.127 A 
ATOM     19  C   UNL d   1     -50.322  14.748  22.751  0.00  0.00     0.022 A 
ATOM     20  C   UNL d   1     -49.866  14.810  23.422  0.00  0.00     0.002 A 
ATOM     21  C   UNL d   1     -51.064  15.108  22.717  0.00  0.00     0.002 C 
ATOM     22  C   UNL d   1     -49.126  14.447  23.445  0.00  0.00     0.005 A 
BRANCH  18  23
ATOM     23  N   UNL d   1     -50.509  14.263  21.423  0.00  0.00    -0.114 N 
ATOM     24  O   UNL d   1     -50.666  14.928  20.983  0.00  0.00    -0.532 OA
ATOM     25  O   UNL d   1     -50.810  13.534  21.200  0.00  0.00    -0.532 OA
ENDBRANCH  18  23
ENDBRANCH   3  16
BRANCH   4  26
ATOM     26  C   UNL d   1     -46.675  13.055  22.864  0.00  0.00     0.016 A 
ATOM     27  C   UNL d   1     -46.388  13.038  22.087  0.00  0.00     0.004 A 
ATOM     28  C   UNL d   1     -45.768  13.541  21.876  0.00  0.00     0.030 A 
ATOM     29  C   UNL d   1     -45.442  14.045  22.415  0.00  0.00     0.140 A 
ATOM     30  C   UNL d   1     -45.732  14.057  23.189  0.00  0.00     0.030 A 
ATOM     31  F   UNL d   1     -44.825  14.543  22.200  0.00  0.00    -0.204 F 
ATOM     32  C   UNL d   1     -46.344  13.567  23.415  0.00  0.00     0.004 A 
ENDBRANCH   4  26
TORSDOF 3
ENDMDL
