MODEL 1
REMARK VINA RESULT:       2.5      0.000      0.000
REMARK  3 active torsions:
REMARK  status: ('A' for Active; 'I' for Inactive)
REMARK    1  A    between atoms: C_3  and  C_1 
REMARK    2  A    between atoms: N_4  and  C_3 
REMARK    3  A    between atoms: C_8  and  C_3 
ROOT
ATOM      1  C   UNL d   1     -41.665-122.112 -52.011  0.00  0.00     0.069 C 
ENDROOT
BRANCH   1   2
ATOM      2  C   UNL d   1     -41.822-122.533 -51.314  0.00  0.00     0.057 A 
ATOM      3  C   UNL d   1     -42.570-122.492 -50.967  0.00  0.00     0.214 A 
ATOM      4  C   UNL d   1     -42.711-122.913 -50.279  0.00  0.00     0.120 A 
ATOM      5  O   UNL d   1     -43.173-122.032 -51.304  0.00  0.00    -0.285 OA
ATOM      6  N   UNL d   1     -43.453-122.881 -49.919  0.00  0.00    -0.241 NA
ATOM      7  C   UNL d   1     -42.108-123.373 -49.941  0.00  0.00     0.021 A 
ATOM      8  C   UNL d   1     -43.584-123.311 -49.225  0.00  0.00     0.099 A 
ATOM      9  C   UNL d   1     -43.005-123.752 -48.901  0.00  0.00     0.021 A 
ATOM     10  C   UNL d   1     -42.254-123.795 -49.248  0.00  0.00     0.003 A 
ATOM     11  C   UNL d   1     -41.371-123.405 -50.296  0.00  0.00     0.002 A 
ATOM     12  C   UNL d   1     -41.243-122.975 -50.990  0.00  0.00     0.005 A 
ENDBRANCH   1   2
BRANCH   1  13
ATOM     13  N   UNL d   1     -41.686-122.490 -52.737  0.00  0.00    -0.301 N 
ATOM     14  C   UNL d   1     -42.263-122.282 -53.283  0.00  0.00     0.100 A 
ATOM     15  C   UNL d   1     -42.287-122.664 -54.021  0.00  0.00     0.100 A 
ATOM     16  N   UNL d   1     -41.744-123.240 -54.202  0.00  0.00    -0.299 N 
ATOM     17  C   UNL d   1     -41.165-123.451 -53.655  0.00  0.00     0.100 A 
ATOM     18  C   UNL d   1     -41.762-123.617 -54.921  0.00  0.00     0.100 C 
ATOM     19  C   UNL d   1     -41.141-123.076 -52.930  0.00  0.00     0.100 A 
ENDBRANCH   1  13
BRANCH   1  20
ATOM     20  C   UNL d   1     -41.488-121.316 -51.993  0.00  0.00     0.035 A 
ATOM     21  C   UNL d   1     -41.458-120.881 -52.682  0.00  0.00     0.100 A 
ATOM     22  N   UNL d   1     -41.279-120.076 -52.670  0.00  0.00    -0.242 NA
ATOM     23  C   UNL d   1     -41.128-119.707 -51.945  0.00  0.00     0.099 A 
ATOM     24  C   UNL d   1     -41.157-120.140 -51.251  0.00  0.00     0.021 A 
ATOM     25  C   UNL d   1     -41.337-120.947 -51.269  0.00  0.00     0.005 A 
ENDBRANCH   1  20
TORSDOF 3
ENDMDL
MODEL 2
REMARK VINA RESULT:       4.4      0.839      3.444
REMARK  3 active torsions:
REMARK  status: ('A' for Active; 'I' for Inactive)
REMARK    1  A    between atoms: C_3  and  C_1 
REMARK    2  A    between atoms: N_4  and  C_3 
REMARK    3  A    between atoms: C_8  and  C_3 
ROOT
ATOM      1  C   UNL d   1     -41.897-122.200 -51.661  0.00  0.00     0.069 C 
ENDROOT
BRANCH   1   2
ATOM      2  C   UNL d   1     -41.774-122.578 -52.388  0.00  0.00     0.057 A 
ATOM      3  C   UNL d   1     -42.175-122.316 -53.061  0.00  0.00     0.214 A 
ATOM      4  C   UNL d   1     -42.044-122.697 -53.774  0.00  0.00     0.120 A 
ATOM      5  O   UNL d   1     -42.704-121.678 -53.022  0.00  0.00    -0.285 OA
ATOM      6  N   UNL d   1     -42.437-122.449 -54.455  0.00  0.00    -0.241 NA
ATOM      7  C   UNL d   1     -41.515-123.337 -53.813  0.00  0.00     0.021 A 
ATOM      8  C   UNL d   1     -42.297-122.841 -55.169  0.00  0.00     0.099 A 
ATOM      9  C   UNL d   1     -41.789-123.454 -55.206  0.00  0.00     0.021 A 
ATOM     10  C   UNL d   1     -41.386-123.718 -54.533  0.00  0.00     0.003 A 
ATOM     11  C   UNL d   1     -41.123-123.585 -53.138  0.00  0.00     0.002 A 
ATOM     12  C   UNL d   1     -41.266-123.191 -52.425  0.00  0.00     0.005 A 
ENDBRANCH   1   2
BRANCH   1  13
ATOM     13  N   UNL d   1     -42.284-122.590 -51.052  0.00  0.00    -0.301 N 
ATOM     14  C   UNL d   1     -41.868-123.124 -50.588  0.00  0.00     0.100 A 
ATOM     15  C   UNL d   1     -42.257-123.522 -49.970  0.00  0.00     0.100 A 
ATOM     16  N   UNL d   1     -43.044-123.383 -49.825  0.00  0.00    -0.299 N 
ATOM     17  C   UNL d   1     -43.463-122.847 -50.291  0.00  0.00     0.100 A 
ATOM     18  C   UNL d   1     -43.430-123.768 -49.223  0.00  0.00     0.100 C 
ATOM     19  C   UNL d   1     -43.081-122.457 -50.898  0.00  0.00     0.100 A 
ENDBRANCH   1  13
BRANCH   1  20
ATOM     20  C   UNL d   1     -41.640-121.438 -51.530  0.00  0.00     0.035 A 
ATOM     21  C   UNL d   1     -41.384-121.205 -50.792  0.00  0.00     0.100 A 
ATOM     22  N   UNL d   1     -41.123-120.434 -50.655  0.00  0.00    -0.242 NA
ATOM     23  C   UNL d   1     -41.123-119.891 -51.279  0.00  0.00     0.099 A 
ATOM     24  C   UNL d   1     -41.379-120.120 -52.021  0.00  0.00     0.021 A 
ATOM     25  C   UNL d   1     -41.640-120.894 -52.153  0.00  0.00     0.005 A 
ENDBRANCH   1  20
TORSDOF 3
ENDMDL
