MODEL 1
REMARK VINA RESULT:      11.6      0.000      0.000
REMARK  3 active torsions:
REMARK  status: ('A' for Active; 'I' for Inactive)
REMARK    1  A    between atoms: S_10  and  C_6 
REMARK    2  A    between atoms: C_14  and  S_10 
REMARK    3  A    between atoms: C_15  and  C_14 
ROOT
ATOM      1  C   UNL d   1     -51.350  24.977  33.309  0.00  0.00     0.141 A 
ATOM      2  O   UNL d   1     -51.803  25.666  33.308  0.00  0.00    -0.303 OA
ATOM      3  C   UNL d   1     -50.554  25.194  33.309  0.00  0.00     0.110 A 
ATOM      4  C   UNL d   1     -50.516  26.019  33.308  0.00  0.00     0.043 A 
ATOM      5  C   UNL d   1     -51.288  26.310  33.307  0.00  0.00     0.102 A 
ATOM      6  C   UNL d   1     -51.559  24.178  33.310  0.00  0.00     0.137 A 
ATOM      7  N   UNL d   1     -50.972  23.599  33.311  0.00  0.00    -0.215 NA
ATOM      8  N   UNL d   1     -49.968  24.615  33.309  0.00  0.00    -0.222 NA
ATOM      9  C   UNL d   1     -50.177  23.816  33.310  0.00  0.00     0.200 A 
ATOM     10  C   UNL d   1     -49.878  26.542  33.307  0.00  0.00     0.004 A 
ATOM     11  C   UNL d   1     -51.422  27.124  33.306  0.00  0.00     0.025 A 
ATOM     12  C   UNL d   1     -50.012  27.356  33.306  0.00  0.00     0.000 A 
ATOM     13  C   UNL d   1     -50.783  27.647  33.306  0.00  0.00     0.002 A 
ENDROOT
BRANCH   6  14
ATOM     14  S   UNL d   1     -52.354  23.960  33.310  0.00  0.00    -0.062 SA
BRANCH  14  15
ATOM     15  C   UNL d   1     -52.605  23.316  33.760  0.00  0.00     0.082 C 
BRANCH  15  16
ATOM     16  C   UNL d   1     -53.410  23.202  33.903  0.00  0.00     0.241 C 
ATOM     17  O   UNL d   1     -53.960  23.360  33.310  0.00  0.00    -0.283 OA
ENDBRANCH  15  16
ENDBRANCH  14  15
ENDBRANCH   6  14
TORSDOF 3
ENDMDL
