MODEL 1
REMARK VINA RESULT:       6.5      0.000      0.000
REMARK  10 active torsions:
REMARK  status: ('A' for Active; 'I' for Inactive)
REMARK       I    between atoms: C_6  and  N_1 
REMARK    1  A    between atoms: C_7  and  C_3 
REMARK    2  A    between atoms: C_9  and  C_4 
REMARK    3  A    between atoms: C_19  and  C_6 
REMARK    4  A    between atoms: C_10  and  C_25 
REMARK    5  A    between atoms: O_23  and  C_10 
REMARK    6  A    between atoms: S_18  and  C_19 
REMARK    7  A    between atoms: C_25  and  S_18 
REMARK    8  A    between atoms: C_26  and  O_23 
REMARK    9  A    between atoms: C_27  and  C_26 
REMARK   10  A    between atoms: C_28  and  C_27 
ROOT
ATOM      1  N   UNL d   1     -41.468-122.202 -52.796  0.00  0.00    -0.195 N 
ATOM      2  N   UNL d   1     -41.296-121.611 -52.249  0.00  0.00    -0.162 NA
ATOM      3  C   UNL d   1     -41.426-120.901 -52.592  0.00  0.00     0.109 A 
ATOM      4  C   UNL d   1     -41.709-121.829 -53.488  0.00  0.00     0.088 A 
ATOM      5  C   UNL d   1     -41.684-121.024 -53.366  0.00  0.00     0.041 A 
ATOM      6  C   UNL d   1     -41.410-123.022 -52.672  0.00  0.00     0.275 C 
ATOM      7  O   UNL d   1     -41.602-123.548 -53.273  0.00  0.00    -0.266 OA
ENDROOT
BRANCH   4   8
ATOM      8  C   UNL d   1     -41.940-122.176 -54.194  0.00  0.00     0.018 A 
ATOM      9  C   UNL d   1     -42.718-122.102 -54.448  0.00  0.00     0.004 A 
ATOM     10  C   UNL d   1     -42.949-122.450 -55.154  0.00  0.00     0.030 A 
ATOM     11  C   UNL d   1     -42.412-122.873 -55.612  0.00  0.00     0.140 A 
ATOM     12  C   UNL d   1     -41.624-122.943 -55.347  0.00  0.00     0.030 A 
ATOM     13  F   UNL d   1     -42.653-123.219 -56.319  0.00  0.00    -0.204 F 
ATOM     14  C   UNL d   1     -41.391-122.598 -54.645  0.00  0.00     0.004 A 
ENDBRANCH   4   8
BRANCH   6  15
ATOM     15  C   UNL d   1     -41.158-123.308 -51.941  0.00  0.00     0.127 C 
BRANCH  15  16
ATOM     16  S   UNL d   1     -41.676-123.719 -51.454  0.00  0.00    -0.089 SA
BRANCH  16  17
ATOM     17  C   UNL d   1     -41.509-123.797 -50.654  0.00  0.00     0.103 C 
BRANCH  17  18
ATOM     18  C   UNL d   1     -42.060-123.574 -50.086  0.00  0.00     0.307 C 
ATOM     19  O   UNL d   1     -42.866-123.583 -50.275  0.00  0.00    -0.258 OA
BRANCH  18  20
ATOM     20  O   UNL d   1     -41.817-123.341 -49.328  0.00  0.00    -0.271 OA
BRANCH  20  21
ATOM     21  C   UNL d   1     -42.092-123.738 -48.666  0.00  0.00     0.126 C 
BRANCH  21  22
ATOM     22  C   UNL d   1     -41.605-123.812 -47.994  0.00  0.00     0.027 C 
BRANCH  22  23
ATOM     23  C   UNL d   1     -41.789-123.399 -47.304  0.00  0.00     0.002 C 
ATOM     24  C   UNL d   1     -42.351-123.710 -46.788  0.00  0.00     0.000 C 
ENDBRANCH  22  23
ENDBRANCH  21  22
ENDBRANCH  20  21
ENDBRANCH  18  20
ENDBRANCH  17  18
ENDBRANCH  16  17
ENDBRANCH  15  16
ENDBRANCH   6  15
BRANCH   3  25
ATOM     25  C   UNL d   1     -41.308-120.185 -52.198  0.00  0.00     0.049 A 
ATOM     26  S   UNL d   1     -41.234-119.402 -52.423  0.00  0.00    -0.085 SA
ATOM     27  C   UNL d   1     -41.123-118.947 -51.747  0.00  0.00     0.035 A 
ATOM     28  C   UNL d   1     -41.128-119.450 -51.092  0.00  0.00     0.007 A 
ATOM     29  C   UNL d   1     -41.242-120.220 -51.369  0.00  0.00     0.009 A 
ENDBRANCH   3  25
TORSDOF 10
ENDMDL
