MODEL 1
REMARK VINA RESULT:     -11.2      0.000      0.000
REMARK  5 active torsions:
REMARK  status: ('A' for Active; 'I' for Inactive)
REMARK    1  A    between atoms: N_6  and  C_1 
REMARK    2  A    between atoms: C_8  and  C_2 
REMARK    3  A    between atoms: C_11  and  C_3 
REMARK       I    between atoms: C_7  and  N_6 
REMARK    4  A    between atoms: C_9  and  C_7 
REMARK    5  A    between atoms: C_20  and  C_11 
ROOT
ATOM      1  C   UNL d   1      52.567  33.896  53.500  0.00  0.00     0.119 A 
ATOM      2  C   UNL d   1      53.122  34.223  54.006  0.00  0.00     0.084 A 
ATOM      3  C   UNL d   1      53.529  32.989  53.684  0.00  0.00     0.031 A 
ATOM      4  S   UNL d   1      52.810  33.132  53.294  0.00  0.00    -0.068 SA
ATOM      5  C   UNL d   1      53.719  33.660  54.120  0.00  0.00     0.013 A 
ATOM      6  C   UNL d   1      54.394  33.748  54.590  0.00  0.00     0.001 C 
ENDROOT
BRANCH   1   7
ATOM      7  N   UNL d   1      51.865  34.273  53.232  0.00  0.00    -0.201 NA
ATOM      8  C   UNL d   1      51.162  33.835  53.149  0.00  0.00     0.280 C 
ATOM      9  O   UNL d   1      51.147  33.030  53.328  0.00  0.00    -0.265 OA
BRANCH   8  10
ATOM     10  C   UNL d   1      50.473  34.213  52.884  0.00  0.00     0.058 A 
ATOM     11  C   UNL d   1      50.211  34.100  52.106  0.00  0.00     0.005 A 
ATOM     12  C   UNL d   1      49.544  34.468  51.854  0.00  0.00     0.000 A 
ATOM     13  C   UNL d   1      49.307  34.333  51.064  0.00  0.00     0.000 A 
ATOM     14  C   UNL d   1      49.104  34.956  52.332  0.00  0.00     0.000 A 
ATOM     15  C   UNL d   1      48.633  34.694  50.781  0.00  0.00     0.000 A 
ATOM     16  C   UNL d   1      48.185  35.190  51.265  0.00  0.00     0.000 A 
ATOM     17  C   UNL d   1      48.429  35.317  52.046  0.00  0.00     0.000 A 
ATOM     18  C   UNL d   1      49.364  35.079  53.133  0.00  0.00     0.000 A 
ATOM     19  C   UNL d   1      50.050  34.702  53.395  0.00  0.00     0.005 A 
ENDBRANCH   8  10
ENDBRANCH   1   7
BRANCH   2  20
ATOM     20  C   UNL d   1      53.103  34.974  54.347  0.00  0.00     0.299 C 
ATOM     21  O   UNL d   1      52.891  35.052  55.204  0.00  0.00    -0.264 OA
ATOM     22  N   UNL d   1      53.264  35.600  53.936  0.00  0.00    -0.102 N 
ENDBRANCH   2  20
BRANCH   3  23
ATOM     23  C   UNL d   1      54.034  32.325  53.692  0.00  0.00     0.007 C 
BRANCH  23  24
ATOM     24  C   UNL d   1      53.716  31.564  53.581  0.00  0.00     0.003 A 
ATOM     25  C   UNL d   1      53.638  31.055  54.231  0.00  0.00     0.026 A 
ATOM     26  C   UNL d   1      53.324  30.301  54.130  0.00  0.00     0.119 A 
ATOM     27  O   UNL d   1      53.184  29.692  54.658  0.00  0.00    -0.300 OA
ATOM     28  C   UNL d   1      53.087  30.049  53.382  0.00  0.00     0.119 A 
ATOM     29  C   UNL d   1      52.862  29.064  54.243  0.00  0.00     0.304 A 
ATOM     30  O   UNL d   1      52.803  29.287  53.453  0.00  0.00    -0.300 OA
ATOM     31  C   UNL d   1      53.164  30.551  52.735  0.00  0.00     0.026 A 
ATOM     32  C   UNL d   1      53.479  31.312  52.833  0.00  0.00     0.002 A 
ENDBRANCH  23  24
ENDBRANCH   3  23
TORSDOF 5
ENDMDL
MODEL 2
REMARK VINA RESULT:      -9.8      1.350      5.175
REMARK  5 active torsions:
REMARK  status: ('A' for Active; 'I' for Inactive)
REMARK    1  A    between atoms: N_6  and  C_1 
REMARK    2  A    between atoms: C_8  and  C_2 
REMARK    3  A    between atoms: C_11  and  C_3 
REMARK       I    between atoms: C_7  and  N_6 
REMARK    4  A    between atoms: C_9  and  C_7 
REMARK    5  A    between atoms: C_20  and  C_11 
ROOT
ATOM      1  C   UNL d   1      53.273  32.978  53.882  0.00  0.00     0.119 A 
ATOM      2  C   UNL d   1      53.713  33.588  54.207  0.00  0.00     0.084 A 
ATOM      3  C   UNL d   1      52.782  34.125  53.408  0.00  0.00     0.031 A 
ATOM      4  S   UNL d   1      52.694  33.301  53.385  0.00  0.00    -0.068 SA
ATOM      5  C   UNL d   1      53.408  34.301  53.913  0.00  0.00     0.013 A 
ATOM      6  C   UNL d   1      53.679  35.062  54.091  0.00  0.00     0.001 C 
ENDROOT
BRANCH   1   7
ATOM      7  N   UNL d   1      53.389  32.158  54.027  0.00  0.00    -0.201 NA
ATOM      8  C   UNL d   1      53.127  31.595  53.472  0.00  0.00     0.280 C 
ATOM      9  O   UNL d   1      52.753  31.835  52.778  0.00  0.00    -0.265 OA
BRANCH   8  10
ATOM     10  C   UNL d   1      53.245  30.788  53.622  0.00  0.00     0.058 A 
ATOM     11  C   UNL d   1      53.150  30.491  54.390  0.00  0.00     0.005 A 
ATOM     12  C   UNL d   1      53.266  29.709  54.530  0.00  0.00     0.000 A 
ATOM     13  C   UNL d   1      53.162  29.441  55.315  0.00  0.00     0.000 A 
ATOM     14  C   UNL d   1      53.475  29.185  53.946  0.00  0.00     0.000 A 
ATOM     15  C   UNL d   1      53.273  28.652  55.486  0.00  0.00     0.000 A 
ATOM     16  C   UNL d   1      53.485  28.118  54.896  0.00  0.00     0.000 A 
ATOM     17  C   UNL d   1      53.585  28.393  54.121  0.00  0.00     0.000 A 
ATOM     18  C   UNL d   1      53.575  29.479  53.154  0.00  0.00     0.000 A 
ATOM     19  C   UNL d   1      53.457  30.283  53.007  0.00  0.00     0.005 A 
ENDBRANCH   8  10
ENDBRANCH   1   7
BRANCH   2  20
ATOM     20  C   UNL d   1      54.345  33.521  54.732  0.00  0.00     0.299 C 
ATOM     21  O   UNL d   1      55.166  33.437  54.409  0.00  0.00    -0.264 OA
ATOM     22  N   UNL d   1      54.233  33.529  55.490  0.00  0.00    -0.102 N 
ENDBRANCH   2  20
BRANCH   3  23
ATOM     23  C   UNL d   1      52.365  34.739  53.027  0.00  0.00     0.007 C 
BRANCH  23  24
ATOM     24  C   UNL d   1      51.568  34.626  52.814  0.00  0.00     0.003 A 
ATOM     25  C   UNL d   1      51.372  34.496  52.019  0.00  0.00     0.026 A 
ATOM     26  C   UNL d   1      50.587  34.383  51.800  0.00  0.00     0.119 A 
ATOM     27  O   UNL d   1      50.237  34.246  51.072  0.00  0.00    -0.300 OA
ATOM     28  C   UNL d   1      49.993  34.398  52.370  0.00  0.00     0.119 A 
ATOM     29  C   UNL d   1      49.429  34.176  51.189  0.00  0.00     0.304 A 
ATOM     30  O   UNL d   1      49.280  34.270  51.992  0.00  0.00    -0.300 OA
ATOM     31  C   UNL d   1      50.184  34.526  53.160  0.00  0.00     0.026 A 
ATOM     32  C   UNL d   1      50.974  34.640  53.385  0.00  0.00     0.002 A 
ENDBRANCH  23  24
ENDBRANCH   3  23
TORSDOF 5
ENDMDL
