MODEL 1
REMARK VINA RESULT:      -5.7      0.000      0.000
REMARK  5 active torsions:
REMARK  status: ('A' for Active; 'I' for Inactive)
REMARK    1  A    between atoms: C_2  and  N_1 
REMARK       I    between atoms: C_3  and  N_1 
REMARK    2  A    between atoms: N_7  and  C_2 
REMARK    3  A    between atoms: C_4  and  C_3 
REMARK    4  A    between atoms: N_5  and  C_9 
REMARK    5  A    between atoms: C_17  and  N_7 
ROOT
ATOM      1  C   UNL d   1     -41.913-123.146 -49.638  0.00  0.00     0.064 A 
ATOM      2  C   UNL d   1     -41.369-123.610 -50.045  0.00  0.00     0.019 A 
ATOM      3  C   UNL d   1     -42.214-122.454 -50.001  0.00  0.00     0.019 A 
ATOM      4  C   UNL d   1     -41.421-122.713 -51.159  0.00  0.00     0.084 A 
ATOM      5  C   UNL d   1     -41.967-122.237 -50.763  0.00  0.00     0.021 A 
ATOM      6  C   UNL d   1     -41.123-123.403 -50.794  0.00  0.00     0.021 A 
ENDROOT
BRANCH   4   7
ATOM      7  N   UNL d   1     -41.174-122.512 -51.900  0.00  0.00    -0.217 NA
BRANCH   7   8
ATOM      8  C   UNL d   1     -41.416-122.958 -52.551  0.00  0.00     0.224 C 
ATOM      9  S   UNL d   1     -41.345-123.771 -52.539  0.00  0.00    -0.037 SA
BRANCH   8  10
ATOM     10  N   UNL d   1     -41.734-122.565 -53.222  0.00  0.00    -0.178 NA
ATOM     11  C   UNL d   1     -41.592-122.862 -53.958  0.00  0.00     0.287 C 
ATOM     12  O   UNL d   1     -41.139-123.544 -54.046  0.00  0.00    -0.265 OA
BRANCH  11  13
ATOM     13  C   UNL d   1     -41.893-122.492 -54.612  0.00  0.00     0.087 A 
ATOM     14  S   UNL d   1     -41.494-121.952 -55.086  0.00  0.00    -0.082 SA
ATOM     15  C   UNL d   1     -42.014-121.707 -55.702  0.00  0.00     0.036 A 
ATOM     16  C   UNL d   1     -42.715-122.106 -55.586  0.00  0.00     0.008 A 
ATOM     17  C   UNL d   1     -42.660-122.589 -54.925  0.00  0.00     0.012 A 
ENDBRANCH  11  13
ENDBRANCH   8  10
ENDBRANCH   7   8
ENDBRANCH   4   7
BRANCH   1  18
ATOM     18  N   UNL d   1     -42.155-123.357 -48.892  0.00  0.00    -0.300 N 
ATOM     19  C   UNL d   1     -42.930-123.586 -48.759  0.00  0.00     0.107 A 
ATOM     20  C   UNL d   1     -43.186-123.803 -48.004  0.00  0.00     0.142 A 
ATOM     21  O   UNL d   1     -42.660-123.790 -47.376  0.00  0.00    -0.300 OA
ATOM     22  C   UNL d   1     -41.876-123.561 -47.499  0.00  0.00     0.142 A 
ATOM     23  C   UNL d   1     -41.618-123.343 -48.255  0.00  0.00     0.107 A 
ENDBRANCH   1  18
TORSDOF 5
ENDMDL
