MODEL 1
REMARK VINA RESULT:      -4.1      0.000      0.000
REMARK  4 active torsions:
REMARK  status: ('A' for Active; 'I' for Inactive)
REMARK    1  A    between atoms: S_3  and  C_1 
REMARK    2  A    between atoms: C_7  and  S_3 
REMARK    3  A    between atoms: S_11  and  C_4 
REMARK    4  A    between atoms: C_10  and  C_5 
ROOT
ATOM      1  C   UNL d   1      58.180  -0.808  30.202  0.00  0.00     0.199 A 
ATOM      2  N   UNL d   1      58.509  -1.560  30.127  0.00  0.00    -0.208 NA
ATOM      3  C   UNL d   1      58.320  -0.399  29.499  0.00  0.00     0.156 A 
ATOM      4  C   UNL d   1      58.853  -1.617  29.376  0.00  0.00     0.184 A 
ATOM      5  O   UNL d   1      58.732  -0.897  28.995  0.00  0.00    -0.281 OA
ENDROOT
BRANCH   1   6
ATOM      6  S   UNL d   1      57.784  -0.524  30.865  0.00  0.00     0.229 S 
ATOM      7  O   UNL d   1      58.426  -0.028  30.983  0.00  0.00    -0.215 OA
ATOM      8  O   UNL d   1      57.139  -1.020  30.752  0.00  0.00    -0.215 OA
BRANCH   6   9
ATOM      9  C   UNL d   1      57.380  -0.246  31.528  0.00  0.00     0.089 A 
ATOM     10  C   UNL d   1      57.677   0.399  31.947  0.00  0.00     0.011 A 
ATOM     11  C   UNL d   1      57.273   0.675  32.607  0.00  0.00     0.001 A 
ATOM     12  C   UNL d   1      56.575   0.316  32.855  0.00  0.00     0.000 A 
ATOM     13  C   UNL d   1      56.278  -0.333  32.433  0.00  0.00     0.001 A 
ATOM     14  C   UNL d   1      56.171   0.594  33.518  0.00  0.00     0.000 C 
ATOM     15  C   UNL d   1      56.678  -0.608  31.778  0.00  0.00     0.011 A 
ENDBRANCH   6   9
ENDBRANCH   1   6
BRANCH   3  16
ATOM     16  S   UNL d   1      58.086   0.372  29.336  0.00  0.00    -0.086 SA
ATOM     17  C   UNL d   1      58.197   0.681  28.580  0.00  0.00     0.076 C 
ENDBRANCH   3  16
BRANCH   4  18
ATOM     18  C   UNL d   1      59.245  -2.277  29.069  0.00  0.00     0.041 A 
ATOM     19  C   UNL d   1      60.074  -2.305  29.070  0.00  0.00     0.004 A 
ATOM     20  C   UNL d   1      60.461  -2.965  28.763  0.00  0.00     0.000 A 
ATOM     21  C   UNL d   1      60.030  -3.589  28.460  0.00  0.00     0.000 A 
ATOM     22  C   UNL d   1      59.203  -3.567  28.456  0.00  0.00     0.000 A 
ATOM     23  C   UNL d   1      58.813  -2.918  28.757  0.00  0.00     0.004 A 
ENDBRANCH   4  18
TORSDOF 4
ENDMDL
MODEL 2
REMARK VINA RESULT:      -1.8      1.733      5.206
REMARK  4 active torsions:
REMARK  status: ('A' for Active; 'I' for Inactive)
REMARK    1  A    between atoms: S_3  and  C_1 
REMARK    2  A    between atoms: C_7  and  S_3 
REMARK    3  A    between atoms: S_11  and  C_4 
REMARK    4  A    between atoms: C_10  and  C_5 
ROOT
ATOM      1  C   UNL d   1      57.018   0.148  32.368  0.00  0.00     0.199 A 
ATOM      2  N   UNL d   1      56.225   0.103  32.588  0.00  0.00    -0.208 NA
ATOM      3  C   UNL d   1      57.431   0.507  32.986  0.00  0.00     0.156 A 
ATOM      4  C   UNL d   1      56.146   0.434  33.341  0.00  0.00     0.184 A 
ATOM      5  O   UNL d   1      56.894   0.682  33.581  0.00  0.00    -0.281 OA
ENDROOT
BRANCH   1   6
ATOM      6  S   UNL d   1      57.333  -0.121  31.657  0.00  0.00     0.229 S 
ATOM      7  O   UNL d   1      57.077  -0.869  31.875  0.00  0.00    -0.215 OA
ATOM      8  O   UNL d   1      57.591   0.626  31.434  0.00  0.00    -0.215 OA
BRANCH   6   9
ATOM      9  C   UNL d   1      57.652  -0.380  30.943  0.00  0.00     0.089 A 
ATOM     10  C   UNL d   1      57.829  -1.180  30.841  0.00  0.00     0.011 A 
ATOM     11  C   UNL d   1      58.147  -1.437  30.128  0.00  0.00     0.001 A 
ATOM     12  C   UNL d   1      58.290  -0.907  29.515  0.00  0.00     0.000 A 
ATOM     13  C   UNL d   1      58.112  -0.104  29.619  0.00  0.00     0.001 A 
ATOM     14  C   UNL d   1      58.610  -1.167  28.800  0.00  0.00     0.000 C 
ATOM     15  C   UNL d   1      57.797   0.152  30.326  0.00  0.00     0.011 A 
ENDBRANCH   6   9
ENDBRANCH   1   6
BRANCH   3  16
ATOM     16  S   UNL d   1      58.238   0.662  33.000  0.00  0.00    -0.086 SA
ATOM     17  C   UNL d   1      58.642   0.663  33.718  0.00  0.00     0.076 C 
ENDBRANCH   3  16
BRANCH   4  18
ATOM     18  C   UNL d   1      55.443   0.503  33.772  0.00  0.00     0.041 A 
ATOM     19  C   UNL d   1      54.712   0.495  33.378  0.00  0.00     0.004 A 
ATOM     20  C   UNL d   1      54.014   0.564  33.811  0.00  0.00     0.000 A 
ATOM     21  C   UNL d   1      54.042   0.639  34.623  0.00  0.00     0.000 A 
ATOM     22  C   UNL d   1      54.767   0.647  35.022  0.00  0.00     0.000 A 
ATOM     23  C   UNL d   1      55.461   0.580  34.601  0.00  0.00     0.004 A 
ENDBRANCH   4  18
TORSDOF 4
ENDMDL
