MODEL 1
REMARK VINA RESULT:      11.4      0.000      0.000
REMARK  1 active torsions:
REMARK  status: ('A' for Active; 'I' for Inactive)
REMARK    1  A    between atoms: C_8  and  CA_5 
ROOT
ATOM      1  N   UNL d   1      58.494  49.706  49.661  0.00  0.00    -0.224 NA
ATOM      2  C   UNL d   1      57.676  49.706  49.635  0.00  0.00     0.162 A 
ATOM      3  N   UNL d   1      57.290  49.705  48.913  0.00  0.00    -0.225 NA
ATOM      4  C   UNL d   1      57.245  49.707  50.338  0.00  0.00     0.036 A 
ATOM      5  CA  UNL d   1      58.892  49.707  50.380  0.00  0.00     0.125 A 
ATOM      6  C   UNL d   1      57.634  49.708  51.064  0.00  0.00     0.005 A 
ATOM      7  C   UNL d   1      58.461  49.708  51.083  0.00  0.00     0.023 A 
ATOM      8  C   UNL d   1      56.464  49.705  48.892  0.00  0.00     0.101 A 
ATOM      9  C   UNL d   1      56.426  49.707  50.323  0.00  0.00     0.005 A 
ATOM     10  C   UNL d   1      56.033  49.706  49.596  0.00  0.00     0.021 A 
ENDROOT
BRANCH   5  11
ATOM     11  C   UNL d   1      59.705  49.707  50.403  0.00  0.00     0.253 C 
ATOM     12  O   UNL d   1      60.095  49.705  51.131  0.00  0.00    -0.281 OA
ENDBRANCH   5  11
TORSDOF 1
ENDMDL
