MODEL 1
REMARK VINA RESULT:     102.7      0.000      0.000
REMARK  3 active torsions:
REMARK  status: ('A' for Active; 'I' for Inactive)
REMARK    1  A    between atoms: C_2  and  C_1 
REMARK    2  A    between atoms: C_3  and  C_2 
REMARK       I    between atoms: N_5  and  C_3 
REMARK    3  A    between atoms: C_10  and  N_8 
ROOT
ATOM      1  C   UNL d   1      57.332  49.104  50.056  0.00  0.00     0.304 C 
ATOM      2  N   UNL d   1      58.058  49.140  50.442  0.00  0.00    -0.266 N 
ATOM      3  N   UNL d   1      59.517  49.215  51.216  0.00  0.00    -0.301 N 
ATOM      4  O   UNL d   1      57.194  49.577  49.396  0.00  0.00    -0.263 OA
ATOM      5  C   UNL d   1      58.645  49.649  50.169  0.00  0.00     0.102 A 
ATOM      6  C   UNL d   1      58.190  48.666  51.100  0.00  0.00     0.102 A 
ATOM      7  C   UNL d   1      58.918  48.704  51.485  0.00  0.00     0.100 A 
ATOM      8  C   UNL d   1      59.371  49.689  50.551  0.00  0.00     0.100 A 
ENDROOT
BRANCH   1   9
ATOM      9  C   UNL d   1      56.738  48.591  50.331  0.00  0.00     0.253 C 
ATOM     10  O   UNL d   1      56.365  48.745  51.051  0.00  0.00    -0.281 OA
BRANCH   9  11
ATOM     11  C   UNL d   1      56.528  47.935  49.886  0.00  0.00     0.064 A 
ATOM     12  C   UNL d   1      56.400  47.907  49.070  0.00  0.00     0.102 A 
ATOM     13  N   UNL d   1      56.200  47.139  48.855  0.00  0.00    -0.244 NA
ATOM     14  C   UNL d   1      56.202  46.680  49.542  0.00  0.00     0.082 A 
ATOM     15  C   UNL d   1      56.404  47.171  50.177  0.00  0.00     0.022 A 
ATOM     16  C   UNL d   1      56.046  45.882  49.671  0.00  0.00     0.019 A 
ATOM     17  C   UNL d   1      56.450  46.860  50.938  0.00  0.00     0.002 A 
ATOM     18  C   UNL d   1      56.292  46.052  51.066  0.00  0.00     0.000 A 
ATOM     19  C   UNL d   1      56.092  45.571  50.432  0.00  0.00     0.002 A 
ENDBRANCH   9  11
ENDBRANCH   1   9
BRANCH   3  20
ATOM     20  C   UNL d   1      60.241  49.257  51.595  0.00  0.00     0.064 A 
ATOM     21  C   UNL d   1      60.928  49.010  51.213  0.00  0.00     0.020 A 
ATOM     22  C   UNL d   1      61.656  49.057  51.608  0.00  0.00     0.031 A 
ATOM     23  C   UNL d   1      61.694  49.350  52.382  0.00  0.00     0.140 A 
ATOM     24  C   UNL d   1      60.999  49.599  52.765  0.00  0.00     0.031 A 
ATOM     25  F   UNL d   1      62.422  49.394  52.767  0.00  0.00    -0.204 F 
ATOM     26  C   UNL d   1      60.281  49.551  52.372  0.00  0.00     0.020 A 
ENDBRANCH   3  20
TORSDOF 3
ENDMDL
