MODEL 1
REMARK VINA RESULT:      40.5      0.000      0.000
REMARK  7 active torsions:
REMARK  status: ('A' for Active; 'I' for Inactive)
REMARK    1  A    between atoms: S_3  and  N_12 
REMARK    2  A    between atoms: C_16  and  S_3 
REMARK    3  A    between atoms: C_17  and  C_7 
REMARK    4  A    between atoms: O_19  and  C_8 
REMARK    5  A    between atoms: O_20  and  C_11 
REMARK    6  A    between atoms: N_12  and  C_18 
REMARK    7  A    between atoms: C_18  and  C_17 
ROOT
ATOM      1  N   UNL d   1     -55.204-100.303 -42.924  0.00  0.00    -0.206 NA
ATOM      2  C   UNL d   1     -55.057-101.071 -44.118  0.00  0.00     0.042 A 
ATOM      3  C   UNL d   1     -55.045-101.020 -43.295  0.00  0.00     0.109 A 
ATOM      4  C   UNL d   1     -55.230-100.405 -44.574  0.00  0.00     0.008 A 
ATOM      5  C   UNL d   1     -55.379 -99.629 -43.376  0.00  0.00     0.279 A 
ATOM      6  C   UNL d   1     -55.391 -99.679 -44.199  0.00  0.00     0.060 A 
ATOM      7  C   UNL d   1     -54.897-101.788 -44.490  0.00  0.00     0.096 A 
ATOM      8  C   UNL d   1     -54.872-101.687 -42.844  0.00  0.00     0.112 A 
ATOM      9  O   UNL d   1     -55.539 -98.911 -43.004  0.00  0.00    -0.265 OA
ATOM     10  C   UNL d   1     -54.725-102.454 -44.038  0.00  0.00     0.026 A 
ATOM     11  C   UNL d   1     -54.712-102.403 -43.215  0.00  0.00     0.028 A 
ENDROOT
BRANCH   6  12
ATOM     12  C   UNL d   1     -55.565 -99.009 -44.651  0.00  0.00     0.026 C 
BRANCH  12  13
ATOM     13  C   UNL d   1     -56.345 -98.758 -44.732  0.00  0.00     0.112 C 
BRANCH  13  14
ATOM     14  N   UNL d   1     -56.961 -99.288 -44.597  0.00  0.00    -0.157 NA
BRANCH  14  15
ATOM     15  S   UNL d   1     -57.742 -99.014 -44.615  0.00  0.00     0.286 S 
ATOM     16  O   UNL d   1     -58.496 -98.757 -44.831  0.00  0.00    -0.198 OA
ATOM     17  O   UNL d   1     -57.536 -99.114 -45.407  0.00  0.00    -0.198 OA
BRANCH  15  18
ATOM     18  C   UNL d   1     -57.930 -98.920 -43.814  0.00  0.00     0.117 C 
ATOM     19  C   UNL d   1     -58.705 -98.759 -43.587  0.00  0.00     0.014 C 
ENDBRANCH  15  18
ENDBRANCH  14  15
ENDBRANCH  13  14
ENDBRANCH  12  13
ENDBRANCH   6  12
BRANCH   7  20
ATOM     20  O   UNL d   1     -54.910-101.838 -45.306  0.00  0.00    -0.328 OA
ATOM     21  C   UNL d   1     -54.897-102.579 -45.673  0.00  0.00     0.181 C 
ENDBRANCH   7  20
BRANCH   8  22
ATOM     22  O   UNL d   1     -54.859-101.636 -42.020  0.00  0.00    -0.327 OA
ATOM     23  C   UNL d   1     -55.355-102.127 -41.569  0.00  0.00     0.181 C 
ENDBRANCH   8  22
TORSDOF 7
ENDMDL
