MODEL 1
REMARK VINA RESULT:      -0.1      0.000      0.000
REMARK  9 active torsions:
REMARK  status: ('A' for Active; 'I' for Inactive)
REMARK    1  A    between atoms: C_9  and  C_1 
REMARK    2  A    between atoms: N_8  and  C_2 
REMARK    3  A    between atoms: C_10  and  C_4 
REMARK    4  A    between atoms: C_6  and  N_7 
REMARK    5  A    between atoms: N_7  and  N_8 
REMARK    6  A    between atoms: O_18  and  C_9 
REMARK    7  A    between atoms: O_19  and  C_10 
REMARK    8  A    between atoms: C_23  and  O_18 
REMARK    9  A    between atoms: C_24  and  O_19 
ROOT
ATOM      1  C   UNL d   1     -41.508-121.945 -52.063  0.00  0.00     0.090 A 
ATOM      2  C   UNL d   1     -41.841-122.624 -51.799  0.00  0.00     0.138 A 
ATOM      3  C   UNL d   1     -41.466-121.991 -52.861  0.00  0.00     0.018 A 
ATOM      4  C   UNL d   1     -41.753-122.661 -53.130  0.00  0.00     0.095 A 
ATOM      5  S   UNL d   1     -42.004-123.097 -52.483  0.00  0.00    -0.061 SA
ATOM      6  C   UNL d   1     -41.143-121.379 -53.396  0.00  0.00     0.001 C 
ENDROOT
BRANCH   2   7
ATOM      7  N   UNL d   1     -41.965-122.758 -50.995  0.00  0.00    -0.141 NA
BRANCH   7   8
ATOM      8  N   UNL d   1     -42.277-123.486 -50.702  0.00  0.00    -0.141 NA
BRANCH   8   9
ATOM      9  C   UNL d   1     -42.514-123.551 -49.882  0.00  0.00     0.180 A 
ATOM     10  C   UNL d   1     -41.899-123.696 -49.315  0.00  0.00     0.218 A 
ATOM     11  O   UNL d   1     -41.123-123.764 -49.584  0.00  0.00    -0.285 OA
ATOM     12  C   UNL d   1     -42.096-123.765 -48.517  0.00  0.00     0.044 A 
ATOM     13  C   UNL d   1     -42.873-123.697 -48.248  0.00  0.00     0.007 A 
ATOM     14  C   UNL d   1     -43.497-123.553 -48.798  0.00  0.00     0.044 A 
ATOM     15  C   UNL d   1     -43.312-123.480 -49.623  0.00  0.00     0.218 A 
ATOM     16  O   UNL d   1     -43.911-123.342 -50.142  0.00  0.00    -0.285 OA
ENDBRANCH   8   9
ENDBRANCH   7   8
ENDBRANCH   2   7
BRANCH   1  17
ATOM     17  C   UNL d   1     -41.253-121.308 -51.576  0.00  0.00     0.302 C 
ATOM     18  O   UNL d   1     -41.128-121.419 -50.757  0.00  0.00    -0.259 OA
BRANCH  17  19
ATOM     19  O   UNL d   1     -41.123-120.543 -51.928  0.00  0.00    -0.271 OA
BRANCH  19  20
ATOM     20  C   UNL d   1     -41.135-119.864 -51.458  0.00  0.00     0.126 C 
ATOM     21  C   UNL d   1     -41.321-119.143 -51.810  0.00  0.00     0.029 C 
ENDBRANCH  19  20
ENDBRANCH  17  19
ENDBRANCH   1  17
BRANCH   4  22
ATOM     22  C   UNL d   1     -41.791-122.883 -53.941  0.00  0.00     0.306 C 
ATOM     23  O   UNL d   1     -41.301-123.445 -54.237  0.00  0.00    -0.258 OA
BRANCH  22  24
ATOM     24  O   UNL d   1     -42.352-122.495 -54.399  0.00  0.00    -0.271 OA
BRANCH  24  25
ATOM     25  C   UNL d   1     -42.269-122.520 -55.244  0.00  0.00     0.126 C 
ATOM     26  C   UNL d   1     -42.711-122.021 -55.696  0.00  0.00     0.029 C 
ENDBRANCH  24  25
ENDBRANCH  22  24
ENDBRANCH   4  22
TORSDOF 9
ENDMDL
MODEL 2
REMARK VINA RESULT:       2.2      1.083      4.365
REMARK  9 active torsions:
REMARK  status: ('A' for Active; 'I' for Inactive)
REMARK    1  A    between atoms: C_9  and  C_1 
REMARK    2  A    between atoms: N_8  and  C_2 
REMARK    3  A    between atoms: C_10  and  C_4 
REMARK    4  A    between atoms: C_6  and  N_7 
REMARK    5  A    between atoms: N_7  and  N_8 
REMARK    6  A    between atoms: O_18  and  C_9 
REMARK    7  A    between atoms: O_19  and  C_10 
REMARK    8  A    between atoms: C_23  and  O_18 
REMARK    9  A    between atoms: C_24  and  O_19 
ROOT
ATOM      1  C   UNL d   1     -41.925-121.783 -51.383  0.00  0.00     0.090 A 
ATOM      2  C   UNL d   1     -41.841-122.438 -51.837  0.00  0.00     0.138 A 
ATOM      3  C   UNL d   1     -42.045-122.025 -50.630  0.00  0.00     0.018 A 
ATOM      4  C   UNL d   1     -42.044-122.800 -50.569  0.00  0.00     0.095 A 
ATOM      5  S   UNL d   1     -41.917-123.105 -51.319  0.00  0.00    -0.061 SA
ATOM      6  C   UNL d   1     -42.167-121.507 -49.936  0.00  0.00     0.001 C 
ENDROOT
BRANCH   2   7
ATOM      7  N   UNL d   1     -41.708-122.385 -52.649  0.00  0.00    -0.141 NA
BRANCH   7   8
ATOM      8  N   UNL d   1     -42.273-122.649 -53.217  0.00  0.00    -0.141 NA
BRANCH   8   9
ATOM      9  C   UNL d   1     -42.056-122.710 -54.043  0.00  0.00     0.180 A 
ATOM     10  C   UNL d   1     -42.430-122.167 -54.579  0.00  0.00     0.218 A 
ATOM     11  O   UNL d   1     -42.971-121.624 -54.277  0.00  0.00    -0.285 OA
ATOM     12  C   UNL d   1     -42.241-122.201 -55.382  0.00  0.00     0.044 A 
ATOM     13  C   UNL d   1     -41.699-122.745 -55.684  0.00  0.00     0.007 A 
ATOM     14  C   UNL d   1     -41.318-123.291 -55.165  0.00  0.00     0.044 A 
ATOM     15  C   UNL d   1     -41.501-123.271 -54.336  0.00  0.00     0.218 A 
ATOM     16  O   UNL d   1     -41.134-123.794 -53.848  0.00  0.00    -0.285 OA
ENDBRANCH   8   9
ENDBRANCH   7   8
ENDBRANCH   2   7
BRANCH   1  17
ATOM     17  C   UNL d   1     -41.890-120.991 -51.664  0.00  0.00     0.302 C 
ATOM     18  O   UNL d   1     -42.523-120.663 -52.100  0.00  0.00    -0.259 OA
BRANCH  17  19
ATOM     19  O   UNL d   1     -41.199-120.521 -51.498  0.00  0.00    -0.271 OA
BRANCH  19  20
ATOM     20  C   UNL d   1     -41.148-119.746 -51.776  0.00  0.00     0.126 C 
ATOM     21  C   UNL d   1     -41.154-119.129 -51.231  0.00  0.00     0.029 C 
ENDBRANCH  19  20
ENDBRANCH  17  19
ENDBRANCH   1  17
BRANCH   4  22
ATOM     22  C   UNL d   1     -42.156-123.232 -49.855  0.00  0.00     0.306 C 
ATOM     23  O   UNL d   1     -42.799-123.701 -49.755  0.00  0.00    -0.258 OA
BRANCH  22  24
ATOM     24  O   UNL d   1     -41.575-123.143 -49.281  0.00  0.00    -0.271 OA
BRANCH  24  25
ATOM     25  C   UNL d   1     -41.380-123.814 -48.798  0.00  0.00     0.126 C 
ATOM     26  C   UNL d   1     -41.333-123.721 -48.000  0.00  0.00     0.029 C 
ENDBRANCH  24  25
ENDBRANCH  22  24
ENDBRANCH   4  22
TORSDOF 9
ENDMDL
