MODEL 1
REMARK VINA RESULT:      -4.8      0.000      0.000
REMARK  5 active torsions:
REMARK  status: ('A' for Active; 'I' for Inactive)
REMARK    1  A    between atoms: C_11  and  C_1 
REMARK    2  A    between atoms: C_5  and  S_13 
REMARK       I    between atoms: C_12  and  N_14 
REMARK    3  A    between atoms: C_18  and  C_12 
REMARK    4  A    between atoms: S_13  and  C_18 
REMARK    5  A    between atoms: N_14  and  C_19 
ROOT
ATOM      1  C   UNL d   1     -47.520  13.009  22.796  0.00  0.00     0.024 A 
ATOM      2  C   UNL d   1     -47.157  13.678  22.476  0.00  0.00     0.004 A 
ATOM      3  C   UNL d   1     -47.079  12.379  23.064  0.00  0.00     0.004 A 
ATOM      4  C   UNL d   1     -45.879  13.062  22.701  0.00  0.00     0.085 A 
ATOM      5  C   UNL d   1     -46.255  12.405  23.016  0.00  0.00     0.019 A 
ATOM      6  C   UNL d   1     -46.332  13.704  22.428  0.00  0.00     0.019 A 
ENDROOT
BRANCH   4   7
ATOM      7  N   UNL d   1     -45.056  13.077  22.658  0.00  0.00    -0.208 NA
ATOM      8  C   UNL d   1     -44.680  12.854  21.958  0.00  0.00     0.286 C 
ATOM      9  O   UNL d   1     -45.125  12.620  21.309  0.00  0.00    -0.265 OA
BRANCH   8  10
ATOM     10  C   UNL d   1     -43.856  12.867  21.911  0.00  0.00     0.100 C 
BRANCH  10  11
ATOM     11  S   UNL d   1     -43.489  13.094  21.205  0.00  0.00    -0.054 SA
BRANCH  11  12
ATOM     12  C   UNL d   1     -42.688  13.299  21.201  0.00  0.00     0.164 A 
ATOM     13  S   UNL d   1     -42.355  13.930  20.795  0.00  0.00    -0.039 SA
ATOM     14  C   UNL d   1     -41.539  13.927  20.948  0.00  0.00     0.134 A 
ATOM     15  C   UNL d   1     -40.985  14.468  20.649  0.00  0.00     0.030 C 
ATOM     16  N   UNL d   1     -41.374  13.291  21.449  0.00  0.00    -0.140 NA
ATOM     17  N   UNL d   1     -42.085  12.900  21.607  0.00  0.00    -0.134 NA
ENDBRANCH  11  12
ENDBRANCH  10  11
ENDBRANCH   8  10
ENDBRANCH   4   7
BRANCH   1  18
ATOM     18  C   UNL d   1     -48.357  12.975  22.848  0.00  0.00     0.111 A 
ATOM     19  N   UNL d   1     -48.794  13.438  23.365  0.00  0.00    -0.239 NA
ATOM     20  C   UNL d   1     -49.589  13.254  23.260  0.00  0.00     0.088 A 
ATOM     21  C   UNL d   1     -50.273  13.534  23.616  0.00  0.00     0.020 A 
ATOM     22  C   UNL d   1     -49.639  12.675  22.674  0.00  0.00     0.049 A 
ATOM     23  C   UNL d   1     -51.007  13.245  23.397  0.00  0.00     0.002 A 
ATOM     24  C   UNL d   1     -51.064  12.666  22.813  0.00  0.00     0.001 A 
ATOM     25  C   UNL d   1     -50.372  12.383  22.452  0.00  0.00     0.008 A 
ATOM     26  S   UNL d   1     -48.878  12.504  22.421  0.00  0.00    -0.066 SA
ENDBRANCH   1  18
TORSDOF 5
ENDMDL
MODEL 2
REMARK VINA RESULT:      -3.8      2.097      7.852
REMARK  5 active torsions:
REMARK  status: ('A' for Active; 'I' for Inactive)
REMARK    1  A    between atoms: C_11  and  C_1 
REMARK    2  A    between atoms: C_5  and  S_13 
REMARK       I    between atoms: C_12  and  N_14 
REMARK    3  A    between atoms: C_18  and  C_12 
REMARK    4  A    between atoms: S_13  and  C_18 
REMARK    5  A    between atoms: N_14  and  C_19 
ROOT
ATOM      1  C   UNL d   1     -40.801  14.489  20.202  0.00  0.00     0.024 A 
ATOM      2  C   UNL d   1     -40.835  13.670  20.298  0.00  0.00     0.004 A 
ATOM      3  C   UNL d   1     -41.333  14.979  20.576  0.00  0.00     0.004 A 
ATOM      4  C   UNL d   1     -41.966  13.843  21.167  0.00  0.00     0.085 A 
ATOM      5  C   UNL d   1     -41.918  14.655  21.061  0.00  0.00     0.019 A 
ATOM      6  C   UNL d   1     -41.421  13.346  20.783  0.00  0.00     0.019 A 
ENDROOT
BRANCH   4   7
ATOM      7  N   UNL d   1     -42.555  13.531  21.653  0.00  0.00    -0.208 NA
ATOM      8  C   UNL d   1     -43.154  13.071  21.323  0.00  0.00     0.286 C 
ATOM      9  O   UNL d   1     -43.163  12.925  20.515  0.00  0.00    -0.265 OA
BRANCH   8  10
ATOM     10  C   UNL d   1     -43.745  12.757  21.805  0.00  0.00     0.100 C 
BRANCH  10  11
ATOM     11  S   UNL d   1     -44.540  12.917  21.638  0.00  0.00    -0.054 SA
BRANCH  11  12
ATOM     12  C   UNL d   1     -45.116  12.815  22.223  0.00  0.00     0.164 A 
ATOM     13  S   UNL d   1     -45.820  13.231  22.280  0.00  0.00    -0.039 SA
ATOM     14  C   UNL d   1     -46.227  12.950  22.947  0.00  0.00     0.134 A 
ATOM     15  C   UNL d   1     -46.966  13.215  23.216  0.00  0.00     0.030 C 
ATOM     16  N   UNL d   1     -45.766  12.360  23.298  0.00  0.00    -0.140 NA
ATOM     17  N   UNL d   1     -45.077  12.274  22.851  0.00  0.00    -0.134 NA
ENDBRANCH  11  12
ENDBRANCH  10  11
ENDBRANCH   8  10
ENDBRANCH   4   7
BRANCH   1  18
ATOM     18  C   UNL d   1     -40.209  14.826  19.711  0.00  0.00     0.111 A 
ATOM     19  N   UNL d   1     -40.323  14.984  18.915  0.00  0.00    -0.239 NA
ATOM     20  C   UNL d   1     -39.628  15.309  18.619  0.00  0.00     0.088 A 
ATOM     21  C   UNL d   1     -39.416  15.574  17.871  0.00  0.00     0.020 A 
ATOM     22  C   UNL d   1     -39.085  15.350  19.239  0.00  0.00     0.049 A 
ATOM     23  C   UNL d   1     -38.669  15.878  17.733  0.00  0.00     0.002 A 
ATOM     24  C   UNL d   1     -38.120  15.922  18.347  0.00  0.00     0.001 A 
ATOM     25  C   UNL d   1     -38.336  15.654  19.104  0.00  0.00     0.008 A 
ATOM     26  S   UNL d   1     -39.446  15.051  19.911  0.00  0.00    -0.066 SA
ENDBRANCH   1  18
TORSDOF 5
ENDMDL
MODEL 3
REMARK VINA RESULT:      -3.4      1.604      7.269
REMARK  5 active torsions:
REMARK  status: ('A' for Active; 'I' for Inactive)
REMARK    1  A    between atoms: C_11  and  C_1 
REMARK    2  A    between atoms: C_5  and  S_13 
REMARK       I    between atoms: C_12  and  N_14 
REMARK    3  A    between atoms: C_18  and  C_12 
REMARK    4  A    between atoms: S_13  and  C_18 
REMARK    5  A    between atoms: N_14  and  C_19 
ROOT
ATOM      1  C   UNL d   1     -41.826  13.665  20.776  0.00  0.00     0.024 A 
ATOM      2  C   UNL d   1     -42.515  13.578  20.331  0.00  0.00     0.004 A 
ATOM      3  C   UNL d   1     -41.777  13.375  21.535  0.00  0.00     0.004 A 
ATOM      4  C   UNL d   1     -43.117  12.891  21.439  0.00  0.00     0.085 A 
ATOM      5  C   UNL d   1     -42.425  12.986  21.869  0.00  0.00     0.019 A 
ATOM      6  C   UNL d   1     -43.164  13.189  20.665  0.00  0.00     0.019 A 
ENDROOT
BRANCH   4   7
ATOM      7  N   UNL d   1     -43.757  12.501  21.783  0.00  0.00    -0.208 NA
ATOM      8  C   UNL d   1     -44.432  12.929  21.989  0.00  0.00     0.286 C 
ATOM      9  O   UNL d   1     -44.464  13.738  21.851  0.00  0.00    -0.265 OA
BRANCH   8  10
ATOM     10  C   UNL d   1     -45.075  12.543  22.333  0.00  0.00     0.100 C 
BRANCH  10  11
ATOM     11  S   UNL d   1     -45.695  12.986  22.656  0.00  0.00    -0.054 SA
BRANCH  11  12
ATOM     12  C   UNL d   1     -46.356  12.604  22.975  0.00  0.00     0.164 A 
ATOM     13  S   UNL d   1     -47.138  12.766  22.793  0.00  0.00    -0.039 SA
ATOM     14  C   UNL d   1     -47.614  12.254  23.240  0.00  0.00     0.134 A 
ATOM     15  C   UNL d   1     -48.444  12.224  23.231  0.00  0.00     0.030 C 
ATOM     16  N   UNL d   1     -47.117  11.777  23.697  0.00  0.00    -0.140 NA
ATOM     17  N   UNL d   1     -46.336  11.992  23.535  0.00  0.00    -0.134 NA
ENDBRANCH  11  12
ENDBRANCH  10  11
ENDBRANCH   8  10
ENDBRANCH   4   7
BRANCH   1  18
ATOM     18  C   UNL d   1     -41.164  14.059  20.444  0.00  0.00     0.111 A 
ATOM     19  N   UNL d   1     -40.968  14.017  19.649  0.00  0.00    -0.239 NA
ATOM     20  C   UNL d   1     -40.292  14.469  19.530  0.00  0.00     0.088 A 
ATOM     21  C   UNL d   1     -39.846  14.632  18.860  0.00  0.00     0.020 A 
ATOM     22  C   UNL d   1     -40.072  14.791  20.257  0.00  0.00     0.049 A 
ATOM     23  C   UNL d   1     -39.184  15.112  18.905  0.00  0.00     0.002 A 
ATOM     24  C   UNL d   1     -38.959  15.437  19.628  0.00  0.00     0.001 A 
ATOM     25  C   UNL d   1     -39.410  15.272  20.306  0.00  0.00     0.008 A 
ATOM     26  S   UNL d   1     -40.612  14.537  20.820  0.00  0.00    -0.066 SA
ENDBRANCH   1  18
TORSDOF 5
ENDMDL
MODEL 4
REMARK VINA RESULT:      -3.3      1.610      2.625
REMARK  5 active torsions:
REMARK  status: ('A' for Active; 'I' for Inactive)
REMARK    1  A    between atoms: C_11  and  C_1 
REMARK    2  A    between atoms: C_5  and  S_13 
REMARK       I    between atoms: C_12  and  N_14 
REMARK    3  A    between atoms: C_18  and  C_12 
REMARK    4  A    between atoms: S_13  and  C_18 
REMARK    5  A    between atoms: N_14  and  C_19 
ROOT
ATOM      1  C   UNL d   1     -45.096  12.657  22.289  0.00  0.00     0.024 A 
ATOM      2  C   UNL d   1     -44.902  13.226  21.724  0.00  0.00     0.004 A 
ATOM      3  C   UNL d   1     -44.539  12.129  22.562  0.00  0.00     0.004 A 
ATOM      4  C   UNL d   1     -43.558  12.720  21.709  0.00  0.00     0.085 A 
ATOM      5  C   UNL d   1     -43.767  12.160  22.271  0.00  0.00     0.019 A 
ATOM      6  C   UNL d   1     -44.129  13.257  21.432  0.00  0.00     0.019 A 
ENDROOT
BRANCH   4   7
ATOM      7  N   UNL d   1     -42.784  12.741  21.425  0.00  0.00    -0.208 NA
ATOM      8  C   UNL d   1     -42.421  13.469  21.287  0.00  0.00     0.286 C 
ATOM      9  O   UNL d   1     -42.829  14.166  21.431  0.00  0.00    -0.265 OA
BRANCH   8  10
ATOM     10  C   UNL d   1     -41.646  13.495  21.003  0.00  0.00     0.100 C 
BRANCH  10  11
ATOM     11  S   UNL d   1     -41.261  14.224  20.928  0.00  0.00    -0.054 SA
BRANCH  11  12
ATOM     12  C   UNL d   1     -40.488  14.256  20.636  0.00  0.00     0.164 A 
ATOM     13  S   UNL d   1     -40.259  14.586  19.921  0.00  0.00    -0.039 SA
ATOM     14  C   UNL d   1     -39.436  14.497  19.853  0.00  0.00     0.134 A 
ATOM     15  C   UNL d   1     -38.968  14.751  19.216  0.00  0.00     0.030 C 
ATOM     16  N   UNL d   1     -39.164  14.110  20.531  0.00  0.00    -0.140 NA
ATOM     17  N   UNL d   1     -39.814  13.960  21.018  0.00  0.00    -0.134 NA
ENDBRANCH  11  12
ENDBRANCH  10  11
ENDBRANCH   8  10
ENDBRANCH   4   7
BRANCH   1  18
ATOM     18  C   UNL d   1     -45.878  12.619  22.590  0.00  0.00     0.111 A 
ATOM     19  N   UNL d   1     -46.191  11.950  22.945  0.00  0.00    -0.239 NA
ATOM     20  C   UNL d   1     -46.964  12.119  23.168  0.00  0.00     0.088 A 
ATOM     21  C   UNL d   1     -47.542  11.671  23.541  0.00  0.00     0.020 A 
ATOM     22  C   UNL d   1     -47.126  12.898  22.948  0.00  0.00     0.049 A 
ATOM     23  C   UNL d   1     -48.280  11.989  23.698  0.00  0.00     0.002 A 
ATOM     24  C   UNL d   1     -48.449  12.766  23.481  0.00  0.00     0.001 A 
ATOM     25  C   UNL d   1     -47.864  13.219  23.104  0.00  0.00     0.008 A 
ATOM     26  S   UNL d   1     -46.455  13.205  22.592  0.00  0.00    -0.066 SA
ENDBRANCH   1  18
TORSDOF 5
ENDMDL
MODEL 5
REMARK VINA RESULT:      -2.8      7.858     10.235
REMARK  5 active torsions:
REMARK  status: ('A' for Active; 'I' for Inactive)
REMARK    1  A    between atoms: C_11  and  C_1 
REMARK    2  A    between atoms: C_5  and  S_13 
REMARK       I    between atoms: C_12  and  N_14 
REMARK    3  A    between atoms: C_18  and  C_12 
REMARK    4  A    between atoms: S_13  and  C_18 
REMARK    5  A    between atoms: N_14  and  C_19 
ROOT
ATOM      1  C   UNL d   1     -38.387  14.597  16.843  0.00  0.00     0.024 A 
ATOM      2  C   UNL d   1     -38.939  15.189  17.001  0.00  0.00     0.004 A 
ATOM      3  C   UNL d   1     -37.940  14.270  17.441  0.00  0.00     0.004 A 
ATOM      4  C   UNL d   1     -38.583  15.120  18.390  0.00  0.00     0.085 A 
ATOM      5  C   UNL d   1     -38.038  14.532  18.217  0.00  0.00     0.019 A 
ATOM      6  C   UNL d   1     -39.038  15.451  17.778  0.00  0.00     0.019 A 
ENDROOT
BRANCH   4   7
ATOM      7  N   UNL d   1     -38.673  15.373  19.170  0.00  0.00    -0.208 NA
ATOM      8  C   UNL d   1     -39.162  14.950  19.682  0.00  0.00     0.286 C 
ATOM      9  O   UNL d   1     -39.556  14.281  19.416  0.00  0.00    -0.265 OA
BRANCH   8  10
ATOM     10  C   UNL d   1     -39.254  15.200  20.463  0.00  0.00     0.100 C 
BRANCH  10  11
ATOM     11  S   UNL d   1     -39.543  14.672  21.032  0.00  0.00    -0.054 SA
BRANCH  11  12
ATOM     12  C   UNL d   1     -39.247  14.692  21.804  0.00  0.00     0.164 A 
ATOM     13  S   UNL d   1     -39.124  15.366  22.254  0.00  0.00    -0.039 SA
ATOM     14  C   UNL d   1     -38.823  15.128  22.990  0.00  0.00     0.134 A 
ATOM     15  C   UNL d   1     -38.618  15.629  23.619  0.00  0.00     0.030 C 
ATOM     16  N   UNL d   1     -38.763  14.303  22.988  0.00  0.00    -0.140 NA
ATOM     17  N   UNL d   1     -39.025  14.031  22.253  0.00  0.00    -0.134 NA
ENDBRANCH  11  12
ENDBRANCH  10  11
ENDBRANCH   8  10
ENDBRANCH   4   7
BRANCH   1  18
ATOM     18  C   UNL d   1     -38.281  14.325  16.056  0.00  0.00     0.111 A 
ATOM     19  N   UNL d   1     -38.218  14.828  15.412  0.00  0.00    -0.239 NA
ATOM     20  C   UNL d   1     -38.120  14.366  14.739  0.00  0.00     0.088 A 
ATOM     21  C   UNL d   1     -38.028  14.558  13.946  0.00  0.00     0.020 A 
ATOM     22  C   UNL d   1     -38.123  13.575  14.973  0.00  0.00     0.049 A 
ATOM     23  C   UNL d   1     -37.940  13.970  13.382  0.00  0.00     0.002 A 
ATOM     24  C   UNL d   1     -37.941  13.178  13.608  0.00  0.00     0.001 A 
ATOM     25  C   UNL d   1     -38.034  12.984  14.411  0.00  0.00     0.008 A 
ATOM     26  S   UNL d   1     -38.222  13.552  15.786  0.00  0.00    -0.066 SA
ENDBRANCH   1  18
TORSDOF 5
ENDMDL
MODEL 6
REMARK VINA RESULT:      -2.2      3.365      8.871
REMARK  5 active torsions:
REMARK  status: ('A' for Active; 'I' for Inactive)
REMARK    1  A    between atoms: C_11  and  C_1 
REMARK    2  A    between atoms: C_5  and  S_13 
REMARK       I    between atoms: C_12  and  N_14 
REMARK    3  A    between atoms: C_18  and  C_12 
REMARK    4  A    between atoms: S_13  and  C_18 
REMARK    5  A    between atoms: N_14  and  C_19 
ROOT
ATOM      1  C   UNL d   1     -39.833  14.714  18.269  0.00  0.00     0.024 A 
ATOM      2  C   UNL d   1     -39.447  14.627  18.993  0.00  0.00     0.004 A 
ATOM      3  C   UNL d   1     -40.645  14.691  18.220  0.00  0.00     0.004 A 
ATOM      4  C   UNL d   1     -40.726  14.489  19.631  0.00  0.00     0.085 A 
ATOM      5  C   UNL d   1     -41.094  14.578  18.904  0.00  0.00     0.019 A 
ATOM      6  C   UNL d   1     -39.897  14.514  19.677  0.00  0.00     0.019 A 
ENDROOT
BRANCH   4   7
ATOM      7  N   UNL d   1     -41.185  14.377  20.307  0.00  0.00    -0.208 NA
ATOM      8  C   UNL d   1     -41.737  13.764  20.327  0.00  0.00     0.286 C 
ATOM      9  O   UNL d   1     -41.827  13.269  19.677  0.00  0.00    -0.265 OA
BRANCH   8  10
ATOM     10  C   UNL d   1     -42.199  13.647  21.001  0.00  0.00     0.100 C 
BRANCH  10  11
ATOM     11  S   UNL d   1     -42.412  12.879  21.226  0.00  0.00    -0.054 SA
BRANCH  11  12
ATOM     12  C   UNL d   1     -43.143  12.740  21.586  0.00  0.00     0.164 A 
ATOM     13  S   UNL d   1     -43.797  13.232  21.549  0.00  0.00    -0.039 SA
ATOM     14  C   UNL d   1     -44.406  12.878  21.988  0.00  0.00     0.134 A 
ATOM     15  C   UNL d   1     -45.169  13.184  22.101  0.00  0.00     0.030 C 
ATOM     16  N   UNL d   1     -44.120  12.165  22.294  0.00  0.00    -0.140 NA
ATOM     17  N   UNL d   1     -43.336  12.078  22.046  0.00  0.00    -0.134 NA
ENDBRANCH  11  12
ENDBRANCH  10  11
ENDBRANCH   8  10
ENDBRANCH   4   7
BRANCH   1  18
ATOM     18  C   UNL d   1     -39.383  14.829  17.569  0.00  0.00     0.111 A 
ATOM     19  N   UNL d   1     -39.122  14.213  17.097  0.00  0.00    -0.239 NA
ATOM     20  C   UNL d   1     -38.704  14.535  16.466  0.00  0.00     0.088 A 
ATOM     21  C   UNL d   1     -38.320  14.195  15.826  0.00  0.00     0.020 A 
ATOM     22  C   UNL d   1     -38.709  15.356  16.554  0.00  0.00     0.049 A 
ATOM     23  C   UNL d   1     -37.940  14.663  15.271  0.00  0.00     0.002 A 
ATOM     24  C   UNL d   1     -37.941  15.483  15.352  0.00  0.00     0.001 A 
ATOM     25  C   UNL d   1     -38.330  15.827  16.000  0.00  0.00     0.008 A 
ATOM     26  S   UNL d   1     -39.129  15.535  17.235  0.00  0.00    -0.066 SA
ENDBRANCH   1  18
TORSDOF 5
ENDMDL
