MODEL 1
REMARK VINA RESULT:      -6.2      0.000      0.000
REMARK  4 active torsions:
REMARK  status: ('A' for Active; 'I' for Inactive)
REMARK    1  A    between atoms: S_6  and  C_1 
REMARK    2  A    between atoms: C_9  and  N_2 
REMARK    3  A    between atoms: C_15  and  S_6 
REMARK    4  A    between atoms: C_14  and  C_9 
ROOT
ATOM      1  C   UNL d   1     -39.169  14.555  19.619  0.00  0.00     0.145 A 
ATOM      2  N   UNL d   1     -39.357  15.228  18.493  0.00  0.00    -0.270 N 
ATOM      3  C   UNL d   1     -38.931  14.068  18.994  0.00  0.00     0.130 A 
ATOM      4  C   UNL d   1     -39.433  15.272  19.311  0.00  0.00     0.183 A 
ATOM      5  C   UNL d   1     -39.047  14.487  18.292  0.00  0.00     0.168 A 
ATOM      6  N   UNL d   1     -38.625  13.303  18.972  0.00  0.00    -0.240 NA
ATOM      7  N   UNL d   1     -38.858  14.142  17.569  0.00  0.00    -0.225 NA
ATOM      8  C   UNL d   1     -38.435  12.958  18.249  0.00  0.00     0.099 A 
ATOM      9  C   UNL d   1     -38.552  13.377  17.547  0.00  0.00     0.101 A 
ATOM     10  N   UNL d   1     -39.721  15.920  19.732  0.00  0.00    -0.128 N 
ATOM     11  C   UNL d   1     -38.129  12.193  18.227  0.00  0.00     0.021 A 
ATOM     12  C   UNL d   1     -38.363  13.032  16.823  0.00  0.00     0.021 A 
ATOM     13  C   UNL d   1     -38.057  12.267  16.801  0.00  0.00     0.002 A 
ATOM     14  C   UNL d   1     -37.940  11.848  17.503  0.00  0.00     0.002 A 
ENDROOT
BRANCH   1  15
ATOM     15  S   UNL d   1     -39.145  14.349  20.420  0.00  0.00     0.214 S 
ATOM     16  O   UNL d   1     -38.409  14.677  20.253  0.00  0.00    -0.217 OA
ATOM     17  O   UNL d   1     -39.885  14.020  20.586  0.00  0.00    -0.217 OA
BRANCH  15  18
ATOM     18  C   UNL d   1     -39.106  14.150  21.217  0.00  0.00     0.088 A 
ATOM     19  C   UNL d   1     -38.356  14.258  21.550  0.00  0.00     0.011 A 
ATOM     20  C   UNL d   1     -38.233  14.079  22.352  0.00  0.00     0.001 A 
ATOM     21  C   UNL d   1     -38.856  13.795  22.815  0.00  0.00     0.000 A 
ATOM     22  C   UNL d   1     -39.603  13.689  22.480  0.00  0.00     0.001 A 
ATOM     23  C   UNL d   1     -39.730  13.866  21.680  0.00  0.00     0.011 A 
ENDBRANCH  15  18
ENDBRANCH   1  15
BRANCH   2  24
ATOM     24  C   UNL d   1     -39.555  15.823  17.954  0.00  0.00     0.108 C 
BRANCH  24  25
ATOM     25  C   UNL d   1     -40.304  15.841  17.620  0.00  0.00     0.118 A 
ATOM     26  O   UNL d   1     -41.011  15.796  18.027  0.00  0.00    -0.304 OA
ATOM     27  C   UNL d   1     -41.630  15.834  17.477  0.00  0.00     0.123 A 
ATOM     28  C   UNL d   1     -41.296  15.902  16.733  0.00  0.00     0.029 A 
ATOM     29  C   UNL d   1     -40.477  15.906  16.825  0.00  0.00     0.028 A 
ENDBRANCH  24  25
ENDBRANCH   2  24
TORSDOF 4
ENDMDL
MODEL 2
REMARK VINA RESULT:      -4.7      8.349      9.649
REMARK  4 active torsions:
REMARK  status: ('A' for Active; 'I' for Inactive)
REMARK    1  A    between atoms: S_6  and  C_1 
REMARK    2  A    between atoms: C_9  and  N_2 
REMARK    3  A    between atoms: C_15  and  S_6 
REMARK    4  A    between atoms: C_14  and  C_9 
ROOT
ATOM      1  C   UNL d   1     -47.011  13.485  22.839  0.00  0.00     0.145 A 
ATOM      2  N   UNL d   1     -48.034  14.259  23.172  0.00  0.00    -0.270 N 
ATOM      3  C   UNL d   1     -47.647  12.990  23.030  0.00  0.00     0.130 A 
ATOM      4  C   UNL d   1     -47.249  14.268  22.927  0.00  0.00     0.183 A 
ATOM      5  C   UNL d   1     -48.284  13.473  23.237  0.00  0.00     0.168 A 
ATOM      6  N   UNL d   1     -47.728  12.171  23.041  0.00  0.00    -0.240 NA
ATOM      7  N   UNL d   1     -49.003  13.135  23.456  0.00  0.00    -0.225 NA
ATOM      8  C   UNL d   1     -48.447  11.833  23.260  0.00  0.00     0.099 A 
ATOM      9  C   UNL d   1     -49.085  12.315  23.467  0.00  0.00     0.101 A 
ATOM     10  N   UNL d   1     -46.796  14.945  22.797  0.00  0.00    -0.128 N 
ATOM     11  C   UNL d   1     -48.528  11.013  23.272  0.00  0.00     0.021 A 
ATOM     12  C   UNL d   1     -49.804  11.978  23.686  0.00  0.00     0.021 A 
ATOM     13  C   UNL d   1     -49.885  11.158  23.698  0.00  0.00     0.002 A 
ATOM     14  C   UNL d   1     -49.247  10.676  23.491  0.00  0.00     0.002 A 
ENDROOT
BRANCH   1  15
ATOM     15  S   UNL d   1     -46.262  13.228  22.601  0.00  0.00     0.214 S 
ATOM     16  O   UNL d   1     -46.189  13.410  23.399  0.00  0.00    -0.217 OA
ATOM     17  O   UNL d   1     -46.337  13.045  21.798  0.00  0.00    -0.217 OA
BRANCH  15  18
ATOM     18  C   UNL d   1     -45.511  12.974  22.378  0.00  0.00     0.088 A 
ATOM     19  C   UNL d   1     -45.265  12.286  22.768  0.00  0.00     0.011 A 
ATOM     20  C   UNL d   1     -44.518  11.964  22.599  0.00  0.00     0.001 A 
ATOM     21  C   UNL d   1     -44.024  12.327  22.045  0.00  0.00     0.000 A 
ATOM     22  C   UNL d   1     -44.273  13.013  21.658  0.00  0.00     0.001 A 
ATOM     23  C   UNL d   1     -45.017  13.338  21.824  0.00  0.00     0.011 A 
ENDBRANCH  15  18
ENDBRANCH   1  15
BRANCH   2  24
ATOM     24  C   UNL d   1     -48.502  14.922  23.329  0.00  0.00     0.108 C 
BRANCH  24  25
ATOM     25  C   UNL d   1     -49.084  15.149  22.797  0.00  0.00     0.118 A 
ATOM     26  O   UNL d   1     -48.995  15.207  21.987  0.00  0.00    -0.304 OA
ATOM     27  C   UNL d   1     -49.717  15.454  21.663  0.00  0.00     0.123 A 
ATOM     28  C   UNL d   1     -50.246  15.545  22.282  0.00  0.00     0.029 A 
ATOM     29  C   UNL d   1     -49.851  15.356  22.980  0.00  0.00     0.028 A 
ENDBRANCH  24  25
ENDBRANCH   2  24
TORSDOF 4
ENDMDL
MODEL 3
REMARK VINA RESULT:      -3.4      8.603     10.065
REMARK  4 active torsions:
REMARK  status: ('A' for Active; 'I' for Inactive)
REMARK    1  A    between atoms: S_6  and  C_1 
REMARK    2  A    between atoms: C_9  and  N_2 
REMARK    3  A    between atoms: C_15  and  S_6 
REMARK    4  A    between atoms: C_14  and  C_9 
ROOT
ATOM      1  C   UNL d   1     -48.151  14.167  22.876  0.00  0.00     0.145 A 
ATOM      2  N   UNL d   1     -46.856  13.882  22.900  0.00  0.00    -0.270 N 
ATOM      3  C   UNL d   1     -48.075  13.363  23.054  0.00  0.00     0.130 A 
ATOM      4  C   UNL d   1     -47.399  14.489  22.780  0.00  0.00     0.183 A 
ATOM      5  C   UNL d   1     -47.269  13.185  23.069  0.00  0.00     0.168 A 
ATOM      6  N   UNL d   1     -48.631  12.773  23.204  0.00  0.00    -0.240 NA
ATOM      7  N   UNL d   1     -47.018  12.418  23.234  0.00  0.00    -0.225 NA
ATOM      8  C   UNL d   1     -48.380  12.006  23.368  0.00  0.00     0.099 A 
ATOM      9  C   UNL d   1     -47.574  11.828  23.384  0.00  0.00     0.101 A 
ATOM     10  N   UNL d   1     -47.210  15.272  22.599  0.00  0.00    -0.128 N 
ATOM     11  C   UNL d   1     -48.936  11.416  23.518  0.00  0.00     0.021 A 
ATOM     12  C   UNL d   1     -47.323  11.061  23.548  0.00  0.00     0.021 A 
ATOM     13  C   UNL d   1     -47.879  10.471  23.698  0.00  0.00     0.002 A 
ATOM     14  C   UNL d   1     -48.685  10.648  23.683  0.00  0.00     0.002 A 
ENDROOT
BRANCH   1  15
ATOM     15  S   UNL d   1     -48.867  14.575  22.806  0.00  0.00     0.214 S 
ATOM     16  O   UNL d   1     -48.608  14.712  23.575  0.00  0.00    -0.217 OA
ATOM     17  O   UNL d   1     -49.125  14.436  22.033  0.00  0.00    -0.217 OA
BRANCH  15  18
ATOM     18  C   UNL d   1     -49.578  14.985  22.751  0.00  0.00     0.088 A 
ATOM     19  C   UNL d   1     -49.806  15.349  23.459  0.00  0.00     0.011 A 
ATOM     20  C   UNL d   1     -50.514  15.783  23.487  0.00  0.00     0.001 A 
ATOM     21  C   UNL d   1     -50.987  15.852  22.814  0.00  0.00     0.000 A 
ATOM     22  C   UNL d   1     -50.756  15.488  22.110  0.00  0.00     0.001 A 
ATOM     23  C   UNL d   1     -50.051  15.054  22.077  0.00  0.00     0.011 A 
ENDBRANCH  15  18
ENDBRANCH   1  15
BRANCH   2  24
ATOM     24  C   UNL d   1     -46.033  13.951  22.859  0.00  0.00     0.108 C 
BRANCH  24  25
ATOM     25  C   UNL d   1     -45.619  13.568  22.264  0.00  0.00     0.118 A 
ATOM     26  O   UNL d   1     -45.920  13.349  21.536  0.00  0.00    -0.304 OA
ATOM     27  C   UNL d   1     -45.315  12.978  21.106  0.00  0.00     0.123 A 
ATOM     28  C   UNL d   1     -44.645  12.972  21.578  0.00  0.00     0.029 A 
ATOM     29  C   UNL d   1     -44.837  13.337  22.291  0.00  0.00     0.028 A 
ENDBRANCH  24  25
ENDBRANCH   2  24
TORSDOF 4
ENDMDL
MODEL 4
REMARK VINA RESULT:      -3.2      8.259      9.739
REMARK  4 active torsions:
REMARK  status: ('A' for Active; 'I' for Inactive)
REMARK    1  A    between atoms: S_6  and  C_1 
REMARK    2  A    between atoms: C_9  and  N_2 
REMARK    3  A    between atoms: C_15  and  S_6 
REMARK    4  A    between atoms: C_14  and  C_9 
ROOT
ATOM      1  C   UNL d   1     -46.848  12.605  22.888  0.00  0.00     0.145 A 
ATOM      2  N   UNL d   1     -48.038  12.272  23.369  0.00  0.00    -0.270 N 
ATOM      3  C   UNL d   1     -47.332  13.274  22.842  0.00  0.00     0.130 A 
ATOM      4  C   UNL d   1     -47.283  11.986  23.213  0.00  0.00     0.183 A 
ATOM      5  C   UNL d   1     -48.074  13.067  23.141  0.00  0.00     0.168 A 
ATOM      6  N   UNL d   1     -47.196  14.040  22.568  0.00  0.00    -0.240 NA
ATOM      7  N   UNL d   1     -48.679  13.626  23.167  0.00  0.00    -0.225 NA
ATOM      8  C   UNL d   1     -47.802  14.598  22.594  0.00  0.00     0.099 A 
ATOM      9  C   UNL d   1     -48.543  14.391  22.894  0.00  0.00     0.101 A 
ATOM     10  N   UNL d   1     -47.023  11.217  23.361  0.00  0.00    -0.128 N 
ATOM     11  C   UNL d   1     -47.665  15.363  22.321  0.00  0.00     0.021 A 
ATOM     12  C   UNL d   1     -49.148  14.949  22.920  0.00  0.00     0.021 A 
ATOM     13  C   UNL d   1     -49.012  15.715  22.647  0.00  0.00     0.002 A 
ATOM     14  C   UNL d   1     -48.271  15.922  22.347  0.00  0.00     0.002 A 
ENDROOT
BRANCH   1  15
ATOM     15  S   UNL d   1     -46.059  12.570  22.646  0.00  0.00     0.214 S 
ATOM     16  O   UNL d   1     -46.035  12.654  23.463  0.00  0.00    -0.217 OA
ATOM     17  O   UNL d   1     -46.084  12.485  21.823  0.00  0.00    -0.217 OA
BRANCH  15  18
ATOM     18  C   UNL d   1     -45.268  12.537  22.418  0.00  0.00     0.088 A 
ATOM     19  C   UNL d   1     -45.063  13.104  21.851  0.00  0.00     0.011 A 
ATOM     20  C   UNL d   1     -44.283  13.137  21.569  0.00  0.00     0.001 A 
ATOM     21  C   UNL d   1     -43.714  12.608  21.851  0.00  0.00     0.000 A 
ATOM     22  C   UNL d   1     -43.923  12.044  22.417  0.00  0.00     0.001 A 
ATOM     23  C   UNL d   1     -44.700  12.007  22.702  0.00  0.00     0.011 A 
ENDBRANCH  15  18
ENDBRANCH   1  15
BRANCH   2  24
ATOM     24  C   UNL d   1     -48.663  11.843  23.698  0.00  0.00     0.108 C 
BRANCH  24  25
ATOM     25  C   UNL d   1     -49.348  11.718  23.264  0.00  0.00     0.118 A 
ATOM     26  O   UNL d   1     -49.383  11.488  22.481  0.00  0.00    -0.304 OA
ATOM     27  C   UNL d   1     -50.181  11.427  22.263  0.00  0.00     0.123 A 
ATOM     28  C   UNL d   1     -50.631  11.621  22.919  0.00  0.00     0.029 A 
ATOM     29  C   UNL d   1     -50.113  11.799  23.535  0.00  0.00     0.028 A 
ENDBRANCH  24  25
ENDBRANCH   2  24
TORSDOF 4
ENDMDL
