MODEL 1
REMARK VINA RESULT:      -8.3      0.000      0.000
REMARK  0 active torsions:
REMARK  status: ('A' for Active; 'I' for Inactive)
ROOT
ATOM      1  C   UNL d   1     -47.259  12.949  23.203  0.00  0.00     0.086 A 
ATOM      2  S   UNL d   1     -47.239  13.732  22.958  0.00  0.00    -0.081 SA
ATOM      3  C   UNL d   1     -48.001  12.553  23.272  0.00  0.00     0.090 A 
ATOM      4  N   UNL d   1     -48.693  12.957  23.095  0.00  0.00    -0.244 NA
ATOM      5  C   UNL d   1     -47.930  14.135  22.781  0.00  0.00     0.047 A 
ATOM      6  C   UNL d   1     -48.656  13.749  22.849  0.00  0.00     0.087 A 
ATOM      7  C   UNL d   1     -46.558  12.530  23.385  0.00  0.00     0.203 A 
ATOM      8  O   UNL d   1     -45.817  12.925  23.316  0.00  0.00    -0.286 OA
ATOM      9  C   UNL d   1     -48.013  11.755  23.522  0.00  0.00     0.020 A 
ATOM     10  C   UNL d   1     -46.579  11.747  23.629  0.00  0.00     0.043 A 
ATOM     11  C   UNL d   1     -47.304  11.361  23.697  0.00  0.00     0.005 A 
ATOM     12  C   UNL d   1     -47.910  14.919  22.537  0.00  0.00     0.008 A 
ATOM     13  C   UNL d   1     -49.352  14.151  22.672  0.00  0.00     0.020 A 
ATOM     14  C   UNL d   1     -48.621  15.311  22.362  0.00  0.00     0.001 A 
ATOM     15  C   UNL d   1     -49.328  14.935  22.428  0.00  0.00     0.002 A 
ENDROOT
TORSDOF 0
ENDMDL
MODEL 2
REMARK VINA RESULT:      -8.3      1.199      2.271
REMARK  0 active torsions:
REMARK  status: ('A' for Active; 'I' for Inactive)
ROOT
ATOM      1  C   UNL d   1     -47.404  12.911  23.231  0.00  0.00     0.086 A 
ATOM      2  S   UNL d   1     -47.791  12.242  23.508  0.00  0.00    -0.081 SA
ATOM      3  C   UNL d   1     -47.848  13.521  22.852  0.00  0.00     0.090 A 
ATOM      4  N   UNL d   1     -48.660  13.437  22.765  0.00  0.00    -0.244 NA
ATOM      5  C   UNL d   1     -48.602  12.159  23.421  0.00  0.00     0.047 A 
ATOM      6  C   UNL d   1     -49.035  12.755  23.051  0.00  0.00     0.087 A 
ATOM      7  C   UNL d   1     -46.577  13.005  23.316  0.00  0.00     0.203 A 
ATOM      8  O   UNL d   1     -46.134  12.396  23.694  0.00  0.00    -0.286 OA
ATOM      9  C   UNL d   1     -47.446  14.200  22.573  0.00  0.00     0.020 A 
ATOM     10  C   UNL d   1     -46.192  13.674  23.039  0.00  0.00     0.043 A 
ATOM     11  C   UNL d   1     -46.625  14.270  22.669  0.00  0.00     0.005 A 
ATOM     12  C   UNL d   1     -48.988  11.489  23.698  0.00  0.00     0.008 A 
ATOM     13  C   UNL d   1     -49.849  12.674  22.962  0.00  0.00     0.020 A 
ATOM     14  C   UNL d   1     -49.810  11.422  23.601  0.00  0.00     0.001 A 
ATOM     15  C   UNL d   1     -50.232  12.002  23.240  0.00  0.00     0.002 A 
ENDROOT
TORSDOF 0
ENDMDL
MODEL 3
REMARK VINA RESULT:      -8.3      1.533      2.475
REMARK  0 active torsions:
REMARK  status: ('A' for Active; 'I' for Inactive)
ROOT
ATOM      1  C   UNL d   1     -48.810  12.310  23.304  0.00  0.00     0.086 A 
ATOM      2  S   UNL d   1     -47.993  12.235  23.340  0.00  0.00    -0.081 SA
ATOM      3  C   UNL d   1     -49.151  13.050  23.086  0.00  0.00     0.090 A 
ATOM      4  N   UNL d   1     -48.661  13.686  22.912  0.00  0.00    -0.244 NA
ATOM      5  C   UNL d   1     -47.505  12.871  23.167  0.00  0.00     0.047 A 
ATOM      6  C   UNL d   1     -47.838  13.594  22.953  0.00  0.00     0.087 A 
ATOM      7  C   UNL d   1     -49.315  11.667  23.480  0.00  0.00     0.203 A 
ATOM      8  O   UNL d   1     -48.975  10.928  23.698  0.00  0.00    -0.286 OA
ATOM      9  C   UNL d   1     -49.984  13.118  23.051  0.00  0.00     0.020 A 
ATOM     10  C   UNL d   1     -50.131  11.742  23.443  0.00  0.00     0.043 A 
ATOM     11  C   UNL d   1     -50.465  12.466  23.230  0.00  0.00     0.005 A 
ATOM     12  C   UNL d   1     -46.688  12.796  23.203  0.00  0.00     0.008 A 
ATOM     13  C   UNL d   1     -47.350  14.234  22.778  0.00  0.00     0.020 A 
ATOM     14  C   UNL d   1     -46.208  13.451  23.024  0.00  0.00     0.001 A 
ATOM     15  C   UNL d   1     -46.533  14.155  22.816  0.00  0.00     0.002 A 
ENDROOT
TORSDOF 0
ENDMDL
MODEL 4
REMARK VINA RESULT:      -7.9      1.307      3.233
REMARK  0 active torsions:
REMARK  status: ('A' for Active; 'I' for Inactive)
ROOT
ATOM      1  C   UNL d   1     -48.758  13.663  22.937  0.00  0.00     0.086 A 
ATOM      2  S   UNL d   1     -48.734  12.877  23.171  0.00  0.00    -0.081 SA
ATOM      3  C   UNL d   1     -48.037  14.092  22.845  0.00  0.00     0.090 A 
ATOM      4  N   UNL d   1     -47.322  13.718  22.992  0.00  0.00    -0.244 NA
ATOM      5  C   UNL d   1     -48.019  12.504  23.318  0.00  0.00     0.047 A 
ATOM      6  C   UNL d   1     -47.314  12.923  23.229  0.00  0.00     0.087 A 
ATOM      7  C   UNL d   1     -49.483  14.052  22.785  0.00  0.00     0.203 A 
ATOM      8  O   UNL d   1     -50.203  13.623  22.876  0.00  0.00    -0.286 OA
ATOM      9  C   UNL d   1     -48.071  14.893  22.606  0.00  0.00     0.020 A 
ATOM     10  C   UNL d   1     -49.507  14.837  22.550  0.00  0.00     0.043 A 
ATOM     11  C   UNL d   1     -48.802  15.257  22.461  0.00  0.00     0.005 A 
ATOM     12  C   UNL d   1     -47.995  11.717  23.553  0.00  0.00     0.008 A 
ATOM     13  C   UNL d   1     -46.595  12.551  23.375  0.00  0.00     0.020 A 
ATOM     14  C   UNL d   1     -47.261  11.355  23.697  0.00  0.00     0.001 A 
ATOM     15  C   UNL d   1     -46.575  11.764  23.610  0.00  0.00     0.002 A 
ENDROOT
TORSDOF 0
ENDMDL
MODEL 5
REMARK VINA RESULT:      -7.7      1.637      3.039
REMARK  0 active torsions:
REMARK  status: ('A' for Active; 'I' for Inactive)
ROOT
ATOM      1  C   UNL d   1     -49.211  12.828  23.070  0.00  0.00     0.086 A 
ATOM      2  S   UNL d   1     -48.425  13.063  23.069  0.00  0.00    -0.081 SA
ATOM      3  C   UNL d   1     -49.409  12.036  23.288  0.00  0.00     0.090 A 
ATOM      4  N   UNL d   1     -48.812  11.512  23.495  0.00  0.00    -0.244 NA
ATOM      5  C   UNL d   1     -47.829  12.539  23.276  0.00  0.00     0.047 A 
ATOM      6  C   UNL d   1     -48.022  11.765  23.488  0.00  0.00     0.087 A 
ATOM      7  C   UNL d   1     -49.825  13.355  22.861  0.00  0.00     0.203 A 
ATOM      8  O   UNL d   1     -49.628  14.146  22.644  0.00  0.00    -0.286 OA
ATOM      9  C   UNL d   1     -50.213  11.805  23.286  0.00  0.00     0.020 A 
ATOM     10  C   UNL d   1     -50.611  13.120  22.862  0.00  0.00     0.043 A 
ATOM     11  C   UNL d   1     -50.804  12.346  23.075  0.00  0.00     0.005 A 
ATOM     12  C   UNL d   1     -47.042  12.774  23.275  0.00  0.00     0.008 A 
ATOM     13  C   UNL d   1     -47.426  11.237  23.696  0.00  0.00     0.020 A 
ATOM     14  C   UNL d   1     -46.452  12.229  23.487  0.00  0.00     0.001 A 
ATOM     15  C   UNL d   1     -46.640  11.477  23.694  0.00  0.00     0.002 A 
ENDROOT
TORSDOF 0
ENDMDL
MODEL 6
REMARK VINA RESULT:      -6.2      8.102      8.892
REMARK  0 active torsions:
REMARK  status: ('A' for Active; 'I' for Inactive)
ROOT
ATOM      1  C   UNL d   1     -40.367  14.777  18.416  0.00  0.00     0.086 A 
ATOM      2  S   UNL d   1     -40.194  14.414  19.131  0.00  0.00    -0.081 SA
ATOM      3  C   UNL d   1     -40.715  15.547  18.413  0.00  0.00     0.090 A 
ATOM      4  N   UNL d   1     -40.874  15.921  19.126  0.00  0.00    -0.244 NA
ATOM      5  C   UNL d   1     -40.353  14.788  19.842  0.00  0.00     0.047 A 
ATOM      6  C   UNL d   1     -40.693  15.540  19.840  0.00  0.00     0.087 A 
ATOM      7  C   UNL d   1     -40.208  14.403  17.685  0.00  0.00     0.203 A 
ATOM      8  O   UNL d   1     -39.861  13.634  17.687  0.00  0.00    -0.286 OA
ATOM      9  C   UNL d   1     -40.888  15.910  17.680  0.00  0.00     0.020 A 
ATOM     10  C   UNL d   1     -40.382  14.767  16.971  0.00  0.00     0.043 A 
ATOM     11  C   UNL d   1     -40.721  15.519  16.968  0.00  0.00     0.005 A 
ATOM     12  C   UNL d   1     -40.180  14.424  20.557  0.00  0.00     0.008 A 
ATOM     13  C   UNL d   1     -40.854  15.918  20.553  0.00  0.00     0.020 A 
ATOM     14  C   UNL d   1     -40.348  14.819  21.269  0.00  0.00     0.001 A 
ATOM     15  C   UNL d   1     -40.679  15.551  21.267  0.00  0.00     0.002 A 
ENDROOT
TORSDOF 0
ENDMDL
MODEL 7
REMARK VINA RESULT:      -5.7      8.183      8.849
REMARK  0 active torsions:
REMARK  status: ('A' for Active; 'I' for Inactive)
ROOT
ATOM      1  C   UNL d   1     -40.084  14.936  19.805  0.00  0.00     0.086 A 
ATOM      2  S   UNL d   1     -39.837  14.590  19.102  0.00  0.00    -0.081 SA
ATOM      3  C   UNL d   1     -40.636  15.574  19.784  0.00  0.00     0.090 A 
ATOM      4  N   UNL d   1     -40.920  15.841  19.061  0.00  0.00    -0.244 NA
ATOM      5  C   UNL d   1     -40.121  14.857  18.381  0.00  0.00     0.047 A 
ATOM      6  C   UNL d   1     -40.661  15.481  18.360  0.00  0.00     0.087 A 
ATOM      7  C   UNL d   1     -39.800  14.670  20.546  0.00  0.00     0.203 A 
ATOM      8  O   UNL d   1     -39.248  14.033  20.567  0.00  0.00    -0.286 OA
ATOM      9  C   UNL d   1     -40.882  15.921  20.505  0.00  0.00     0.020 A 
ATOM     10  C   UNL d   1     -40.046  15.016  21.247  0.00  0.00     0.043 A 
ATOM     11  C   UNL d   1     -40.586  15.640  21.227  0.00  0.00     0.005 A 
ATOM     12  C   UNL d   1     -39.875  14.511  17.678  0.00  0.00     0.008 A 
ATOM     13  C   UNL d   1     -40.947  15.750  17.637  0.00  0.00     0.020 A 
ATOM     14  C   UNL d   1     -40.172  14.795  16.956  0.00  0.00     0.001 A 
ATOM     15  C   UNL d   1     -40.698  15.402  16.936  0.00  0.00     0.002 A 
ENDROOT
TORSDOF 0
ENDMDL
MODEL 8
REMARK VINA RESULT:      -5.7      9.547     10.448
REMARK  0 active torsions:
REMARK  status: ('A' for Active; 'I' for Inactive)
ROOT
ATOM      1  C   UNL d   1     -40.024  14.604  17.882  0.00  0.00     0.086 A 
ATOM      2  S   UNL d   1     -39.555  13.958  18.073  0.00  0.00    -0.081 SA
ATOM      3  C   UNL d   1     -39.953  14.960  17.120  0.00  0.00     0.090 A 
ATOM      4  N   UNL d   1     -39.415  14.655  16.580  0.00  0.00    -0.244 NA
ATOM      5  C   UNL d   1     -39.018  13.654  17.532  0.00  0.00     0.047 A 
ATOM      6  C   UNL d   1     -38.949  14.001  16.788  0.00  0.00     0.087 A 
ATOM      7  C   UNL d   1     -40.574  14.921  18.427  0.00  0.00     0.203 A 
ATOM      8  O   UNL d   1     -40.645  14.565  19.189  0.00  0.00    -0.286 OA
ATOM      9  C   UNL d   1     -40.434  15.618  16.934  0.00  0.00     0.020 A 
ATOM     10  C   UNL d   1     -41.042  15.566  18.237  0.00  0.00     0.043 A 
ATOM     11  C   UNL d   1     -40.972  15.914  17.492  0.00  0.00     0.005 A 
ATOM     12  C   UNL d   1     -38.549  13.007  17.723  0.00  0.00     0.008 A 
ATOM     13  C   UNL d   1     -38.411  13.698  16.243  0.00  0.00     0.020 A 
ATOM     14  C   UNL d   1     -38.011  12.713  17.163  0.00  0.00     0.001 A 
ATOM     15  C   UNL d   1     -37.943  13.051  16.438  0.00  0.00     0.002 A 
ENDROOT
TORSDOF 0
ENDMDL
