MODEL 1
REMARK VINA RESULT:      -8.3      0.000      0.000
REMARK  4 active torsions:
REMARK  status: ('A' for Active; 'I' for Inactive)
REMARK    1  A    between atoms: C_5  and  N_1 
REMARK    2  A    between atoms: C_7  and  C_5 
REMARK    3  A    between atoms: O_10  and  C_8 
REMARK    4  A    between atoms: C_14  and  O_10 
ROOT
ATOM      1  C   UNL d   1     -48.842  12.965  23.451  0.00  0.00     0.086 C 
ENDROOT
BRANCH   1   2
ATOM      2  N   UNL d   1     -48.175  12.486  23.404  0.00  0.00    -0.268 N 
ATOM      3  C   UNL d   1     -48.155  11.663  23.517  0.00  0.00     0.296 A 
ATOM      4  S   UNL d   1     -47.373  11.416  23.417  0.00  0.00    -0.025 SA
ATOM      5  O   UNL d   1     -48.798  11.181  23.698  0.00  0.00    -0.259 OA
ATOM      6  C   UNL d   1     -46.912  12.075  23.243  0.00  0.00     0.050 A 
ATOM      7  C   UNL d   1     -47.406  12.741  23.234  0.00  0.00     0.073 A 
ATOM      8  C   UNL d   1     -46.099  12.170  23.088  0.00  0.00     0.008 A 
ATOM      9  C   UNL d   1     -47.099  13.484  23.074  0.00  0.00     0.018 A 
ATOM     10  C   UNL d   1     -46.293  13.572  22.922  0.00  0.00     0.002 A 
ATOM     11  C   UNL d   1     -45.797  12.920  22.928  0.00  0.00     0.001 A 
ENDBRANCH   1   2
BRANCH   1  12
ATOM     12  C   UNL d   1     -49.341  13.038  22.795  0.00  0.00     0.040 A 
ATOM     13  C   UNL d   1     -49.864  13.669  22.761  0.00  0.00     0.101 A 
ATOM     14  C   UNL d   1     -50.358  13.743  22.114  0.00  0.00     0.025 A 
ATOM     15  C   UNL d   1     -50.331  13.187  21.494  0.00  0.00     0.002 A 
ATOM     16  C   UNL d   1     -49.800  12.558  21.539  0.00  0.00     0.000 A 
ATOM     17  C   UNL d   1     -49.302  12.485  22.196  0.00  0.00     0.004 A 
BRANCH  13  18
ATOM     18  O   UNL d   1     -49.869  14.202  23.388  0.00  0.00    -0.307 OA
BRANCH  18  19
ATOM     19  C   UNL d   1     -50.318  14.895  23.338  0.00  0.00     0.100 C 
ATOM     20  C   UNL d   1     -51.064  14.926  23.696  0.00  0.00     0.027 C 
ATOM     21  C   UNL d   1     -50.028  15.549  22.938  0.00  0.00     0.027 C 
ENDBRANCH  18  19
ENDBRANCH  13  18
ENDBRANCH   1  12
TORSDOF 4
ENDMDL
MODEL 2
REMARK VINA RESULT:      -8.2      1.506      3.673
REMARK  4 active torsions:
REMARK  status: ('A' for Active; 'I' for Inactive)
REMARK    1  A    between atoms: C_5  and  N_1 
REMARK    2  A    between atoms: C_7  and  C_5 
REMARK    3  A    between atoms: O_10  and  C_8 
REMARK    4  A    between atoms: C_14  and  O_10 
ROOT
ATOM      1  C   UNL d   1     -48.644  13.541  22.212  0.00  0.00     0.086 C 
ENDROOT
BRANCH   1   2
ATOM      2  N   UNL d   1     -49.442  13.742  22.238  0.00  0.00    -0.268 N 
ATOM      3  C   UNL d   1     -50.057  13.353  21.837  0.00  0.00     0.296 A 
ATOM      4  S   UNL d   1     -50.761  13.742  22.024  0.00  0.00    -0.025 SA
ATOM      5  O   UNL d   1     -49.979  12.698  21.343  0.00  0.00    -0.259 OA
ATOM      6  C   UNL d   1     -50.588  14.364  22.534  0.00  0.00     0.050 A 
ATOM      7  C   UNL d   1     -49.770  14.367  22.669  0.00  0.00     0.073 A 
ATOM      8  C   UNL d   1     -51.064  14.940  22.902  0.00  0.00     0.008 A 
ATOM      9  C   UNL d   1     -49.432  14.930  23.159  0.00  0.00     0.018 A 
ATOM     10  C   UNL d   1     -49.908  15.499  23.522  0.00  0.00     0.002 A 
ATOM     11  C   UNL d   1     -50.717  15.504  23.394  0.00  0.00     0.001 A 
ENDBRANCH   1   2
BRANCH   1  12
ATOM     12  C   UNL d   1     -48.360  12.933  22.696  0.00  0.00     0.040 A 
ATOM     13  C   UNL d   1     -47.550  12.850  22.797  0.00  0.00     0.101 A 
ATOM     14  C   UNL d   1     -47.267  12.250  23.275  0.00  0.00     0.025 A 
ATOM     15  C   UNL d   1     -47.792  11.727  23.655  0.00  0.00     0.002 A 
ATOM     16  C   UNL d   1     -48.604  11.821  23.545  0.00  0.00     0.000 A 
ATOM     17  C   UNL d   1     -48.888  12.429  23.062  0.00  0.00     0.004 A 
BRANCH  13  18
ATOM     18  O   UNL d   1     -47.056  13.381  22.409  0.00  0.00    -0.307 OA
BRANCH  18  19
ATOM     19  C   UNL d   1     -46.248  13.402  22.589  0.00  0.00     0.100 C 
ATOM     20  C   UNL d   1     -45.713  12.972  22.125  0.00  0.00     0.027 C 
ATOM     21  C   UNL d   1     -45.976  13.846  23.222  0.00  0.00     0.027 C 
ENDBRANCH  18  19
ENDBRANCH  13  18
ENDBRANCH   1  12
TORSDOF 4
ENDMDL
MODEL 3
REMARK VINA RESULT:      -8.1      1.128      1.562
REMARK  4 active torsions:
REMARK  status: ('A' for Active; 'I' for Inactive)
REMARK    1  A    between atoms: C_5  and  N_1 
REMARK    2  A    between atoms: C_7  and  C_5 
REMARK    3  A    between atoms: O_10  and  C_8 
REMARK    4  A    between atoms: C_14  and  O_10 
ROOT
ATOM      1  C   UNL d   1     -48.229  13.682  23.259  0.00  0.00     0.086 C 
ENDROOT
BRANCH   1   2
ATOM      2  N   UNL d   1     -47.466  13.388  23.171  0.00  0.00    -0.268 N 
ATOM      3  C   UNL d   1     -46.804  13.818  22.911  0.00  0.00     0.296 A 
ATOM      4  S   UNL d   1     -46.157  13.304  22.907  0.00  0.00    -0.025 SA
ATOM      5  O   UNL d   1     -46.794  14.613  22.695  0.00  0.00    -0.259 OA
ATOM      6  C   UNL d   1     -46.412  12.564  23.162  0.00  0.00     0.050 A 
ATOM      7  C   UNL d   1     -47.224  12.612  23.326  0.00  0.00     0.073 A 
ATOM      8  C   UNL d   1     -46.018  11.838  23.270  0.00  0.00     0.008 A 
ATOM      9  C   UNL d   1     -47.634  11.954  23.592  0.00  0.00     0.018 A 
ATOM     10  C   UNL d   1     -47.238  11.238  23.698  0.00  0.00     0.002 A 
ATOM     11  C   UNL d   1     -46.437  11.180  23.538  0.00  0.00     0.001 A 
ENDBRANCH   1   2
BRANCH   1  12
ATOM     12  C   UNL d   1     -48.733  13.714  22.603  0.00  0.00     0.040 A 
ATOM     13  C   UNL d   1     -49.454  14.099  22.674  0.00  0.00     0.101 A 
ATOM     14  C   UNL d   1     -49.953  14.132  22.028  0.00  0.00     0.025 A 
ATOM     15  C   UNL d   1     -49.735  13.780  21.305  0.00  0.00     0.002 A 
ATOM     16  C   UNL d   1     -49.008  13.396  21.246  0.00  0.00     0.000 A 
ATOM     17  C   UNL d   1     -48.504  13.364  21.902  0.00  0.00     0.004 A 
BRANCH  13  18
ATOM     18  O   UNL d   1     -49.643  14.437  23.400  0.00  0.00    -0.307 OA
BRANCH  18  19
ATOM     19  C   UNL d   1     -50.299  14.937  23.466  0.00  0.00     0.100 C 
ATOM     20  C   UNL d   1     -51.038  14.618  23.661  0.00  0.00     0.027 C 
ATOM     21  C   UNL d   1     -50.221  15.743  23.340  0.00  0.00     0.027 C 
ENDBRANCH  18  19
ENDBRANCH  13  18
ENDBRANCH   1  12
TORSDOF 4
ENDMDL
MODEL 4
REMARK VINA RESULT:      -7.6      1.739      3.755
REMARK  4 active torsions:
REMARK  status: ('A' for Active; 'I' for Inactive)
REMARK    1  A    between atoms: C_5  and  N_1 
REMARK    2  A    between atoms: C_7  and  C_5 
REMARK    3  A    between atoms: O_10  and  C_8 
REMARK    4  A    between atoms: C_14  and  O_10 
ROOT
ATOM      1  C   UNL d   1     -48.237  12.911  21.984  0.00  0.00     0.086 C 
ENDROOT
BRANCH   1   2
ATOM      2  N   UNL d   1     -49.058  12.863  22.014  0.00  0.00    -0.268 N 
ATOM      3  C   UNL d   1     -49.587  13.222  21.484  0.00  0.00     0.296 A 
ATOM      4  S   UNL d   1     -50.353  13.027  21.724  0.00  0.00    -0.025 SA
ATOM      5  O   UNL d   1     -49.386  13.688  20.835  0.00  0.00    -0.259 OA
ATOM      6  C   UNL d   1     -50.301  12.553  22.395  0.00  0.00     0.050 A 
ATOM      7  C   UNL d   1     -49.499  12.449  22.577  0.00  0.00     0.073 A 
ATOM      8  C   UNL d   1     -50.878  12.192  22.876  0.00  0.00     0.008 A 
ATOM      9  C   UNL d   1     -49.275  11.998  23.224  0.00  0.00     0.018 A 
ATOM     10  C   UNL d   1     -49.851  11.643  23.698  0.00  0.00     0.002 A 
ATOM     11  C   UNL d   1     -50.646  11.740  23.525  0.00  0.00     0.001 A 
ENDBRANCH   1   2
BRANCH   1  12
ATOM     12  C   UNL d   1     -47.854  13.574  22.298  0.00  0.00     0.040 A 
ATOM     13  C   UNL d   1     -47.046  13.540  22.435  0.00  0.00     0.101 A 
ATOM     14  C   UNL d   1     -46.666  14.194  22.744  0.00  0.00     0.025 A 
ATOM     15  C   UNL d   1     -47.092  14.888  22.920  0.00  0.00     0.002 A 
ATOM     16  C   UNL d   1     -47.904  14.910  22.778  0.00  0.00     0.000 A 
ATOM     17  C   UNL d   1     -48.286  14.247  22.465  0.00  0.00     0.004 A 
BRANCH  13  18
ATOM     18  O   UNL d   1     -46.652  12.842  22.251  0.00  0.00    -0.307 OA
BRANCH  18  19
ATOM     19  C   UNL d   1     -45.858  12.744  22.468  0.00  0.00     0.100 C 
ATOM     20  C   UNL d   1     -45.260  13.010  21.961  0.00  0.00     0.027 C 
ATOM     21  C   UNL d   1     -45.664  12.387  23.179  0.00  0.00     0.027 C 
ENDBRANCH  18  19
ENDBRANCH  13  18
ENDBRANCH   1  12
TORSDOF 4
ENDMDL
MODEL 5
REMARK VINA RESULT:      -6.8      1.544      3.909
REMARK  4 active torsions:
REMARK  status: ('A' for Active; 'I' for Inactive)
REMARK    1  A    between atoms: C_5  and  N_1 
REMARK    2  A    between atoms: C_7  and  C_5 
REMARK    3  A    between atoms: O_10  and  C_8 
REMARK    4  A    between atoms: C_14  and  O_10 
ROOT
ATOM      1  C   UNL d   1     -48.036  13.587  22.157  0.00  0.00     0.086 C 
ENDROOT
BRANCH   1   2
ATOM      2  N   UNL d   1     -48.793  13.867  22.319  0.00  0.00    -0.268 N 
ATOM      3  C   UNL d   1     -48.987  14.465  22.862  0.00  0.00     0.296 A 
ATOM      4  S   UNL d   1     -49.806  14.564  22.844  0.00  0.00    -0.025 SA
ATOM      5  O   UNL d   1     -48.457  14.884  23.334  0.00  0.00    -0.259 OA
ATOM      6  C   UNL d   1     -50.120  14.035  22.297  0.00  0.00     0.050 A 
ATOM      7  C   UNL d   1     -49.494  13.601  21.969  0.00  0.00     0.073 A 
ATOM      8  C   UNL d   1     -50.898  13.881  22.043  0.00  0.00     0.008 A 
ATOM      9  C   UNL d   1     -49.638  13.026  21.402  0.00  0.00     0.018 A 
ATOM     10  C   UNL d   1     -50.412  12.878  21.155  0.00  0.00     0.002 A 
ATOM     11  C   UNL d   1     -51.036  13.302  21.472  0.00  0.00     0.001 A 
ENDBRANCH   1   2
BRANCH   1  12
ATOM     12  C   UNL d   1     -47.686  13.036  22.666  0.00  0.00     0.040 A 
ATOM     13  C   UNL d   1     -46.875  12.923  22.632  0.00  0.00     0.101 A 
ATOM     14  C   UNL d   1     -46.527  12.379  23.134  0.00  0.00     0.025 A 
ATOM     15  C   UNL d   1     -46.989  11.944  23.674  0.00  0.00     0.002 A 
ATOM     16  C   UNL d   1     -47.804  12.067  23.698  0.00  0.00     0.000 A 
ATOM     17  C   UNL d   1     -48.154  12.618  23.189  0.00  0.00     0.004 A 
BRANCH  13  18
ATOM     18  O   UNL d   1     -46.444  13.367  22.089  0.00  0.00    -0.307 OA
BRANCH  18  19
ATOM     19  C   UNL d   1     -45.617  13.378  22.127  0.00  0.00     0.100 C 
ATOM     20  C   UNL d   1     -45.182  12.779  21.757  0.00  0.00     0.027 C 
ATOM     21  C   UNL d   1     -45.229  13.979  22.527  0.00  0.00     0.027 C 
ENDBRANCH  18  19
ENDBRANCH  13  18
ENDBRANCH   1  12
TORSDOF 4
ENDMDL
MODEL 6
REMARK VINA RESULT:      -5.7      8.768     10.703
REMARK  4 active torsions:
REMARK  status: ('A' for Active; 'I' for Inactive)
REMARK    1  A    between atoms: C_5  and  N_1 
REMARK    2  A    between atoms: C_7  and  C_5 
REMARK    3  A    between atoms: O_10  and  C_8 
REMARK    4  A    between atoms: C_14  and  O_10 
ROOT
ATOM      1  C   UNL d   1     -39.769  14.614  18.511  0.00  0.00     0.086 C 
ENDROOT
BRANCH   1   2
ATOM      2  N   UNL d   1     -39.385  14.502  17.792  0.00  0.00    -0.268 N 
ATOM      3  C   UNL d   1     -39.366  15.040  17.158  0.00  0.00     0.296 A 
ATOM      4  S   UNL d   1     -38.919  14.698  16.554  0.00  0.00    -0.025 SA
ATOM      5  O   UNL d   1     -39.728  15.780  17.137  0.00  0.00    -0.259 OA
ATOM      6  C   UNL d   1     -38.663  13.958  16.806  0.00  0.00     0.050 A 
ATOM      7  C   UNL d   1     -38.950  13.833  17.573  0.00  0.00     0.073 A 
ATOM      8  C   UNL d   1     -38.202  13.367  16.442  0.00  0.00     0.008 A 
ATOM      9  C   UNL d   1     -38.782  13.136  17.972  0.00  0.00     0.018 A 
ATOM     10  C   UNL d   1     -38.325  12.554  17.607  0.00  0.00     0.002 A 
ATOM     11  C   UNL d   1     -38.037  12.669  16.849  0.00  0.00     0.001 A 
ENDBRANCH   1   2
BRANCH   1  12
ATOM     12  C   UNL d   1     -39.399  15.053  19.107  0.00  0.00     0.040 A 
ATOM     13  C   UNL d   1     -39.768  15.121  19.837  0.00  0.00     0.101 A 
ATOM     14  C   UNL d   1     -39.404  15.554  20.428  0.00  0.00     0.025 A 
ATOM     15  C   UNL d   1     -38.669  15.922  20.293  0.00  0.00     0.002 A 
ATOM     16  C   UNL d   1     -38.309  15.846  19.555  0.00  0.00     0.000 A 
ATOM     17  C   UNL d   1     -38.679  15.407  18.959  0.00  0.00     0.004 A 
BRANCH  13  18
ATOM     18  O   UNL d   1     -40.493  14.747  19.941  0.00  0.00    -0.307 OA
BRANCH  18  19
ATOM     19  C   UNL d   1     -40.891  14.809  20.664  0.00  0.00     0.100 C 
ATOM     20  C   UNL d   1     -41.308  15.502  20.845  0.00  0.00     0.027 C 
ATOM     21  C   UNL d   1     -40.874  14.190  21.200  0.00  0.00     0.027 C 
ENDBRANCH  18  19
ENDBRANCH  13  18
ENDBRANCH   1  12
TORSDOF 4
ENDMDL
