MODEL 1
REMARK VINA RESULT:      -3.3      0.000      0.000
REMARK  5 active torsions:
REMARK  status: ('A' for Active; 'I' for Inactive)
REMARK    1  A    between atoms: C_3  and  C_1 
REMARK    2  A    between atoms: C_6  and  C_1 
REMARK    3  A    between atoms: C_2  and  C_3 
REMARK       I    between atoms: N_4  and  C_2 
REMARK    4  A    between atoms: C_12  and  N_4 
REMARK    5  A    between atoms: N_7  and  C_5 
ROOT
ATOM      1  C   UNL d   1      32.943  19.034 -22.250  0.00  0.00     0.328 C 
ATOM      2  N   UNL d   1      32.881  19.822 -22.018  0.00  0.00    -0.365 NA
ATOM      3  O   UNL d   1      33.241  18.471 -21.726  0.00  0.00    -0.251 OA
ENDROOT
BRANCH   1   4
ATOM      4  C   UNL d   1      32.706  18.811 -23.006  0.00  0.00     0.076 C 
BRANCH   4   5
ATOM      5  C   UNL d   1      32.636  18.012 -23.194  0.00  0.00     0.007 C 
BRANCH   5   6
ATOM      6  C   UNL d   1      32.160  17.776 -23.828  0.00  0.00     0.011 A 
ATOM      7  C   UNL d   1      31.838  17.012 -23.843  0.00  0.00     0.058 A 
ATOM      8 CL   UNL d   1      31.991  16.488 -23.227  0.00  0.00    -0.082 Cl
ATOM      9  C   UNL d   1      31.361  16.778 -24.480  0.00  0.00     0.011 A 
ATOM     10  C   UNL d   1      31.210  17.306 -25.097  0.00  0.00     0.001 A 
ATOM     11  C   UNL d   1      31.534  18.064 -25.074  0.00  0.00     0.000 A 
ATOM     12  C   UNL d   1      32.008  18.301 -24.444  0.00  0.00     0.001 A 
ENDBRANCH   5   6
ENDBRANCH   4   5
ENDBRANCH   1   4
BRANCH   2  13
ATOM     13  C   UNL d   1      32.819  20.609 -21.785  0.00  0.00     0.135 A 
ATOM     14  C   UNL d   1      33.181  21.197 -22.240  0.00  0.00     0.034 A 
ATOM     15  C   UNL d   1      33.119  21.984 -22.008  0.00  0.00     0.020 A 
ATOM     16  C   UNL d   1      32.695  22.184 -21.320  0.00  0.00     0.064 A 
ATOM     17  C   UNL d   1      32.336  21.595 -20.871  0.00  0.00     0.020 A 
ATOM     18  C   UNL d   1      32.398  20.807 -21.104  0.00  0.00     0.034 A 
BRANCH  16  19
ATOM     19  N   UNL d   1      32.634  22.979 -21.088  0.00  0.00    -0.301 N 
ATOM     20  C   UNL d   1      32.092  23.476 -21.468  0.00  0.00     0.100 C 
ATOM     21  C   UNL d   1      33.114  23.267 -20.482  0.00  0.00     0.100 C 
ENDBRANCH  16  19
ENDBRANCH   2  13
TORSDOF 5
ENDMDL
MODEL 2
REMARK VINA RESULT:      -3.3      1.848      5.099
REMARK  5 active torsions:
REMARK  status: ('A' for Active; 'I' for Inactive)
REMARK    1  A    between atoms: C_3  and  C_1 
REMARK    2  A    between atoms: C_6  and  C_1 
REMARK    3  A    between atoms: C_2  and  C_3 
REMARK       I    between atoms: N_4  and  C_2 
REMARK    4  A    between atoms: C_12  and  N_4 
REMARK    5  A    between atoms: N_7  and  C_5 
ROOT
ATOM      1  C   UNL d   1      33.160  20.009 -21.667  0.00  0.00     0.328 C 
ATOM      2  N   UNL d   1      33.051  19.392 -22.202  0.00  0.00    -0.365 NA
ATOM      3  O   UNL d   1      33.234  19.848 -20.861  0.00  0.00    -0.251 OA
ENDROOT
BRANCH   1   4
ATOM      4  C   UNL d   1      33.194  20.785 -21.938  0.00  0.00     0.076 C 
BRANCH   4   5
ATOM      5  C   UNL d   1      32.788  21.378 -21.534  0.00  0.00     0.007 C 
BRANCH   5   6
ATOM      6  C   UNL d   1      32.757  22.144 -21.846  0.00  0.00     0.011 A 
ATOM      7  C   UNL d   1      32.342  22.738 -21.444  0.00  0.00     0.058 A 
ATOM      8 CL   UNL d   1      31.960  22.567 -20.734  0.00  0.00    -0.082 Cl
ATOM      9  C   UNL d   1      32.312  23.506 -21.757  0.00  0.00     0.011 A 
ATOM     10  C   UNL d   1      32.697  23.674 -22.469  0.00  0.00     0.001 A 
ATOM     11  C   UNL d   1      33.108  23.077 -22.863  0.00  0.00     0.000 A 
ATOM     12  C   UNL d   1      33.140  22.314 -22.555  0.00  0.00     0.001 A 
ENDBRANCH   5   6
ENDBRANCH   4   5
ENDBRANCH   1   4
BRANCH   2  13
ATOM     13  C   UNL d   1      32.943  18.776 -22.737  0.00  0.00     0.135 A 
ATOM     14  C   UNL d   1      33.240  18.025 -22.558  0.00  0.00     0.034 A 
ATOM     15  C   UNL d   1      33.132  17.409 -23.093  0.00  0.00     0.020 A 
ATOM     16  C   UNL d   1      32.726  17.544 -23.808  0.00  0.00     0.064 A 
ATOM     17  C   UNL d   1      32.433  18.293 -23.981  0.00  0.00     0.020 A 
ATOM     18  C   UNL d   1      32.541  18.910 -23.445  0.00  0.00     0.034 A 
BRANCH  16  19
ATOM     19  N   UNL d   1      32.619  16.920 -24.345  0.00  0.00    -0.301 N 
ATOM     20  C   UNL d   1      31.904  16.502 -24.350  0.00  0.00     0.100 C 
ATOM     21  C   UNL d   1      33.224  16.722 -24.870  0.00  0.00     0.100 C 
ENDBRANCH  16  19
ENDBRANCH   2  13
TORSDOF 5
ENDMDL
