MODEL 1
REMARK VINA RESULT:      63.9      0.000      0.000
REMARK  2 active torsions:
REMARK  status: ('A' for Active; 'I' for Inactive)
REMARK    1  A    between atoms: N_11  and  C_2 
REMARK    2  A    between atoms: C_16  and  N_11 
ROOT
ATOM      1  C   UNL d   1     -58.162 -98.760 -44.773  0.00  0.00     0.024 A 
ATOM      2  C   UNL d   1     -58.628 -98.760 -45.445  0.00  0.00     0.139 A 
ATOM      3  C   UNL d   1     -58.506 -98.760 -44.025  0.00  0.00     0.022 A 
ATOM      4  C   UNL d   1     -59.448 -98.759 -45.383  0.00  0.00     0.297 A 
ATOM      5  C   UNL d   1     -57.333 -98.761 -44.840  0.00  0.00     0.005 A 
ATOM      6  C   UNL d   1     -58.036 -98.760 -43.348  0.00  0.00     0.041 A 
ATOM      7  C   UNL d   1     -57.212 -98.760 -43.405  0.00  0.00     0.196 A 
ATOM      8  N   UNL d   1     -59.792 -98.759 -44.637  0.00  0.00    -0.207 NA
ATOM      9  C   UNL d   1     -59.326 -98.759 -43.965  0.00  0.00     0.085 A 
ATOM     10  C   UNL d   1     -56.863 -98.761 -44.163  0.00  0.00     0.039 A 
ATOM     11  O   UNL d   1     -59.915 -98.759 -46.055  0.00  0.00    -0.264 OA
ATOM     12  O   UNL d   1     -56.733 -98.760 -42.715  0.00  0.00    -0.287 OA
ATOM     13  C   UNL d   1     -58.376 -98.759 -42.597  0.00  0.00     0.003 A 
ATOM     14  C   UNL d   1     -56.990 -98.762 -45.587  0.00  0.00     0.000 A 
ATOM     15  C   UNL d   1     -59.674 -98.758 -43.214  0.00  0.00     0.019 A 
ATOM     16  C   UNL d   1     -56.040 -98.762 -44.219  0.00  0.00     0.003 A 
ATOM     17  C   UNL d   1     -59.204 -98.758 -42.538  0.00  0.00     0.002 A 
ATOM     18  C   UNL d   1     -56.164 -98.762 -45.651  0.00  0.00     0.000 A 
ATOM     19  C   UNL d   1     -55.694 -98.762 -44.974  0.00  0.00     0.000 A 
ENDROOT
BRANCH   2  20
ATOM     20  N   UNL d   1     -58.275 -98.761 -46.198  0.00  0.00    -0.241 NA
BRANCH  20  21
ATOM     21  C   UNL d   1     -58.716 -98.961 -46.857  0.00  0.00     0.082 A 
ATOM     22  C   UNL d   1     -59.484 -99.246 -46.749  0.00  0.00     0.019 A 
ATOM     23  C   UNL d   1     -59.951 -99.457 -47.401  0.00  0.00     0.002 A 
ATOM     24  C   UNL d   1     -59.632 -99.376 -48.183  0.00  0.00     0.000 A 
ATOM     25  C   UNL d   1     -58.878 -99.096 -48.282  0.00  0.00     0.002 A 
ATOM     26  C   UNL d   1     -58.408 -98.885 -47.624  0.00  0.00     0.019 A 
ENDBRANCH  20  21
ENDBRANCH   2  20
TORSDOF 2
ENDMDL
