MODEL 1
REMARK VINA RESULT:      -3.7      0.000      0.000
REMARK  6 active torsions:
REMARK  status: ('A' for Active; 'I' for Inactive)
REMARK    1  A    between atoms: C_8  and  C_6 
REMARK    2  A    between atoms: C_10  and  C_8 
REMARK       I    between atoms: N_13  and  C_10 
REMARK    3  A    between atoms: C_11  and  C_14 
REMARK    4  A    between atoms: O_20  and  C_11 
REMARK    5  A    between atoms: C_19  and  N_13 
REMARK    6  A    between atoms: C_23  and  O_20 
ROOT
ATOM      1  C   UNL d   1      58.654  -0.043  29.206  0.00  0.00     0.280 C 
ATOM      2  N   UNL d   1      58.335   0.624  29.578  0.00  0.00    -0.208 NA
ATOM      3  O   UNL d   1      58.987   0.030  28.455  0.00  0.00    -0.265 OA
ENDROOT
BRANCH   1   4
ATOM      4  C   UNL d   1      58.638  -0.775  29.584  0.00  0.00     0.074 C 
BRANCH   4   5
ATOM      5  C   UNL d   1      59.114  -1.393  29.306  0.00  0.00     0.095 A 
ATOM      6  C   UNL d   1      58.905  -2.189  29.280  0.00  0.00     0.288 A 
ATOM      7  N   UNL d   1      59.537  -2.608  28.966  0.00  0.00    -0.169 N 
ATOM      8  O   UNL d   1      58.185  -2.509  29.526  0.00  0.00    -0.265 OA
ATOM      9  C   UNL d   1      60.143  -2.069  28.797  0.00  0.00     0.200 A 
ATOM     10  N   UNL d   1      59.800  -3.361  28.756  0.00  0.00    -0.138 NA
ATOM     11  N   UNL d   1      60.780  -2.490  28.481  0.00  0.00    -0.197 NA
ATOM     12  S   UNL d   1      59.881  -1.316  29.007  0.00  0.00    -0.043 SA
ATOM     13  C   UNL d   1      60.569  -3.291  28.455  0.00  0.00     0.222 A 
ENDBRANCH   4   5
ENDBRANCH   1   4
BRANCH   2  14
ATOM     14  C   UNL d   1      58.003   0.547  30.329  0.00  0.00     0.085 A 
ATOM     15  C   UNL d   1      57.202   0.352  30.400  0.00  0.00     0.019 A 
ATOM     16  C   UNL d   1      56.861   0.273  31.140  0.00  0.00     0.007 A 
ATOM     17  C   UNL d   1      57.321   0.389  31.822  0.00  0.00     0.064 A 
ATOM     18  C   UNL d   1      58.124   0.584  31.748  0.00  0.00     0.007 A 
ATOM     19  C   UNL d   1      58.462   0.662  31.003  0.00  0.00     0.019 A 
BRANCH  17  20
ATOM     20  C   UNL d   1      56.987   0.312  32.568  0.00  0.00     0.300 C 
ATOM     21  O   UNL d   1      57.469   0.353  33.242  0.00  0.00    -0.259 OA
BRANCH  20  22
ATOM     22  O   UNL d   1      56.177   0.194  32.650  0.00  0.00    -0.271 OA
BRANCH  22  23
ATOM     23  C   UNL d   1      55.875  -0.099  33.363  0.00  0.00     0.126 C 
ATOM     24  C   UNL d   1      55.061  -0.078  33.505  0.00  0.00     0.029 C 
ENDBRANCH  22  23
ENDBRANCH  20  22
ENDBRANCH  17  20
ENDBRANCH   2  14
TORSDOF 6
ENDMDL
MODEL 2
REMARK VINA RESULT:      -1.9      2.152      4.938
REMARK  6 active torsions:
REMARK  status: ('A' for Active; 'I' for Inactive)
REMARK    1  A    between atoms: C_8  and  C_6 
REMARK    2  A    between atoms: C_10  and  C_8 
REMARK       I    between atoms: N_13  and  C_10 
REMARK    3  A    between atoms: C_11  and  C_14 
REMARK    4  A    between atoms: O_20  and  C_11 
REMARK    5  A    between atoms: C_19  and  N_13 
REMARK    6  A    between atoms: C_23  and  O_20 
ROOT
ATOM      1  C   UNL d   1      57.095   0.292  30.621  0.00  0.00     0.280 C 
ATOM      2  N   UNL d   1      57.443   0.331  29.873  0.00  0.00    -0.208 NA
ATOM      3  O   UNL d   1      56.381   0.681  30.759  0.00  0.00    -0.265 OA
ENDROOT
BRANCH   1   4
ATOM      4  C   UNL d   1      57.458  -0.135  31.226  0.00  0.00     0.074 C 
BRANCH   4   5
ATOM      5  C   UNL d   1      57.168  -0.083  32.000  0.00  0.00     0.095 A 
ATOM      6  C   UNL d   1      57.541   0.289  32.632  0.00  0.00     0.288 A 
ATOM      7  N   UNL d   1      57.062   0.208  33.293  0.00  0.00    -0.169 N 
ATOM      8  O   UNL d   1      58.269   0.676  32.604  0.00  0.00    -0.265 OA
ATOM      9  C   UNL d   1      56.387  -0.218  33.072  0.00  0.00     0.200 A 
ATOM     10  N   UNL d   1      56.997   0.388  34.095  0.00  0.00    -0.138 NA
ATOM     11  N   UNL d   1      55.904  -0.301  33.737  0.00  0.00    -0.197 NA
ATOM     12  S   UNL d   1      56.453  -0.399  32.269  0.00  0.00    -0.043 SA
ATOM     13  C   UNL d   1      56.281   0.075  34.373  0.00  0.00     0.222 A 
ENDBRANCH   4   5
ENDBRANCH   1   4
BRANCH   2  14
ATOM     14  C   UNL d   1      58.157  -0.059  29.739  0.00  0.00     0.085 A 
ATOM     15  C   UNL d   1      58.858   0.378  29.698  0.00  0.00     0.019 A 
ATOM     16  C   UNL d   1      59.573   0.002  29.566  0.00  0.00     0.007 A 
ATOM     17  C   UNL d   1      59.594  -0.824  29.471  0.00  0.00     0.064 A 
ATOM     18  C   UNL d   1      58.890  -1.260  29.512  0.00  0.00     0.007 A 
ATOM     19  C   UNL d   1      58.175  -0.878  29.645  0.00  0.00     0.019 A 
BRANCH  17  20
ATOM     20  C   UNL d   1      60.306  -1.210  29.338  0.00  0.00     0.300 C 
ATOM     21  O   UNL d   1      60.975  -1.006  29.784  0.00  0.00    -0.259 OA
BRANCH  20  22
ATOM     22  O   UNL d   1      60.359  -1.796  28.764  0.00  0.00    -0.271 OA
BRANCH  22  23
ATOM     23  C   UNL d   1      61.061  -2.227  28.679  0.00  0.00     0.126 C 
ATOM     24  C   UNL d   1      61.033  -3.047  28.584  0.00  0.00     0.029 C 
ENDBRANCH  22  23
ENDBRANCH  20  22
ENDBRANCH  17  20
ENDBRANCH   2  14
TORSDOF 6
ENDMDL
MODEL 3
REMARK VINA RESULT:      -1.2      2.865      5.374
REMARK  6 active torsions:
REMARK  status: ('A' for Active; 'I' for Inactive)
REMARK    1  A    between atoms: C_8  and  C_6 
REMARK    2  A    between atoms: C_10  and  C_8 
REMARK       I    between atoms: N_13  and  C_10 
REMARK    3  A    between atoms: C_11  and  C_14 
REMARK    4  A    between atoms: O_20  and  C_11 
REMARK    5  A    between atoms: C_19  and  N_13 
REMARK    6  A    between atoms: C_23  and  O_20 
ROOT
ATOM      1  C   UNL d   1      56.118  -0.894  32.147  0.00  0.00     0.280 C 
ATOM      2  N   UNL d   1      56.448  -1.187  31.448  0.00  0.00    -0.208 NA
ATOM      3  O   UNL d   1      55.480  -1.287  32.492  0.00  0.00    -0.265 OA
ENDROOT
BRANCH   1   4
ATOM      4  C   UNL d   1      56.424  -0.214  32.496  0.00  0.00     0.074 C 
BRANCH   4   5
ATOM      5  C   UNL d   1      56.179   0.006  33.256  0.00  0.00     0.095 A 
ATOM      6  C   UNL d   1      56.671   0.246  33.872  0.00  0.00     0.288 A 
ATOM      7  N   UNL d   1      56.200   0.411  34.523  0.00  0.00    -0.169 N 
ATOM      8  O   UNL d   1      57.493   0.308  33.839  0.00  0.00    -0.265 OA
ATOM      9  C   UNL d   1      55.411   0.274  34.312  0.00  0.00     0.200 A 
ATOM     10  N   UNL d   1      56.213   0.663  35.309  0.00  0.00    -0.138 NA
ATOM     11  N   UNL d   1      54.936   0.441  34.967  0.00  0.00    -0.197 NA
ATOM     12  S   UNL d   1      55.398   0.023  33.526  0.00  0.00    -0.043 SA
ATOM     13  C   UNL d   1      55.432   0.682  35.586  0.00  0.00     0.222 A 
ENDBRANCH   4   5
ENDBRANCH   1   4
BRANCH   2  14
ATOM     14  C   UNL d   1      57.085  -0.791  31.106  0.00  0.00     0.085 A 
ATOM     15  C   UNL d   1      57.009   0.009  30.912  0.00  0.00     0.019 A 
ATOM     16  C   UNL d   1      57.634   0.414  30.572  0.00  0.00     0.007 A 
ATOM     17  C   UNL d   1      58.349   0.018  30.421  0.00  0.00     0.064 A 
ATOM     18  C   UNL d   1      58.424  -0.785  30.616  0.00  0.00     0.007 A 
ATOM     19  C   UNL d   1      57.793  -1.187  30.957  0.00  0.00     0.019 A 
BRANCH  17  20
ATOM     20  C   UNL d   1      58.982   0.415  30.080  0.00  0.00     0.300 C 
ATOM     21  O   UNL d   1      58.947   0.637  29.282  0.00  0.00    -0.259 OA
BRANCH  20  22
ATOM     22  O   UNL d   1      59.649   0.593  30.527  0.00  0.00    -0.271 OA
BRANCH  22  23
ATOM     23  C   UNL d   1      60.382   0.682  30.153  0.00  0.00     0.126 C 
ATOM     24  C   UNL d   1      61.080   0.560  30.579  0.00  0.00     0.029 C 
ENDBRANCH  22  23
ENDBRANCH  20  22
ENDBRANCH  17  20
ENDBRANCH   2  14
TORSDOF 6
ENDMDL
