MODEL 1
REMARK VINA RESULT:      -4.9      0.000      0.000
REMARK  3 active torsions:
REMARK  status: ('A' for Active; 'I' for Inactive)
REMARK    1  A    between atoms: C_7  and  C_4 
REMARK    2  A    between atoms: C_8  and  C_7 
REMARK    3  A    between atoms: C_11  and  C_8 
ROOT
ATOM      1  N   UNL d   1     -41.202-121.833 -52.159  0.00  0.00    -0.269 N 
ATOM      2  C   UNL d   1     -41.243-122.014 -51.356  0.00  0.00     0.282 A 
ATOM      3  N   UNL d   1     -41.364-123.396 -51.677  0.00  0.00    -0.239 NA
ATOM      4  C   UNL d   1     -41.323-122.794 -51.116  0.00  0.00     0.138 A 
ATOM      5  C   UNL d   1     -41.243-122.435 -52.721  0.00  0.00     0.085 A 
ATOM      6  C   UNL d   1     -41.323-123.215 -52.480  0.00  0.00     0.098 A 
ATOM      7  O   UNL d   1     -41.202-121.412 -50.794  0.00  0.00    -0.265 OA
ATOM      8  C   UNL d   1     -41.124-120.902 -51.845  0.00  0.00     0.102 C 
ATOM      9  C   UNL d   1     -41.202-122.254 -53.525  0.00  0.00     0.019 A 
ATOM     10  C   UNL d   1     -41.364-123.817 -53.043  0.00  0.00     0.021 A 
ATOM     11  C   UNL d   1     -41.243-122.840 -54.033  0.00  0.00     0.002 A 
ATOM     12  C   UNL d   1     -41.324-123.620 -53.792  0.00  0.00     0.002 A 
ENDROOT
BRANCH   4  13
ATOM     13  C   UNL d   1     -41.364-122.975 -50.312  0.00  0.00     0.024 C 
BRANCH  13  14
ATOM     14  C   UNL d   1     -41.876-123.564 -50.046  0.00  0.00     0.002 C 
BRANCH  14  15
ATOM     15  C   UNL d   1     -42.033-123.642 -49.240  0.00  0.00     0.000 A 
ATOM     16  C   UNL d   1     -41.411-123.739 -48.705  0.00  0.00     0.000 A 
ATOM     17  C   UNL d   1     -41.569-123.816 -47.900  0.00  0.00     0.000 A 
ATOM     18  C   UNL d   1     -42.347-123.798 -47.627  0.00  0.00     0.000 A 
ATOM     19  C   UNL d   1     -42.969-123.702 -48.162  0.00  0.00     0.000 A 
ATOM     20  C   UNL d   1     -42.811-123.624 -48.968  0.00  0.00     0.000 A 
ENDBRANCH  14  15
ENDBRANCH  13  14
ENDBRANCH   4  13
TORSDOF 3
ENDMDL
MODEL 2
REMARK VINA RESULT:      -4.2      1.062      4.200
REMARK  3 active torsions:
REMARK  status: ('A' for Active; 'I' for Inactive)
REMARK    1  A    between atoms: C_7  and  C_4 
REMARK    2  A    between atoms: C_8  and  C_7 
REMARK    3  A    between atoms: C_11  and  C_8 
ROOT
ATOM      1  N   UNL d   1     -42.807-122.522 -49.808  0.00  0.00    -0.269 N 
ATOM      2  C   UNL d   1     -42.568-122.384 -50.584  0.00  0.00     0.282 A 
ATOM      3  N   UNL d   1     -41.366-123.108 -50.340  0.00  0.00    -0.239 NA
ATOM      4  C   UNL d   1     -41.849-122.676 -50.850  0.00  0.00     0.138 A 
ATOM      5  C   UNL d   1     -42.324-122.953 -49.298  0.00  0.00     0.085 A 
ATOM      6  C   UNL d   1     -41.606-123.246 -49.564  0.00  0.00     0.098 A 
ATOM      7  O   UNL d   1     -43.051-121.951 -51.095  0.00  0.00    -0.265 OA
ATOM      8  C   UNL d   1     -43.607-122.006 -50.066  0.00  0.00     0.102 C 
ATOM      9  C   UNL d   1     -42.563-123.092 -48.520  0.00  0.00     0.019 A 
ATOM     10  C   UNL d   1     -41.123-123.678 -49.053  0.00  0.00     0.021 A 
ATOM     11  C   UNL d   1     -42.090-123.501 -48.061  0.00  0.00     0.002 A 
ATOM     12  C   UNL d   1     -41.371-123.794 -48.327  0.00  0.00     0.002 A 
ENDROOT
BRANCH   4  13
ATOM     13  C   UNL d   1     -41.610-122.538 -51.628  0.00  0.00     0.024 C 
BRANCH  13  14
ATOM     14  C   UNL d   1     -41.206-123.122 -52.045  0.00  0.00     0.002 C 
BRANCH  14  15
ATOM     15  C   UNL d   1     -41.201-123.112 -52.871  0.00  0.00     0.000 A 
ATOM     16  C   UNL d   1     -41.128-122.395 -53.274  0.00  0.00     0.000 A 
ATOM     17  C   UNL d   1     -41.123-122.385 -54.098  0.00  0.00     0.000 A 
ATOM     18  C   UNL d   1     -41.192-123.091 -54.521  0.00  0.00     0.000 A 
ATOM     19  C   UNL d   1     -41.265-123.808 -54.117  0.00  0.00     0.000 A 
ATOM     20  C   UNL d   1     -41.269-123.817 -53.292  0.00  0.00     0.000 A 
ENDBRANCH  14  15
ENDBRANCH  13  14
ENDBRANCH   4  13
TORSDOF 3
ENDMDL
MODEL 3
REMARK VINA RESULT:      -2.6      1.536      2.445
REMARK  3 active torsions:
REMARK  status: ('A' for Active; 'I' for Inactive)
REMARK    1  A    between atoms: C_7  and  C_4 
REMARK    2  A    between atoms: C_8  and  C_7 
REMARK    3  A    between atoms: C_11  and  C_8 
ROOT
ATOM      1  N   UNL d   1     -41.556-122.897 -54.363  0.00  0.00    -0.269 N 
ATOM      2  C   UNL d   1     -41.434-123.077 -53.568  0.00  0.00     0.282 A 
ATOM      3  N   UNL d   1     -41.918-121.787 -53.205  0.00  0.00    -0.239 NA
ATOM      4  C   UNL d   1     -41.614-122.523 -52.990  0.00  0.00     0.138 A 
ATOM      5  C   UNL d   1     -41.860-122.162 -54.578  0.00  0.00     0.085 A 
ATOM      6  C   UNL d   1     -42.040-121.608 -54.000  0.00  0.00     0.098 A 
ATOM      7  O   UNL d   1     -41.130-123.813 -53.352  0.00  0.00    -0.265 OA
ATOM      8  C   UNL d   1     -41.209-123.806 -54.520  0.00  0.00     0.102 C 
ATOM      9  C   UNL d   1     -41.982-121.981 -55.374  0.00  0.00     0.019 A 
ATOM     10  C   UNL d   1     -42.344-120.872 -54.216  0.00  0.00     0.021 A 
ATOM     11  C   UNL d   1     -42.269-121.282 -55.549  0.00  0.00     0.002 A 
ATOM     12  C   UNL d   1     -42.449-120.728 -54.972  0.00  0.00     0.002 A 
ENDROOT
BRANCH   4  13
ATOM     13  C   UNL d   1     -41.492-122.703 -52.194  0.00  0.00     0.024 C 
BRANCH  13  14
ATOM     14  C   UNL d   1     -41.892-122.282 -51.609  0.00  0.00     0.002 C 
BRANCH  14  15
ATOM     15  C   UNL d   1     -41.874-122.543 -50.827  0.00  0.00     0.000 A 
ATOM     16  C   UNL d   1     -41.169-122.828 -50.503  0.00  0.00     0.000 A 
ATOM     17  C   UNL d   1     -41.150-123.088 -49.721  0.00  0.00     0.000 A 
ATOM     18  C   UNL d   1     -41.835-123.065 -49.261  0.00  0.00     0.000 A 
ATOM     19  C   UNL d   1     -42.539-122.780 -49.585  0.00  0.00     0.000 A 
ATOM     20  C   UNL d   1     -42.558-122.519 -50.367  0.00  0.00     0.000 A 
ENDBRANCH  14  15
ENDBRANCH  13  14
ENDBRANCH   4  13
TORSDOF 3
ENDMDL
