MODEL 1
REMARK VINA RESULT:      16.2      0.000      0.000
REMARK  4 active torsions:
REMARK  status: ('A' for Active; 'I' for Inactive)
REMARK    1  A    between atoms: N_2  and  S_1 
REMARK    2  A    between atoms: C_3  and  S_1 
REMARK    3  A    between atoms: O_15  and  C_7 
REMARK    4  A    between atoms: C_18  and  O_15 
ROOT
ATOM      1  C   UNL d   1      45.873 -14.544  44.414  0.00  0.00     0.106 A 
ATOM      2  C   UNL d   1      45.316 -14.094  44.005  0.00  0.00     0.040 A 
ATOM      3  C   UNL d   1      45.321 -13.278  44.070  0.00  0.00     0.128 A 
ATOM      4  C   UNL d   1      45.882 -12.905  44.545  0.00  0.00     0.163 A 
ATOM      5  C   UNL d   1      46.434 -14.171  44.890  0.00  0.00     0.015 A 
ATOM      6  C   UNL d   1      46.439 -13.355  44.955  0.00  0.00     0.032 A 
ATOM      7  F   UNL d   1      45.887 -12.080  44.611  0.00  0.00    -0.202 F 
ENDROOT
BRANCH   1   8
ATOM      8  S   UNL d   1      45.868 -15.369  44.348  0.00  0.00     0.272 S 
ATOM      9  O   UNL d   1      46.547 -15.335  43.878  0.00  0.00    -0.200 OA
ATOM     10  O   UNL d   1      45.189 -15.402  44.818  0.00  0.00    -0.200 OA
BRANCH   8  11
ATOM     11  N   UNL d   1      45.863 -16.192  44.282  0.00  0.00    -0.225 N 
ATOM     12  C   UNL d   1      45.765 -16.661  44.955  0.00  0.00     0.118 A 
ATOM     13  C   UNL d   1      45.761 -17.484  44.889  0.00  0.00     0.142 A 
ATOM     14  O   UNL d   1      45.854 -17.841  44.150  0.00  0.00    -0.300 OA
ATOM     15  C   UNL d   1      45.951 -17.372  43.478  0.00  0.00     0.142 A 
ATOM     16  C   UNL d   1      45.956 -16.549  43.544  0.00  0.00     0.118 A 
ENDBRANCH   8  11
ENDBRANCH   1   8
BRANCH   3  17
ATOM     17  O   UNL d   1      44.757 -12.827  43.655  0.00  0.00    -0.303 OA
BRANCH  17  18
ATOM     18  C   UNL d   1      44.936 -12.522  42.910  0.00  0.00     0.123 C 
ATOM     19  C   UNL d   1      44.331 -12.240  42.420  0.00  0.00     0.029 C 
ENDBRANCH  17  18
ENDBRANCH   3  17
TORSDOF 4
ENDMDL
MODEL 2
REMARK VINA RESULT:      16.4      2.093      4.322
REMARK  4 active torsions:
REMARK  status: ('A' for Active; 'I' for Inactive)
REMARK    1  A    between atoms: N_2  and  S_1 
REMARK    2  A    between atoms: C_3  and  S_1 
REMARK    3  A    between atoms: O_15  and  C_7 
REMARK    4  A    between atoms: C_18  and  O_15 
ROOT
ATOM      1  C   UNL d   1      45.940 -16.976  44.309  0.00  0.00     0.106 A 
ATOM      2  C   UNL d   1      46.198 -17.268  43.582  0.00  0.00     0.040 A 
ATOM      3  C   UNL d   1      46.380 -18.063  43.501  0.00  0.00     0.128 A 
ATOM      4  C   UNL d   1      46.307 -18.571  44.146  0.00  0.00     0.163 A 
ATOM      5  C   UNL d   1      45.868 -17.485  44.954  0.00  0.00     0.015 A 
ATOM      6  C   UNL d   1      46.050 -18.279  44.873  0.00  0.00     0.032 A 
ATOM      7  F   UNL d   1      46.492 -19.373  44.064  0.00  0.00    -0.202 F 
ENDROOT
BRANCH   1   8
ATOM      8  S   UNL d   1      45.756 -16.174  44.391  0.00  0.00     0.272 S 
ATOM      9  O   UNL d   1      45.110 -16.271  43.884  0.00  0.00    -0.200 OA
ATOM     10  O   UNL d   1      46.401 -16.078  44.898  0.00  0.00    -0.200 OA
BRANCH   8  11
ATOM     11  N   UNL d   1      45.572 -15.373  44.473  0.00  0.00    -0.225 N 
ATOM     12  C   UNL d   1      46.093 -14.798  44.194  0.00  0.00     0.118 A 
ATOM     13  C   UNL d   1      45.909 -13.997  44.276  0.00  0.00     0.142 A 
ATOM     14  O   UNL d   1      45.203 -13.769  44.638  0.00  0.00    -0.300 OA
ATOM     15  C   UNL d   1      44.682 -14.345  44.917  0.00  0.00     0.142 A 
ATOM     16  C   UNL d   1      44.866 -15.146  44.835  0.00  0.00     0.118 A 
ENDBRANCH   8  11
ENDBRANCH   1   8
BRANCH   3  17
ATOM     17  O   UNL d   1      46.639 -18.354  42.765  0.00  0.00    -0.303 OA
BRANCH  17  18
ATOM     18  C   UNL d   1      46.196 -18.922  42.364  0.00  0.00     0.123 C 
ATOM     19  C   UNL d   1      46.537 -19.352  41.743  0.00  0.00     0.029 C 
ENDBRANCH  17  18
ENDBRANCH   3  17
TORSDOF 4
ENDMDL
MODEL 3
REMARK VINA RESULT:      17.4      1.677      3.929
REMARK  4 active torsions:
REMARK  status: ('A' for Active; 'I' for Inactive)
REMARK    1  A    between atoms: N_2  and  S_1 
REMARK    2  A    between atoms: C_3  and  S_1 
REMARK    3  A    between atoms: O_15  and  C_7 
REMARK    4  A    between atoms: C_18  and  O_15 
ROOT
ATOM      1  C   UNL d   1      45.703 -15.621  44.304  0.00  0.00     0.106 A 
ATOM      2  C   UNL d   1      46.131 -16.047  43.743  0.00  0.00     0.040 A 
ATOM      3  C   UNL d   1      46.166 -16.864  43.788  0.00  0.00     0.128 A 
ATOM      4  C   UNL d   1      45.773 -17.262  44.394  0.00  0.00     0.163 A 
ATOM      5  C   UNL d   1      45.309 -16.019  44.910  0.00  0.00     0.015 A 
ATOM      6  C   UNL d   1      45.344 -16.836  44.955  0.00  0.00     0.032 A 
ATOM      7  F   UNL d   1      45.808 -18.087  44.439  0.00  0.00    -0.202 F 
ENDROOT
BRANCH   1   8
ATOM      8  S   UNL d   1      45.667 -14.796  44.259  0.00  0.00     0.272 S 
ATOM      9  O   UNL d   1      44.852 -14.824  44.393  0.00  0.00    -0.200 OA
ATOM     10  O   UNL d   1      46.482 -14.768  44.125  0.00  0.00    -0.200 OA
BRANCH   8  11
ATOM     11  N   UNL d   1      45.632 -13.972  44.214  0.00  0.00    -0.225 N 
ATOM     12  C   UNL d   1      45.852 -13.512  44.863  0.00  0.00     0.118 A 
ATOM     13  C   UNL d   1      45.816 -12.688  44.818  0.00  0.00     0.142 A 
ATOM     14  O   UNL d   1      45.561 -12.322  44.124  0.00  0.00    -0.300 OA
ATOM     15  C   UNL d   1      45.342 -12.782  43.475  0.00  0.00     0.142 A 
ATOM     16  C   UNL d   1      45.377 -13.606  43.520  0.00  0.00     0.118 A 
ENDBRANCH   8  11
ENDBRANCH   1   8
BRANCH   3  17
ATOM     17  O   UNL d   1      46.600 -17.291  43.219  0.00  0.00    -0.303 OA
BRANCH  17  18
ATOM     18  C   UNL d   1      46.266 -17.947  42.848  0.00  0.00     0.123 C 
ATOM     19  C   UNL d   1      46.568 -18.213  42.124  0.00  0.00     0.029 C 
ENDBRANCH  17  18
ENDBRANCH   3  17
TORSDOF 4
ENDMDL
MODEL 4
REMARK VINA RESULT:      18.7      1.376      2.025
REMARK  4 active torsions:
REMARK  status: ('A' for Active; 'I' for Inactive)
REMARK    1  A    between atoms: N_2  and  S_1 
REMARK    2  A    between atoms: C_3  and  S_1 
REMARK    3  A    between atoms: O_15  and  C_7 
REMARK    4  A    between atoms: C_18  and  O_15 
ROOT
ATOM      1  C   UNL d   1      45.569 -16.156  44.361  0.00  0.00     0.106 A 
ATOM      2  C   UNL d   1      46.043 -15.497  44.214  0.00  0.00     0.040 A 
ATOM      3  C   UNL d   1      45.777 -14.748  44.411  0.00  0.00     0.128 A 
ATOM      4  C   UNL d   1      45.034 -14.651  44.756  0.00  0.00     0.163 A 
ATOM      5  C   UNL d   1      44.827 -16.059  44.707  0.00  0.00     0.015 A 
ATOM      6  C   UNL d   1      44.560 -15.310  44.904  0.00  0.00     0.032 A 
ATOM      7  F   UNL d   1      44.765 -13.895  44.955  0.00  0.00    -0.202 F 
ENDROOT
BRANCH   1   8
ATOM      8  S   UNL d   1      45.838 -16.912  44.163  0.00  0.00     0.272 S 
ATOM      9  O   UNL d   1      46.041 -17.048  44.953  0.00  0.00    -0.200 OA
ATOM     10  O   UNL d   1      45.636 -16.777  43.373  0.00  0.00    -0.200 OA
BRANCH   8  11
ATOM     11  N   UNL d   1      46.107 -17.668  43.964  0.00  0.00    -0.225 N 
ATOM     12  C   UNL d   1      46.182 -17.886  43.172  0.00  0.00     0.118 A 
ATOM     13  C   UNL d   1      46.451 -18.641  42.973  0.00  0.00     0.142 A 
ATOM     14  O   UNL d   1      46.645 -19.181  43.567  0.00  0.00    -0.300 OA
ATOM     15  C   UNL d   1      46.570 -18.963  44.359  0.00  0.00     0.142 A 
ATOM     16  C   UNL d   1      46.301 -18.207  44.558  0.00  0.00     0.118 A 
ENDBRANCH   8  11
ENDBRANCH   1   8
BRANCH   3  17
ATOM     17  O   UNL d   1      46.259 -14.086  44.260  0.00  0.00    -0.303 OA
BRANCH  17  18
ATOM     18  C   UNL d   1      45.921 -13.374  44.016  0.00  0.00     0.123 C 
ATOM     19  C   UNL d   1      46.327 -12.661  44.131  0.00  0.00     0.029 C 
ENDBRANCH  17  18
ENDBRANCH   3  17
TORSDOF 4
ENDMDL
