MODEL 1
REMARK VINA RESULT:      -3.6      0.000      0.000
REMARK  3 active torsions:
REMARK  status: ('A' for Active; 'I' for Inactive)
REMARK    1  A    between atoms: C_6  and  C_1 
REMARK    2  A    between atoms: C_7  and  N_3 
REMARK    3  A    between atoms: C_10  and  C_7 
ROOT
ATOM      1  C   UNL d   1      57.544   0.082  30.890  0.00  0.00     0.148 A 
ATOM      2  N   UNL d   1      57.391  -0.050  30.083  0.00  0.00    -0.227 NA
ATOM      3  N   UNL d   1      58.330   0.329  30.930  0.00  0.00    -0.289 N 
ATOM      4  C   UNL d   1      58.649   0.350  30.192  0.00  0.00     0.083 A 
ATOM      5  C   UNL d   1      58.060   0.113  29.660  0.00  0.00     0.099 A 
ATOM      6  C   UNL d   1      59.397   0.552  29.910  0.00  0.00     0.019 A 
ATOM      7  C   UNL d   1      58.244   0.087  28.869  0.00  0.00     0.021 A 
ATOM      8  C   UNL d   1      59.547   0.516  29.123  0.00  0.00     0.002 A 
ATOM      9  C   UNL d   1      58.958   0.279  28.591  0.00  0.00     0.002 A 
ENDROOT
BRANCH   1  10
ATOM     10  C   UNL d   1      57.016  -0.016  31.520  0.00  0.00     0.035 A 
ATOM     11  C   UNL d   1      56.843  -0.770  31.801  0.00  0.00     0.005 A 
ATOM     12  C   UNL d   1      56.314  -0.868  32.430  0.00  0.00     0.021 A 
ATOM     13  C   UNL d   1      55.959  -0.212  32.778  0.00  0.00     0.103 A 
ATOM     14  C   UNL d   1      56.131   0.547  32.496  0.00  0.00     0.021 A 
ATOM     15  N   UNL d   1      55.430  -0.309  33.407  0.00  0.00    -0.148 N 
ATOM     16  C   UNL d   1      56.660   0.644  31.867  0.00  0.00     0.005 A 
ENDBRANCH   1  10
BRANCH   3  17
ATOM     17  C   UNL d   1      58.591   0.488  31.686  0.00  0.00     0.082 C 
BRANCH  17  18
ATOM     18  C   UNL d   1      59.364   0.682  31.857  0.00  0.00     0.019 C 
ATOM     19  C   UNL d   1      59.670   0.678  32.618  0.00  0.00     0.002 C 
ENDBRANCH  17  18
ENDBRANCH   3  17
TORSDOF 3
ENDMDL
MODEL 2
REMARK VINA RESULT:      -2.3      2.182      3.852
REMARK  3 active torsions:
REMARK  status: ('A' for Active; 'I' for Inactive)
REMARK    1  A    between atoms: C_6  and  C_1 
REMARK    2  A    between atoms: C_7  and  N_3 
REMARK    3  A    between atoms: C_10  and  C_7 
ROOT
ATOM      1  C   UNL d   1      58.411  -1.487  30.056  0.00  0.00     0.148 A 
ATOM      2  N   UNL d   1      57.829  -1.610  30.638  0.00  0.00    -0.227 NA
ATOM      3  N   UNL d   1      58.463  -0.670  29.963  0.00  0.00    -0.289 N 
ATOM      4  C   UNL d   1      57.945  -0.304  30.457  0.00  0.00     0.083 A 
ATOM      5  C   UNL d   1      57.547  -0.893  30.881  0.00  0.00     0.099 A 
ATOM      6  C   UNL d   1      57.766   0.490  30.594  0.00  0.00     0.019 A 
ATOM      7  C   UNL d   1      56.987  -0.665  31.423  0.00  0.00     0.021 A 
ATOM      8  C   UNL d   1      57.208   0.682  31.137  0.00  0.00     0.002 A 
ATOM      9  C   UNL d   1      56.810   0.092  31.561  0.00  0.00     0.002 A 
ENDROOT
BRANCH   1  10
ATOM     10  C   UNL d   1      58.845  -2.068  29.656  0.00  0.00     0.035 A 
ATOM     11  C   UNL d   1      59.616  -2.239  29.886  0.00  0.00     0.005 A 
ATOM     12  C   UNL d   1      60.050  -2.819  29.486  0.00  0.00     0.021 A 
ATOM     13  C   UNL d   1      59.712  -3.228  28.855  0.00  0.00     0.103 A 
ATOM     14  C   UNL d   1      58.937  -3.056  28.623  0.00  0.00     0.021 A 
ATOM     15  N   UNL d   1      60.146  -3.807  28.455  0.00  0.00    -0.148 N 
ATOM     16  C   UNL d   1      58.503  -2.476  29.023  0.00  0.00     0.005 A 
ENDBRANCH   1  10
BRANCH   3  17
ATOM     17  C   UNL d   1      59.012  -0.432  29.408  0.00  0.00     0.082 C 
BRANCH  17  18
ATOM     18  C   UNL d   1      59.064   0.334  29.136  0.00  0.00     0.019 C 
ATOM     19  C   UNL d   1      59.713   0.621  28.725  0.00  0.00     0.002 C 
ENDBRANCH  17  18
ENDBRANCH   3  17
TORSDOF 3
ENDMDL
MODEL 3
REMARK VINA RESULT:      -1.4      9.564     10.110
REMARK  3 active torsions:
REMARK  status: ('A' for Active; 'I' for Inactive)
REMARK    1  A    between atoms: C_6  and  C_1 
REMARK    2  A    between atoms: C_7  and  N_3 
REMARK    3  A    between atoms: C_10  and  C_7 
ROOT
ATOM      1  C   UNL d   1      60.179  -9.219  33.069  0.00  0.00     0.148 A 
ATOM      2  N   UNL d   1      60.861  -9.104  32.606  0.00  0.00    -0.227 NA
ATOM      3  N   UNL d   1      59.604  -9.506  32.552  0.00  0.00    -0.289 N 
ATOM      4  C   UNL d   1      59.909  -9.568  31.810  0.00  0.00     0.083 A 
ATOM      5  C   UNL d   1      60.698  -9.316  31.844  0.00  0.00     0.099 A 
ATOM      6  C   UNL d   1      59.591  -9.818  31.092  0.00  0.00     0.019 A 
ATOM      7  C   UNL d   1      61.133  -9.325  31.158  0.00  0.00     0.021 A 
ATOM      8  C   UNL d   1      60.048  -9.815  30.433  0.00  0.00     0.002 A 
ATOM      9  C   UNL d   1      60.836  -9.563  30.467  0.00  0.00     0.002 A 
ENDROOT
BRANCH   1  10
ATOM     10  C   UNL d   1      60.097  -9.073  33.880  0.00  0.00     0.035 A 
ATOM     11  C   UNL d   1      59.718  -8.390  34.141  0.00  0.00     0.005 A 
ATOM     12  C   UNL d   1      59.636  -8.245  34.952  0.00  0.00     0.021 A 
ATOM     13  C   UNL d   1      59.934  -8.782  35.501  0.00  0.00     0.103 A 
ATOM     14  C   UNL d   1      60.315  -9.468  35.240  0.00  0.00     0.021 A 
ATOM     15  N   UNL d   1      59.853  -8.636  36.311  0.00  0.00    -0.148 N 
ATOM     16  C   UNL d   1      60.397  -9.613  34.429  0.00  0.00     0.005 A 
ENDBRANCH   1  10
BRANCH   3  17
ATOM     17  C   UNL d   1      58.884  -9.655  32.904  0.00  0.00     0.082 C 
BRANCH  17  18
ATOM     18  C   UNL d   1      58.191  -9.733  32.481  0.00  0.00     0.019 C 
ATOM     19  C   UNL d   1      57.456  -9.815  32.836  0.00  0.00     0.002 C 
ENDBRANCH  17  18
ENDBRANCH   3  17
TORSDOF 3
ENDMDL
MODEL 4
REMARK VINA RESULT:      -1.3      1.220      2.101
REMARK  3 active torsions:
REMARK  status: ('A' for Active; 'I' for Inactive)
REMARK    1  A    between atoms: C_6  and  C_1 
REMARK    2  A    between atoms: C_7  and  N_3 
REMARK    3  A    between atoms: C_10  and  C_7 
ROOT
ATOM      1  C   UNL d   1      58.742   0.156  30.518  0.00  0.00     0.148 A 
ATOM      2  N   UNL d   1      59.390   0.677  30.534  0.00  0.00    -0.227 NA
ATOM      3  N   UNL d   1      58.937  -0.428  29.970  0.00  0.00    -0.289 N 
ATOM      4  C   UNL d   1      59.666  -0.281  29.662  0.00  0.00     0.083 A 
ATOM      5  C   UNL d   1      59.950   0.412  30.015  0.00  0.00     0.099 A 
ATOM      6  C   UNL d   1      60.128  -0.674  29.103  0.00  0.00     0.019 A 
ATOM      7  C   UNL d   1      60.684   0.682  29.795  0.00  0.00     0.021 A 
ATOM      8  C   UNL d   1      60.849  -0.381  28.908  0.00  0.00     0.002 A 
ATOM      9  C   UNL d   1      61.133   0.312  29.261  0.00  0.00     0.002 A 
ENDROOT
BRANCH   1  10
ATOM     10  C   UNL d   1      58.045   0.215  30.962  0.00  0.00     0.035 A 
ATOM     11  C   UNL d   1      58.000  -0.132  31.707  0.00  0.00     0.005 A 
ATOM     12  C   UNL d   1      57.303  -0.073  32.151  0.00  0.00     0.021 A 
ATOM     13  C   UNL d   1      56.653   0.333  31.849  0.00  0.00     0.103 A 
ATOM     14  C   UNL d   1      56.698   0.682  31.101  0.00  0.00     0.021 A 
ATOM     15  N   UNL d   1      55.958   0.392  32.293  0.00  0.00    -0.148 N 
ATOM     16  C   UNL d   1      57.394   0.623  30.657  0.00  0.00     0.005 A 
ENDBRANCH   1  10
BRANCH   3  17
ATOM     17  C   UNL d   1      58.364  -1.000  29.873  0.00  0.00     0.082 C 
BRANCH  17  18
ATOM     18  C   UNL d   1      58.431  -1.607  29.334  0.00  0.00     0.019 C 
ATOM     19  C   UNL d   1      58.069  -2.337  29.434  0.00  0.00     0.002 C 
ENDBRANCH  17  18
ENDBRANCH   3  17
TORSDOF 3
ENDMDL
