MODEL 1
REMARK VINA RESULT:      -4.1      0.000      0.000
REMARK  1 active torsions:
REMARK  status: ('A' for Active; 'I' for Inactive)
REMARK    1  A    between atoms: O_8  and  C_4 
ROOT
ATOM      1  C   UNL d   1     -41.402-122.196 -53.622  0.00  0.00     0.065 A 
ATOM      2  C   UNL d   1     -41.323-122.733 -52.997  0.00  0.00     0.186 A 
ATOM      3  N   UNL d   1     -41.320-123.544 -53.149  0.00  0.00    -0.224 NA
ATOM      4  C   UNL d   1     -41.478-122.474 -54.395  0.00  0.00     0.099 A 
ATOM      5  N   UNL d   1     -41.247-122.460 -52.227  0.00  0.00    -0.127 N 
ATOM      6  C   UNL d   1     -41.396-123.817 -53.920  0.00  0.00     0.103 A 
ATOM      7  C   UNL d   1     -41.475-123.281 -54.544  0.00  0.00     0.045 A 
ENDROOT
BRANCH   4   8
ATOM      8  O   UNL d   1     -41.556-121.942 -55.013  0.00  0.00    -0.328 OA
ATOM      9  C   UNL d   1     -42.232-121.951 -55.480  0.00  0.00     0.181 C 
ENDBRANCH   4   8
TORSDOF 1
ENDMDL
MODEL 2
REMARK VINA RESULT:      -4.0      1.561      2.154
REMARK  1 active torsions:
REMARK  status: ('A' for Active; 'I' for Inactive)
REMARK    1  A    between atoms: O_8  and  C_4 
ROOT
ATOM      1  C   UNL d   1     -42.071-121.882 -54.302  0.00  0.00     0.065 A 
ATOM      2  C   UNL d   1     -42.022-122.221 -55.054  0.00  0.00     0.186 A 
ATOM      3  N   UNL d   1     -41.598-122.920 -55.164  0.00  0.00    -0.224 NA
ATOM      4  C   UNL d   1     -41.697-122.244 -53.662  0.00  0.00     0.099 A 
ATOM      5  N   UNL d   1     -42.394-121.863 -55.693  0.00  0.00    -0.127 N 
ATOM      6  C   UNL d   1     -41.226-123.279 -54.526  0.00  0.00     0.103 A 
ATOM      7  C   UNL d   1     -41.275-122.940 -53.773  0.00  0.00     0.045 A 
ENDROOT
BRANCH   4   8
ATOM      8  O   UNL d   1     -41.746-121.909 -52.917  0.00  0.00    -0.328 OA
ATOM      9  C   UNL d   1     -41.276-122.193 -52.306  0.00  0.00     0.181 C 
ENDBRANCH   4   8
TORSDOF 1
ENDMDL
MODEL 3
REMARK VINA RESULT:      -3.6      0.832      1.061
REMARK  1 active torsions:
REMARK  status: ('A' for Active; 'I' for Inactive)
REMARK    1  A    between atoms: O_8  and  C_4 
ROOT
ATOM      1  C   UNL d   1     -41.183-122.178 -52.808  0.00  0.00     0.065 A 
ATOM      2  C   UNL d   1     -41.164-122.520 -52.056  0.00  0.00     0.186 A 
ATOM      3  N   UNL d   1     -41.133-123.341 -51.977  0.00  0.00    -0.224 NA
ATOM      4  C   UNL d   1     -41.171-122.658 -53.479  0.00  0.00     0.099 A 
ATOM      5  N   UNL d   1     -41.174-122.044 -51.387  0.00  0.00    -0.127 N 
ATOM      6  C   UNL d   1     -41.123-123.817 -52.646  0.00  0.00     0.103 A 
ATOM      7  C   UNL d   1     -41.142-123.475 -53.399  0.00  0.00     0.045 A 
ENDROOT
BRANCH   4   8
ATOM      8  O   UNL d   1     -41.190-122.319 -54.224  0.00  0.00    -0.328 OA
ATOM      9  C   UNL d   1     -41.753-122.560 -54.772  0.00  0.00     0.181 C 
ENDBRANCH   4   8
TORSDOF 1
ENDMDL
MODEL 4
REMARK VINA RESULT:      -2.9      2.780      3.494
REMARK  1 active torsions:
REMARK  status: ('A' for Active; 'I' for Inactive)
REMARK    1  A    between atoms: O_8  and  C_4 
ROOT
ATOM      1  C   UNL d   1     -42.233-122.289 -50.417  0.00  0.00     0.065 A 
ATOM      2  C   UNL d   1     -42.380-122.812 -49.793  0.00  0.00     0.186 A 
ATOM      3  N   UNL d   1     -41.898-123.473 -49.686  0.00  0.00    -0.224 NA
ATOM      4  C   UNL d   1     -41.603-122.430 -50.931  0.00  0.00     0.099 A 
ATOM      5  N   UNL d   1     -43.006-122.675 -49.280  0.00  0.00    -0.127 N 
ATOM      6  C   UNL d   1     -41.271-123.610 -50.199  0.00  0.00     0.103 A 
ATOM      7  C   UNL d   1     -41.123-123.088 -50.823  0.00  0.00     0.045 A 
ENDROOT
BRANCH   4   8
ATOM      8  O   UNL d   1     -41.457-121.913 -51.548  0.00  0.00    -0.328 OA
ATOM      9  C   UNL d   1     -41.195-122.199 -52.273  0.00  0.00     0.181 C 
ENDBRANCH   4   8
TORSDOF 1
ENDMDL
MODEL 5
REMARK VINA RESULT:      -2.8      3.924      4.914
REMARK  1 active torsions:
REMARK  status: ('A' for Active; 'I' for Inactive)
REMARK    1  A    between atoms: O_8  and  C_4 
ROOT
ATOM      1  C   UNL d   1     -41.400-122.905 -49.967  0.00  0.00     0.065 A 
ATOM      2  C   UNL d   1     -41.934-122.526 -50.473  0.00  0.00     0.186 A 
ATOM      3  N   UNL d   1     -42.725-122.446 -50.252  0.00  0.00    -0.224 NA
ATOM      4  C   UNL d   1     -41.660-123.202 -49.243  0.00  0.00     0.099 A 
ATOM      5  N   UNL d   1     -41.678-122.229 -51.194  0.00  0.00    -0.127 N 
ATOM      6  C   UNL d   1     -42.981-122.744 -49.530  0.00  0.00     0.103 A 
ATOM      7  C   UNL d   1     -42.448-123.123 -49.025  0.00  0.00     0.045 A 
ENDROOT
BRANCH   4   8
ATOM      8  O   UNL d   1     -41.132-123.577 -48.742  0.00  0.00    -0.328 OA
ATOM      9  C   UNL d   1     -41.130-123.403 -47.939  0.00  0.00     0.181 C 
ENDBRANCH   4   8
TORSDOF 1
ENDMDL
MODEL 6
REMARK VINA RESULT:      -1.7      9.853     10.319
REMARK  1 active torsions:
REMARK  status: ('A' for Active; 'I' for Inactive)
REMARK    1  A    between atoms: O_8  and  C_4 
ROOT
ATOM      1  C   UNL d   1     -42.747-115.518 -47.424  0.00  0.00     0.065 A 
ATOM      2  C   UNL d   1     -43.177-114.812 -47.423  0.00  0.00     0.186 A 
ATOM      3  N   UNL d   1     -42.784-114.090 -47.358  0.00  0.00    -0.224 NA
ATOM      4  C   UNL d   1     -41.925-115.498 -47.360  0.00  0.00     0.099 A 
ATOM      5  N   UNL d   1     -43.996-114.828 -47.486  0.00  0.00    -0.127 N 
ATOM      6  C   UNL d   1     -41.965-114.073 -47.294  0.00  0.00     0.103 A 
ATOM      7  C   UNL d   1     -41.534-114.779 -47.295  0.00  0.00     0.045 A 
ENDROOT
BRANCH   4   8
ATOM      8  O   UNL d   1     -41.499-116.198 -47.361  0.00  0.00    -0.328 OA
ATOM      9  C   UNL d   1     -41.123-116.452 -46.676  0.00  0.00     0.181 C 
ENDBRANCH   4   8
TORSDOF 1
ENDMDL
